# total energy = -340879.26141540473 ev
CRYSTAL
PRIMVEC
9.18159979624416 0.00000000000000 0.00000000000000
0.00000000000000 9.18159979624416 0.00000000000000
0.00000000000000 0.00000000000000 13.43819939213249
PRIMCOORD
 96 1
Ni 0.640044727882394 5.443063509527747 8.42838446147431 -0.6351779233695577 1.3527059670022574 -0.7852470442462283
Ni 0.23294820361715113 1.4942686331697703 3.399044754912494 -0.42391474748207 0.859514644611552 -0.3817206306125232
Ni 2.0255068131961287 2.833469228135196 1.4646157386120848 -0.22819826107992955 0.8464616680823357 0.47620301536282506
Ni 8.113706247668519 4.469575214267292 10.157826918041014 -0.6094321818640214 1.6600399551730896 1.669792149463847
Ni 2.2713533281442917 6.277386297353585 6.050454796053641 1.8793514552863506 2.2797190115760997 -0.14335468497097248
Ni 2.3752982189318685 1.4434484785448045 10.89676665684762 -1.0606345614174508 0.7452229384448068 1.4165662559913281
Ni 6.919005669593375 8.356807464290961 6.648831587943439 -1.1588861834021977 -0.4227783198847816 1.3174258036437247
Ni 7.641579206842797 1.1978865931889402 1.5871184788175443 -0.7069878062230082 -1.1217671670627132 -0.07228682248986905
Ni 4.8163275104852605 3.2823668215894326 3.9598743127782017 -2.4940741961253496 2.6777057263384982 0.13127461387798683
Ni 6.749944873367631 2.401612683819882 9.632609112971762 -0.9689230545440668 1.2842557446496592 0.3566940266611986
Ni 4.079063413633318 6.805851634254968 1.8471074118630577 0.022318975212174467 0.6366545079150842 0.6421877790284876
Ni 4.195375919286266 1.7632160530928953 2.1263666864671764 0.6879634426017055 1.0686060096587016 -0.4949093335230767
Ni 4.6900070611030955 6.855092553722663 5.31820752530596 0.07490291995647745 -0.7570916648579348 0.5946496242382081
Ni 5.409091590446921 6.138734959505057 7.748855182020246 0.4919983305238688 -0.7237699107773535 -0.20422606653504827
Ni 0.16770559210241187 5.716757816522436 12.95914126568622 -0.30971148726407305 0.9107940116118184 0.9183916214534183
Ni 8.797588523564805 2.076841137407183 10.81890577279429 0.945709849652397 -0.28630930629004886 0.7272187885579023
Ni 5.974191510357087 1.5017883633663098 3.879567450551054 1.8513544558527923 -1.6103107062687623 -0.22278788869763566
Ni 2.914983470729676 5.18932081879323 3.1950121633929767 1.483304380748826 -1.0879851855162617 -0.35054240523750596
Ni 3.8433901112099 2.389144071357243 6.718306916943654 -0.7437047020280676 -0.996076217920091 0.8686022087351171
Ni 7.56619827288237 4.506044528480547 7.448054956238957 -0.2180406038206374 -0.059526694610723296 1.209294974872053
Ni 7.967985078011276 4.756784836096299 5.214156127961264 0.19939676346720497 0.4508467959862235 -0.8715147543962216
Ni 0.6867937611775116 1.2234389852975724 13.37568473793586 -0.3528360863676891 -0.962635421763142 0.7212119202421903
Ni 3.2226772416044462 4.738972532578244 7.605671806534339 -0.1909568602299679 0.1905393130765751 -0.013004125569151799
Ni 1.359556201614667 3.2399019227384 7.119854082319045 -1.327503242484385 0.04092656301103274 1.7887676342595065
P 3.3747888046887837 6.830550137586704 8.404545355879323 -2.150842465616644 0.1422696794369098 -1.2672640951876692
P 3.0866977492836254 2.1254026184932613 8.877651155238562 0.5714965831605126 0.37810283135427786 -0.26710727944030127
P 7.343737292501467 6.959661793293347 4.714765244833218 -0.895907067197657 -0.11217723092690357 -0.5675946770029451
P 4.593288089320009 4.714466842841291 5.82433035737186 0.34478519103875455 -0.2019609246499554 -0.006845819277239823
P 1.196399174029185 5.101012192382584 1.7849690992243261 -1.3718447447142372 -0.8269390246683759 -0.7152024808233166
P 2.971734938794159 7.2712761072620395 4.0004175028012305 0.6046576432935135 0.5457660111636279 -0.3095759901274733
P 3.208409035590499 7.29996860648571 13.168830640812683 0.088516396974854 -0.9778005595393545 0.6664160554482329
P 9.333922491453288 0.22304401196512755 6.8323433040181865 -1.5155426719572416 0.0248859646084023 -1.0929456148453307
Ni 4.863135306018789 3.4017092551604002 0.03742970954726927 -1.632404452844008 0.8391270820941356 -1.2035842976405209
Ni 5.418227282199738 7.704105901151021 0.17516013294071534 0.9521221809366442 2.3706561021773043 -0.6301164496862502
Ni 7.955286925554849 5.401342320256592 2.8880033398596736 1.150318753448161 -0.21522447452808097 -0.25815109868827796
Ni 0.768514589766402 3.9343154935497435 3.609728497292051 -0.1225014956710471 -1.9190559729648238 -0.06520934681779737
Ni 4.828125866166034 2.4539569840036086 11.087374831370358 -0.6806859351036858 -0.0962009101033053 -0.9203276621338667
Ni 2.097499736848226 8.55336715177267 6.925442889179203 -0.4018189440242951 -0.5753455245929575 0.4964422252278354
Ni 7.662347985480859 1.5940634408696353 7.547591760985803 0.004816704662352995 -0.1673235370817441 -0.7877543840491142
Ni 6.58364773866711 5.919570173434969 1.1002228347914156 -0.5145692738458493 -0.5075450200092162 0.010817659440794273
Ni 5.689405830862495 5.5911443503211435 3.6086937310000486 0.11015351562865544 0.42182726882542193 0.09400981598925745
Ni 5.999000192885841 3.0043020731129944 6.056018845503095 1.9908200901820037 1.420069126938264 0.48289791088449746
Ni 3.7880893359061654 8.759787877387572 11.613251875301772 0.7555739426618278 0.26068054997835105 -0.29901004168616896
Ni 1.5139907094361529 1.5579705722461954 5.651582230685883 0.2882160363944585 -0.9003885000077784 -0.8687127661710522
Ni 2.2151435744651518 0.5589069308777288 2.6210942350813986 -0.21490797172892667 -1.9971275204572705 -0.44382074237737756
Ni 2.616581478803499 9.056977898146542 9.317778484610095 0.7213926687944285 -1.7482712168073566 -0.9078583260222622
Ni 2.841549035916582 3.7343218877609443 11.542096313547018 1.869437538606748 -0.4902417528440783 -0.06146736327686188
Ni 0.9795297878969915 1.347574213938862 8.601482407110822 -1.1805976069373603 0.24375677763981893 0.06451514896425017
Ni 0.7979820160091057 3.3749081654855537 12.525543890058007 -1.1573244953420327 0.661021623905539 0.24274993364185934
Ni 5.8231909208426895 1.2984434736681858 12.87493681436453 0.4926755590965515 -1.1578767683010769 1.262083065207362
Ni 7.322986877062908 4.58047057606681 12.742705251062302 -0.7698615629290935 -1.5346289991647313 -0.7846700886968357
Ni 2.444454028260729 5.123718288568229 13.224827381377585 0.3366689896895234 1.3022575805437184 2.1856140647698745
Ni 6.227098675514211 3.4242317193510132 1.913626265743266 1.2103046470834897 -0.9433295223456787 -0.023399609870862925
Ni 4.874887753700803 0.9154817025099321 8.662411503062271 0.7022731743561582 0.5149521111065647 -0.1363934231617909
Ni 5.0198743953779195 3.5815217046952386 8.56114121228233 0.37814808276991646 -0.6347120394767327 0.2284684840221807
Ni 1.6613462038491744 7.169240989222791 1.507282632657652 -0.4147482504914534 0.887699077465568 -0.16859083382994192
P 2.6757201628033918 2.2979248778253494 3.677578683136238 -0.3510612538554535 0.7036014062492786 0.2880342594009555
P 5.763225892865155 0.3210787069926157 10.659502183187254 -0.9601671627283077 0.7600530614791039 1.5315842988011366
P 5.523273964957503 0.11905688581869352 1.803540721041836 0.5276651877978589 0.17833582903184772 -1.2825945548971525
P 7.191267647026818 6.809074375767771 12.533472201443491 0.5593280661187787 0.5157113578700925 -0.02650498826906403
P 0.7638944087714096 4.991393072948534 6.149481103854299 -2.2281802202668595 -0.9320758038087303 -0.47626857849343784
P 5.4691851608209765 0.9886930244490629 6.052202054486366 0.4298889627876338 -1.9889100176434842 0.08877402151161486
P 4.651214802152694 4.704835344701889 1.816495040131333 -1.0600560632061615 0.5793366480302217 -0.2000138282259136
P 7.861349978496489 2.344044053377509 13.097836675213557 -0.18946510617578985 -0.5688912843271815 -1.3512196122647182
Ni 8.497111490094772 2.3472851580898144 5.377012917234869 -0.9601612491910368 1.5966424647530502 0.6270452669600942
Ni 7.840691379055445 0.12189124566200461 12.090200174157044 0.06188516754057085 0.1428234950578508 -0.549035425943519
Ni 2.221726781487031 6.935064287558879 10.573510992553906 0.7210908212832936 0.2840783600770011 -0.207758505168339
Ni 4.55790220387744 5.986724394017987 12.216479306340329 0.7647052155391346 -0.6270331827752362 -0.7359623390784874
Ni 3.578023515189889 0.5060824330269942 4.908584224789082 -0.14648217485636064 0.2397998498745999 0.23548579588027832
Ni 2.60754678464795 3.7211279289179315 5.2909547009233355 0.4279351814953727 1.6750479985461473 -1.0401852924241635
Ni 1.4470935736461796 8.258509257350601 12.58158102966182 -0.8226740787444349 0.32192705549365846 -0.5867637937322282
Ni 1.318881714715191 8.558472121234546 4.561556480578567 -0.68311768447363 -0.28956920798824326 0.0010032444535337563
Ni 0.9763988623817045 6.143068674587799 3.9662573609254967 -1.0896245208918975 2.0135712678355904 0.5607989942373502
Ni 8.991760995111106 6.795513152934695 10.792849310859298 -0.9683712958056548 0.9119695199771586 0.1268093790177816
Ni 5.1236631989697194 8.428974838338338 3.6923197415373905 -0.4044584385296712 -0.677411121007156 0.17501396374746633
Ni 0.14508121215455674 8.100402109628487 8.692526232087461 0.1134995492827529 -0.5206602172349356 -0.1830777145922073
Ni 4.369532503374135 8.378521947703435 7.00638144546926 0.7384380543124895 0.6007454527233008 0.3382409621623336
Ni 1.6573981159559974 3.7121942323596495 9.494356256552452 0.17355923357881078 -1.5495897342396217 -0.10091425641857459
Ni 4.75719800808512 7.765659345885577 9.588840426956008 0.8420632819043239 0.8664213990337144 0.6950195781175386
Ni 3.876811134305631 5.221529870721753 9.925359830250846 0.06187154069381602 0.46383523782609143 -0.14848352155710556
Ni 7.5770325605892275 0.3154448773850495 9.702649110356699 1.007936973913419 -1.7852529362380287 -1.0926041723455118
Ni 3.411478477296076 0.0940361083356774 0.5911931082441659 0.12977180408021521 0.3380363023506952 -0.2382906123189251
Ni 7.816653950905822 0.22777620847708913 4.843140536239784 0.6708620070347284 -1.4607113259396587 -0.8137446374652888
Ni 6.518164569238879 6.4301038460215265 10.403652315309747 0.31747981835558226 0.45108693702148767 0.11613158758896128
Ni 8.559206649214673 8.053686130092474 0.3588600718103703 0.06760587207443196 -0.9011863133187255 2.2517628926828057
Ni 8.928279414428719 7.075542763757971 6.350019178508367 0.20016012399579078 -0.22287582042575163 -0.28710737671131203
Ni 7.11781484901422 7.867731190323833 2.562718542020862 0.6446604089386962 -0.08840995330397677 0.24248279602340173
Ni 8.688850837706907 3.3838602252433394 1.3395531683958863 0.9379245492800233 1.1972275021845575 0.03653229059807902
P 1.167559769209489 5.091316423044922 11.02567998999963 -0.4174638496504036 0.24039917402149566 0.7785094684120786
P 0.5869319277994601 9.066095226699854 10.709089248965583 -0.14014054890904898 0.04211852643660488 -0.6801519169770868
P 2.7774063800520814 2.0254333603981163 13.044365792740312 0.870150012838211 0.28091076098229684 -0.4435502623248103
P -0.021368337101839715 8.702329426142219 2.687841710795421 0.3141533250855105 -0.7302701737897165 -1.0029392635885115
P 5.6734023024955 4.537362965233168 10.96901115633291 0.46930063181603693 -2.407135428050261 -0.1561855181870536
P 7.497483180341584 6.618546999322844 8.37300564257269 1.039912755489067 0.03259156078277613 -0.029544803536652342
P 7.706796109878232 3.1208900267584894 3.3278625665184607 1.3289502593435565 -0.29250617912938015 1.91030239514191
P 8.656127616192295 3.1096150222635557 8.793608300072497 1.2444859209508892 -1.3764462480419906 -1.61772782466844
