# total energy = -381165.7829632221 ev
CRYSTAL
PRIMVEC
9.27307379860031 0.00000000000000 0.00000000000000
0.00000000000000 9.27307379860031 0.00000000000000
0.00000000000000 0.00000000000000 13.57208084092077
PRIMCOORD
 96 1
Ni 2.0761392318716 1.0433228122735176 3.239832106601212 -0.677811184659052 -0.5248459731815089 -1.101420227975245
Ni 0.5972629226453984 3.151444875864073 3.3604877797319785 1.9640127401811724 -1.462977753376332 2.404268648025427
Ni 2.522554280228289 5.062514120078636 9.781724209201496 0.04966908509035317 -1.2799931127185633 0.22996769427552655
Ni 6.576732895680731 8.38986920693389 7.166411371221771 -0.10197457936228889 3.689264356164904 -1.3464137062356425
Ni 0.08793285011834275 8.80789010315273 7.13933492287843 -0.09139346141233293 0.6346282215136748 -1.19778851689435
Ni 4.792788220916779 3.7914075216803247 4.30635336773275 -0.8295342961993778 0.3560188549710449 1.177114019264134
Ni 6.2553096097884655 6.501092432261909 3.0320976334539633 2.2826068746468557 -0.5361593413117991 1.3094371290112934
Ni 4.733820744285628 3.472831069460926 8.953081402391115 -0.6740761430966521 -2.1614837473805744 0.831628459724245
Ni 1.2836159750259921 6.237588765655405 11.32617320556433 -0.037885976412496046 0.45509425840866785 -1.1113002060931185
Ni 7.853783534418807 9.099018256767284 9.192804271101632 -0.9415328354565721 0.04368998468878282 -0.2639527929717196
Ni 3.5192520771689835 5.603125052633976 12.057802968339525 -0.05553659961472371 -1.476939614873063 0.5670819990325846
Ni 2.49496688551565 2.7115117061306226 4.842423276022281 1.3801473510426618 0.8584370952766572 -0.016247057986481697
Ni 2.8179758670367763 0.03196057634170798 9.437998253385409 -0.43736367389812414 -0.041575766559257425 0.5156751053155184
Ni 4.033036007067629 2.608766047839517 6.6321877319363685 0.9489322132444368 0.43019338140193014 0.42092249762296535
Ni 1.441907345696495 1.6708502660529125 7.848611941130996 -0.4805111558198757 -0.23815434385137696 -0.3865712738366052
Ni 4.820329250260151 4.7856572271238305 1.892260668518548 -0.07472679938992936 -0.15697047598219419 0.511715349336822
Ni 0.5563612484946395 5.025820566842364 2.3457575633767633 -0.49374488090133034 2.5689056394139436 -1.9295306472439024
Ni 6.904628787122381 3.6177228484138615 6.094827939073887 0.07600335210950782 -0.6152333619268306 -1.2781586306129857
Ni 6.691505730759161 3.8743458942214484 3.2140585251342175 1.071084295995865 -0.1051393502435157 -0.9463590532006219
Ni 2.7589063865932437 7.4527230902770825 5.524868655081225 1.987251913214771 0.7600887998130458 1.1285579647323016
Ni 2.4640040919205237 3.88369315266526 7.824956329732024 -0.8506327687408898 0.025956057744129492 -0.9738927398445163
Ni 7.2932354930795436 0.6243486440625906 11.332184939343225 1.2863884747219458 -0.08138467102607919 0.13997111321072023
Ni 6.768268236114195 6.5464563095507255 7.836641330094174 0.6296510800140576 -3.4451406821039696 2.845108710507926
Ni 5.191103835198018 8.098768872540894 5.184399402802309 -1.1335829287507186 0.5765850534270134 1.1952901759525285
P 2.344622539137158 8.239153937601278 7.626043331741123 -1.1388238654346838 -0.2128929981814269 -0.11354068693333348
Ni 0.8621649687889321 1.3979251564117736 5.465911378831315 -1.9524268351157859 0.07152886127792198 0.5910089421618274
P 3.7140793588202587 0.13399313525351875 4.367644676671458 0.1405267286038741 -0.4060530367103007 -2.6551962323820724
Ni 2.153383937066989 0.8104991105096249 0.3736288370698165 0.6796024722315199 0.31210852674133993 0.36227229207992445
P 5.908543013055984 1.9083151412802257 7.446200410128891 0.9399978868692843 0.7219739952191953 0.17713435252457882
P 8.30834034161842 5.681287792140811 9.462889038221599 -0.4799928214225605 -0.6313279534958482 0.37147427029416674
P 1.847780515167921 8.855535156609381 11.570374968945842 0.962637221535355 0.9987774189013379 -0.4787628056702013
Ni 0.42832142665473893 3.7228980520544503 5.918214829084651 0.6783914826425542 -0.5044242149920475 -0.07974045055443686
Ni 6.1968336060715234 2.521126226854929 12.163570721399319 -1.6731145289688605 1.675837327216662 -0.34394161209153673
Ni 8.85447802619014 7.3010156020422015 3.3057108051749937 -0.7713952259648006 -0.36455723145935925 -0.8937784508904285
Ni 9.154461965334297 8.257106608580662 11.571433953979852 -1.214158216501625 -0.22563692811065655 -0.07865904456480002
Ni 3.3359604993908256 1.3178243444696645 11.541982671422764 -0.03763657940585131 -0.5480576354112819 0.6423435878800615
Ni 4.022575979761459 2.239744073859865 2.4550129195126664 -0.11949073386918131 0.15797372043572794 0.12773703303837355
Ni 4.280126332954344 7.164655051034015 7.483564406604735 -0.16810026734676856 1.0463042608377078 -0.9992602720750273
Ni 2.719134172837779 6.2477613276721335 1.5405125765122416 1.0048912451085599 -0.778538264767485 -0.41248490837857343
Ni 6.670622768442233 4.251073792572933 8.220758940999106 0.1620034104204113 0.2584737721350194 1.0858696818351556
Ni 5.22266937859359 0.2022077211308681 12.3674364681351 -0.21328714829605205 -1.8364551701434568 0.48113387700553917
Ni 0.20975878516935612 7.415667887160543 8.921783850829897 0.7970280960415563 -1.0036907970425553 0.9298006346213084
Ni 7.312486394398348 5.332045284689582 1.1806867098725975 1.5233305434327766 -1.3013312120747071 1.6304403871391018
Ni 2.5395796438223748 7.774786218265204 3.16984079977363 -0.0730787222635451 0.4223029229102598 -0.8439011064440112
Ni 7.466641974130417 0.983437301330922 6.0862772376740475 0.38444985661822817 -1.4220517045859316 -1.3754879978937793
Ni 5.6534407513602885 4.875819324196432 13.102242258704942 -0.21551886584004817 -0.8206732462643221 -0.4268008107806133
Ni 4.552624881198246 0.24860276423213698 7.6852992009691 1.2697596079160132 0.2243459772133749 1.7830636418961938
Ni 8.519145129518392 4.959573727236617 4.385193968938238 -1.7706243876915764 0.18535339800026143 -0.717770755771125
Ni 8.154194034960202 2.283485163224409 4.362189327323746 -1.6974477063975864 0.27513889149552617 0.30677760144672966
Ni 7.051820288390858 1.2355536332459562 0.29893608179876985 -0.09433891719390204 -1.0062451880332928 0.9304323546680364
Ni 4.61387353399723 4.887865047131463 6.731223233378893 -0.5384612499720984 0.04268442624240391 -0.42509102717835817
Ni 0.40538540578675875 0.9966143392760178 10.161525204227862 0.4351550962825796 0.39364386441267046 0.33260176159868526
Ni 0.08302924866488275 1.4288230384899292 13.054510038354072 -0.327724636012042 -1.463321509868996 -0.6691985032893766
Ni 5.450425345496824 1.365580674812552 4.960432413875404 -0.8881243379284446 0.8665975196002623 -0.19941244719648885
Ni 1.1422757833587511 6.271722950508254 4.606405000316034 0.34376112064961445 -2.0286281621687126 -0.11219728553156162
Ni 8.714046595760491 2.7543069419621617 1.553297363433356 -0.5028206179503534 -0.49590666443933956 -0.9802803885384149
P 1.0085116930294014 8.613813940483546 1.7021830552947732 0.08882724334705347 -0.38911023820837504 0.11892920493875646
Ni 7.264062402738044 2.6203017517126344 10.090326543184622 -0.4912323988921217 -1.2766339664383433 -1.303723623566284
P 1.7967878820503407 3.115001695621831 1.5708596380035296 0.8251114845413338 0.14385784985963612 -0.8749669746108802
Ni 4.878156138807384 8.30269303964195 2.574433419206215 -0.3827120479915151 1.4722892605852451 -0.055072001273479346
P 4.759117689756579 0.985746296720316 0.690968261237226 -0.4750269927768529 0.8872195667259881 1.5954229905236523
P 6.869335468037909 3.3775224163999176 0.637400495510671 -0.7144530042518018 -0.16169359248947637 -0.26965807088661303
P 3.9581559357047524 3.558504998788681 11.373295257655675 0.21562402395934477 -0.5162237787301367 -0.19329167901073163
Ni 8.607220784974071 3.525891598047723 12.674695133716927 -1.0141467022685566 0.912442602958835 -0.22757553989426613
Ni 5.766618617736005 6.83997691621935 0.9061415942293417 -1.7218197074840476 2.0876786884739658 -2.1721304284611427
Ni 8.830312395729253 5.97451166044614 6.6028171251218 -1.468080621820536 0.9539677187858151 -0.6075321366278311
Ni 3.9748011032708654 3.221725502595868 0.25102210920038154 -1.042044200009773 -0.7036998795003558 -0.9828795167241589
Ni 8.145634987793896 1.9710845781911006 7.848123250138944 0.5093720459156259 0.3603491069152826 1.861433437355349
Ni 2.676802590698889 4.636397830386138 3.286981977914114 0.4466859797403146 -0.4752637913780072 0.16301282552153215
Ni 6.8898382343268665 8.817395003852042 4.0580658880116145 1.5646980506359698 0.36116414661741025 -0.0012580407768171882
Ni 6.620436892749862 4.66399449817263 10.841446452584023 -0.8257573456554489 0.06471183835608856 -0.7950851133825726
Ni 1.027048567661524 8.622595541422326 4.656349776088227 -1.821704237086527 0.22514764717906385 0.7422324883579153
Ni 2.726608270363287 2.407790718223711 9.590656231690222 -0.35730954875801046 0.6933308775612059 1.0238338476493336
Ni 4.318999058546069 6.301860440530465 4.057184018688195 -1.4359618869091206 -1.2942660776978097 -0.15044013106284412
Ni 3.5248808329977477 7.1007728452607815 10.298793589166255 -0.5420088581140406 1.7336349549514207 0.5966103475090048
Ni 3.0473175295688724 0.6067131122089783 6.2069737123297655 -2.6658534549856023 -0.34366187606758875 -0.13204671615732097
Ni -0.020667827003539353 3.574723604957557 10.311076702791922 1.5235040928961634 0.8486867007581126 0.20558926543116207
Ni 8.659678563760425 6.857929587198735 0.3314956987113808 1.2636293266485592 1.4011725471440772 0.10784620765171749
Ni 4.706261168794549 5.677068543537701 8.974376089187118 0.975693797608997 -0.1293966801289836 1.4371296819649766
Ni 8.334369859923756 5.8939657409590875 11.751006101835577 0.6777461357490715 -0.7009104896806768 -0.15774797757816703
Ni 6.3573783336883025 1.4510042311462763 2.692198675217005 0.25883681190139296 0.03304381782884632 -0.6255712535177291
Ni 1.7032411130213991 6.067668960373256 7.155037946141081 0.8119168402279308 0.5765585710644523 1.601156807683636
Ni 8.896605600704264 4.157313742845373 7.989205650353072 1.6303421709983408 0.01809439560786561 1.0504943876596553
Ni 6.2873017145812735 6.855481495701546 11.926004769667008 -1.5045234380286026 1.4223432676844212 -0.17368264653055251
Ni 1.2870470123515978 4.897620320824807 13.234977965143996 -0.287905190022259 -0.05562093179841388 1.4203126104076378
Ni 1.8531403518549479 7.2928831162731305 13.302254115947422 -1.7087901279935989 1.6919761417600538 0.40130395206108954
Ni 6.241195991384218 6.102730452611403 5.574691953585944 1.3858058348800197 -0.8784155952811131 -0.7197006258039863
Ni 7.4813305231135505 8.562172192196256 1.841079792001752 -1.902218846802827 -1.4500127085752317 -2.8469668467625873
P 5.412813757949106 7.943175966361611 9.63739901506098 0.8974841818767898 -0.10792925428382702 -0.6510873955109625
Ni 1.6914828553758103 2.8928652114735067 12.124143465991185 0.33525591139208066 0.3099308023637308 -0.5939567119362416
P 8.04000540353451 7.657658022428114 5.491372457709463 0.27076107414280465 0.30747128507964466 -0.10013341238849206
Ni 5.244841298176083 0.8174520612845952 10.037394910324382 0.08208863907163927 0.21721707947807753 -0.6371535590386898
P 2.4732493465519525 4.72159883294739 5.69838734032572 1.1207060727880505 -0.14399488965813267 -0.759827318621543
P 7.410419327359752 8.497047394526723 12.964282102457116 0.24495851125740398 -0.8915462191258 0.9629105298013997
P 3.8831089490125215 7.422492869516342 13.034884504851608 3.0102630078524935 0.553106253578783 0.5544182875219871
Ni 8.803160835487706 0.5524248286440461 2.929004234893371 1.9818284282063547 1.3668681174352524 0.5171612029427416
