# total energy = -340871.0664384412 ev
CRYSTAL
PRIMVEC
9.24432699941837 0.00000000000000 0.00000000000000
0.00000000000000 9.24432699941837 0.00000000000000
0.00000000000000 0.00000000000000 13.53000699454546
PRIMCOORD
 96 1
Ni 0.23118304980535725 6.412817255174353 3.839153217276811 0.0375249935286515 0.33226443286392454 1.7514023062371709
Ni 7.953106991642483 7.549767767708736 2.3389588995698336 -2.216560890860376 0.08240411342952905 -0.23240638562400617
Ni 2.6794403987881283 4.148437886740821 11.18988415729995 -1.7718819142477613 -2.2926254352251227 1.2440791724307736
Ni 7.967352499288008 5.629563931494894 6.148630109719384 0.7417838308562709 0.4506485639324883 -0.766761326737215
Ni 3.275274240309655 2.6577624523710246 7.548282204387103 -0.03454148542029535 -0.3028684962003107 -0.6188779006579536
Ni 6.5037814311847155 5.395553042112141 9.10014768691216 -2.377576740556538 -0.2632046019517854 0.16040084181998182
Ni 4.726920126801834 8.484674273039618 12.694826361266978 -0.834275410428789 0.2173263513624322 1.0210439436090222
Ni 0.9192503134110486 5.940949836447435 12.408869750559285 0.04280706786319724 1.7021469116454684 -0.4691479082882566
Ni 1.4743684418411085 1.4142340958098687 0.7971456980400671 1.0308802129731536 1.4543920685898502 0.7080866957141417
Ni 6.5237861544455304 3.8215400013669996 13.063208163291867 1.095097885301643 -0.734224016231142 2.0789744758317488
Ni 4.726171336328578 6.406318493412638 7.103551507070592 0.19269261197415202 0.9226372841036498 0.5918579204256839
Ni 6.893485273043739 7.319417631750791 7.9525726695516905 -0.5216817165209144 1.167498607661557 -0.5528378304087446
Ni 5.514462818130564 4.954450743076531 5.27916511845303 0.6465486271003446 -0.4719997759147548 0.10411348008216263
Ni 3.2487707552871243 8.939227067613343 1.707689704442319 0.8833379722833948 0.5724640892801044 0.1426489171531995
Ni 2.2133599286569905 7.904139792422271 6.460700094857368 0.0004851671665346483 0.4253363104199449 0.2601038515392746
Ni 7.508020387743005 5.359472434493397 11.332219057506405 0.689639801862864 0.17101589833166675 -1.1305947926566724
Ni 5.427298060447464 9.53191783801256 3.6880223400913037 0.5282930511898449 -1.2471544689219878 -1.1867458859269433
Ni 2.912360457604903 0.6533446475983216 11.594268914598205 0.42977583424853727 0.017437992970789323 -0.5935183388472424
Ni 4.595946504269842 9.142334172402332 6.984014041260392 -0.5882648037577869 -2.4027560680356426 2.722539851934053
Ni 0.40026271196461627 8.432915287116648 9.165916450146481 0.36774308538650863 0.6409827029767928 0.08852719560813141
Ni 8.639387326871873 8.39815661823464 6.7826189858003785 1.3224443399042385 -0.5242949857740454 -0.4847935852453134
Ni 1.1564930194536813 5.389877025438324 10.135043604537845 -0.4381231777719681 1.327131718077579 -0.9957268050004724
Ni 3.5455876011550793 0.8772829184667561 4.897510311965168 -1.4361012407004623 -1.7856054344814407 -0.48635244509200115
Ni 5.906560940638641 6.1718546320152 13.292934307188764 -0.47986966558113486 -0.967503805599037 -1.151847017167229
P 1.0157666321157008 6.065581850773826 5.899976206637403 0.5032417646481719 -0.8781777682386941 -2.2467582403793624
P 6.958537600948709 8.635366044700683 12.999061779416268 -2.0797571196340443 0.7057822159506812 -0.4435425490153264
P 8.240087873762977 5.10836878480138 -0.25118592420080643 0.8924862144415661 -1.4585112329645462 1.0866448694382833
P 0.9407119425803224 0.6176088533703487 7.291888950882777 1.4573933173100189 -1.1479232566327906 1.7346047750638578
P 4.214858375016679 0.6810036734746429 9.385495096481737 -1.712819046647334 -0.7521191513440079 -1.6319537384598346
P 2.149842159005853 7.3817059059334955 0.6466129288004816 1.006905704435427 -1.7641290097752198 -1.1135802603765468
P 6.842724674418444 0.22084327024564293 6.827390185072308 -0.8338501499659122 0.9728943804869891 0.1763059430860125
P 4.450699641111835 5.3838127470376325 1.3593597717450818 1.48043708650336 1.5439420490355409 0.41240726106310266
Ni 6.098038682275084 1.6882174544069304 8.592596242187518 -0.4608884964929418 -0.3139268108970013 -1.0852379617884278
Ni 8.493493360835743 4.371900999210176 9.056093847402265 1.284105335114724 -1.0094181864446359 -0.6379570287765916
Ni 1.1979538252876725 8.816758225765248 12.869201173834645 0.5802018242439944 -0.6342081032571206 -0.47061163731797667
Ni 1.9039060880119862 1.3274483555268126 9.399485460706746 -0.2944296214043381 -0.4378370139901169 -0.37132771741397336
Ni 6.936730233955981 3.6769494854139446 7.059173191688953 -0.9727298298846667 -0.20776621847782284 0.3518531536291295
Ni 7.170556236802128 1.5298436471498664 4.723298199549713 1.2977015857419198 0.1938904889369951 0.6715600615430176
Ni 1.554516755459994 1.780198506368627 5.673226735979867 -0.841581457171899 1.3648042929276882 0.06834326446108875
Ni 4.116960953883576 2.719967527612257 9.853539061631636 0.47565048529346465 0.27972625375589244 0.7031468352103633
Ni 7.9793516355137655 2.2603211089550226 9.883128302950126 0.3410820311555545 -0.5000749368844162 0.5922944937424702
Ni 4.966006151614433 4.385055676289723 11.51409009470078 -0.4497941863519931 1.7992109410800177 -0.7719356718493028
Ni 5.343174686291541 2.709151665220781 4.183627341253121 -1.4663993774633712 1.241808888339358 -1.8849163509686377
Ni 2.4299175289840966 2.515298131588944 3.4567681089693525 0.9565953862166493 -2.2990552500108663 -1.7517596895765895
Ni 5.561405509774935 0.766150394610683 10.958534709611646 -0.18930878310358365 0.1703355844351905 0.658066397931957
Ni 1.3451050197727261 4.149112722599433 4.454376109892253 -1.2297843530746564 1.9346481709761263 0.855056094619566
Ni 3.3479623821764712 6.0607655564952285 5.030699799638388 -1.6421389065229524 -0.4530402040931165 0.32364712350855873
Ni 9.417288185316577 3.4535510832324006 11.592130701802352 0.19947338234141132 0.12626790469201482 0.06252382956583426
Ni 8.411847466270345 1.8177674506070527 7.475071758054374 -0.5018034895397487 -0.289776696013359 -0.5566453770802929
Ni 5.002900259994244 6.50995664150737 3.413133961897553 0.6374163257817732 0.7171179526784748 0.0855035782904592
Ni 6.7277344929760785 5.209612652247059 1.9228033409185288 -0.44433496300963476 1.2602436980057778 -1.058329824543674
Ni 2.565578025219061 6.6335070695946134 2.7142009165355026 -0.18283525956409802 -0.18339138917788417 -0.5823998603365776
Ni 0.7727499195348492 8.24250988739252 1.898110819522058 0.6792885405355268 1.2394383312246526 1.3214801762187565
Ni 8.671381942031616 8.032617446710077 11.475326783435877 -0.3609875118302299 -0.5636680882550292 -2.615324335887799
Ni 2.760365235860761 5.044924969764885 7.232884261590202 -0.7434841013768293 -0.031187995567030155 -0.30409105575350204
Ni 5.742871645454142 7.5797471196194675 1.4637568790725828 -0.5784714718164489 1.541366574998881 0.3087113281343329
P 1.3289736694538157 0.1360210249813471 4.140682820962864 2.290356693795604 -2.2150146294191786 1.1336690607066218
P 6.309900164572388 2.88953621466084 11.203129428782432 1.0918714079445453 -1.7843764471703463 -1.6599651360710959
P 7.234323603277683 6.030434920164945 3.843631169193418 0.18703258547489723 -0.30257230511613054 1.1115712003663178
P 7.485390275662379 0.7100188420969722 2.5003315664506536 -1.5145389132830753 -0.269478093665323 -0.40780344374250416
P 1.391077057099914 3.4404148948065143 9.084330643705481 -0.04023750736380812 0.503885311769442 -0.3683714629991269
P 0.791616666162852 3.348711172649727 2.1973543011829726 0.20625183871582542 0.962690957591426 0.2544895906762908
P 3.5061697915505894 3.468138630970648 5.3166157353080274 -0.11834890695525424 0.13439490467452336 0.2690296932739948
P 8.688123417921327 2.9669204745574587 5.352931148828262 -0.44310340459537884 0.43887676810854087 -0.21981775032571818
Ni 0.026673580636208987 5.755443929943379 1.6604835494832835 0.6305440241419721 -1.3560167765430453 -0.6871648579598101
Ni 2.4805949286679176 7.706607016711967 10.852756499855694 0.07672480365656463 -0.7519360887989243 0.2926509322373605
Ni 7.710822429746593 1.371423618258651 12.134210631670928 -0.29781884959154514 0.24689043817279416 -0.5026694370844697
Ni 8.372679253490276 7.212701122821562 -0.0905389369761665 0.14163333140449158 -0.6178882830511746 2.686612799020141
Ni 9.431247118830361 1.3543863239103688 3.0988989554159065 -1.1442200967495908 2.559491030968263 -1.507711605948597
Ni 6.103363414529349 3.016479310694811 1.7836605067665823 -0.7635448766824463 -0.4024568347186101 -0.0007116813550439356
Ni 5.146899139030159 1.725952796528302 6.174716675601867 2.3676139729168706 3.2631176340285224 0.829400598834991
Ni 7.918829027755653 3.6578969278166524 3.2183153205446304 1.1548176697597787 -0.29281188329525704 1.266688168079541
Ni 8.342820077828337 8.783256785332163 4.227504614120558 0.7434820444943002 -0.8198062702783365 1.1460813183280456
Ni 3.4128852895058173 3.5499786563994817 1.1232032741050115 -0.8784418205333581 -0.8925008697295855 -2.0497533741831018
Ni 8.387913904106645 2.5952338256907317 0.8706260787162418 -0.21763565507273488 1.9200260501875772 0.46704423168169246
Ni 3.2641163378254574 5.325573488006609 12.973179513156733 0.6533093428629457 1.9182766715966384 1.4428596424702183
Ni 6.468643744902664 7.522247406734869 5.490788097118111 0.37412662031534927 0.05286033833414122 -0.36132509767530674
Ni 0.5871802271756632 3.825256220752789 6.937551130178513 0.14024107904265523 0.5816490982134822 0.6003374186516048
Ni 8.629874914563473 0.46064388152222574 0.4656949817023132 -1.0586589257483188 -2.060846655882786 1.2925164419965547
Ni 5.674870377290298 0.7870268578915974 0.9929710465848116 1.2840240882548273 -1.1215794765319396 -0.38811959216033154
Ni 4.776488207266016 7.827670720881854 9.247678823229942 -0.5985839262956079 -0.43060244391489066 0.09854189953165608
Ni 3.7007074053678704 5.120682228139368 9.50219178065698 0.5164875739144846 2.185187261645101 -0.24223494167865378
Ni 7.10788894521938 8.956865243205597 9.709701033882569 1.5884211052845225 0.22131927457190914 -1.2048153418341445
Ni 1.3040694529729302 4.2257666806764576 0.2152282661289058 -0.760155391384923 -2.355147465018744 0.4617883825993918
Ni 0.7134133589090661 6.330783098882083 7.905758474050261 0.5806772212185162 0.13982558877179144 -0.07175871790054093
Ni 3.6962146625283343 4.46525021154276 3.1728813030389675 0.45590132769099545 0.5155514352534605 1.581997975366998
Ni 6.185693389280191 7.428325046138806 11.186528466660542 1.7182425316557504 -0.027119739034927485 -0.5922417861276639
Ni 4.599542547406838 2.0271237203333383 12.67814404906898 -0.3705157630356393 1.2506650531784074 0.727207989924625
P 2.332408369577868 2.4603406085826838 12.538649930497483 -0.1415993928427626 0.7511763278147643 0.9118543345555329
P 0.28862544786360755 0.649326138725181 10.986216846305043 0.6504880713640668 0.7767192092808753 -0.9322925478052266
P 8.418420182646704 6.555235354322283 9.268014493391282 -1.2328995016648703 0.632231439146724 2.4216603611393133
P 4.2455402957665145 1.9288565261270234 2.0306513554517887 -0.43936990569487555 -1.9516593608221422 2.038712028767276
P 2.6693825711967385 7.024958089224567 8.805585532358121 -0.1993042037533987 -0.33874155594783595 -1.0502208222832947
P 4.8164329434998345 4.346368168504829 7.89406902277332 1.4763613737720895 -1.3389883603058488 -0.8870501310276594
P 4.353384612569043 7.926270710854061 5.301421759729712 -0.967204014970431 -0.21801360723744387 -1.6714168295514635
P 4.358376549057416 6.563370361932966 11.503496096153231 -1.2591869746064894 -0.16599427674735928 -0.3192153129894502
