# total energy = -340863.2212389189 ev
CRYSTAL
PRIMVEC
9.30676101620357 0.00000000000000 0.00000000000000

0.00000000000000 9.30676101620357 0.00000000000000

0.00000000000000 0.00000000000000 13.62138548903414

PRIMCOORD
 96 1
Ni 6.607018360972484 3.4911427838640585 11.703221855070378 0.6047262917479199 -0.31614335893234585 -1.0782512460579494
Ni 7.749432549169022 6.505900405479205 5.165992100895635 -0.5266172061493188 0.19481891428853543 0.7608753002700832
Ni 0.9363625053045749 5.983763207408392 14.105489453275055 -0.5201395688447752 0.38618535125209624 0.23843742230943454
Ni 1.081557279685673 6.077789411214062 9.743104499714523 0.9434812174321945 -1.2771505010634456 0.7206591330625137
Ni 5.314234839420686 5.514255741349958 7.448854889419389 -2.340803537592246 0.21219262968029262 -0.0024052670073829545
Ni 5.226239416577709 8.710253221711179 10.050075904095896 -1.5487399846448167 0.6646270818686102 0.01467379996209086
Ni 3.061468253793772 6.364577243567983 6.500274468608917 -0.5883997866737544 -0.7428906907672045 0.3136375617913566
Ni 6.951619791073691 4.463624827619569 6.377205587222731 2.1967451416860295 -0.07516697225114152 -1.2182521840653406
Ni 3.1709529871967104 0.38957449004876 4.466833798724409 0.3171419754001893 -0.6109175081602962 -1.5983453063767699
Ni 9.211962079946948 8.117282267610975 9.98628736595039 0.571355429596958 0.364244842425263 0.17645352440747028
Ni 4.823647560275065 5.817981878259588 1.0189748977327049 -0.6561488691942698 0.4902972886723621 1.2488351990585203
Ni 4.619969101373051 3.71061481575016 9.895690703479216 -0.22996538028268135 0.5665533802226242 0.3984734245908299
Ni 2.657275634643007 7.481760803385113 2.276896224210202 -0.38375154499962294 -0.7742339809651763 0.22599456856039146
Ni 0.12605169820492484 0.7763439224090087 5.878090523206563 2.4232842698959813 0.28647025734794535 -0.038081637363069895
Ni 7.4090470816852525 7.766659363307821 2.9923460110653664 1.207011835264831 -0.9503753734488664 0.9497966181272611
Ni 5.140794046178834 7.423165437735258 12.142987705816354 0.0917539300755452 0.13543800122705707 -0.3077939585263861
Ni 2.332413844081721 8.956398429892149 11.069609207473295 -0.6252524367257296 -0.6653143377436219 -0.31728929961133095
Ni 4.220839360067507 3.1124786094365384 7.910728019638787 0.6170197644032922 -0.7499753655281277 -1.927097612322378
Ni 2.872699225605078 8.625226655545823 6.384560720239421 -0.3762894322946229 1.4077046918356402 1.4134842746318945
Ni 8.274817806739803 0.8381724567416405 3.783230816462199 -3.179384003154292 -0.028966562435679147 -0.7734387387573906
Ni -0.009455668916812755 1.5203617420467013 9.529902432542256 2.6034885195951354 -1.0971100306356654 -0.15649379345609177
Ni 0.1119659158175271 5.031169711364722 4.321030362190594 -0.4580538552576241 -0.8061732528759341 0.6437345546903172
Ni 8.585412333079164 4.484146235062061 13.306090823148793 0.4337738996643368 1.236203883447755 -2.235525347778021
Ni 6.322417617393612 5.568039511694703 13.049041814079105 0.95219417182516 -1.1646616524333941 -0.9602514949119979
P 3.616086046864267 1.188324438951102 11.694762940229344 1.211156967781456 0.3871477151653655 1.0427265707887783
P 3.4135895465768535 0.8913968907656173 8.10270788028447 0.30298625272509755 -0.45667908639728444 -0.7222943546730916
P 5.220683280413008 5.220841495345671 11.235163451659924 0.040538069323362444 1.7081257549367226 0.08421134184159691
P 4.809203467598989 4.034201580089395 5.9217476071847885 -0.3959465444039181 -0.7989152857619403 -1.0070882527598786
P 6.625650495983763 7.163320677737804 7.3546081153840674 0.26226923462170965 0.7378852671328131 -1.2426079872018858
P 3.861244738406276 7.475702102140187 4.81398807329794 0.18153942357080993 1.1742539241075196 -1.2933235112788823
P 7.114134447201037 8.317079807282369 10.831616721704854 0.31340359140367957 -0.02229866349720031 1.3763074084712814
P 1.7191448447969016 3.549775376556894 4.312680336450275 -0.6422502568353068 1.4605496035508134 3.3811081292030933
Ni 0.4107175891090112 7.138480933309681 6.45949224302479 1.4345783762980326 1.262881135628625 0.47443872437355067
Ni 8.215859477420898 4.902652652238475 10.444824022442743 0.571793288465325 -0.47847072835107923 0.1499786180453933
Ni 8.528473570841902 6.180684958009614 8.325281855526844 -1.741565522652407 0.0987632715138428 0.10135700038294802
Ni 2.489902849406825 3.9949177429851948 6.7363609297768035 -1.35598592330511 1.1301481920375567 -1.8062673337061668
Ni 9.1098762213362 -0.28784042699416984 12.220398549664164 1.491080168039503 -0.8940268194558088 -1.3287296586923183
Ni 2.717211173840127 5.485181420782908 4.434986994131455 -0.2382942118633509 0.37071502353063895 -1.1212578315264625
Ni 6.331445175316159 2.209248172383788 6.016906443773111 -0.34347804219155686 0.4303106237060847 -1.6781117250731359
Ni 8.062707422602914 4.153812069182778 1.9686991194387249 -0.3968929674775874 0.986634870001533 0.3784555867080063
Ni 3.068262189137545 1.9982545995362861 13.824071621870937 -0.7590850411388799 0.26234791037844496 -0.5169092348329355
Ni 5.526307996514595 9.137154337079487 4.657818766646462 -1.1789227903380985 0.10623026931484932 -1.0945075600158118
Ni 2.3785846841371425 2.5519324097715463 2.812380247865268 2.971059855290471 -2.758924046990042 -1.9283965336394595
Ni 2.261440486641156 4.682733895836619 2.080870714668714 1.1510641162546176 1.9506774565248466 0.8054800834636515
Ni 1.4049858290922446 2.0626294636087206 7.540771250564191 0.36633000708906593 -1.0300438331147872 0.43162265764928887
Ni 5.595671284346294 1.4722644025170868 8.845876923342228 0.9020512324221819 1.150788751106044 1.90465933792352
Ni 7.7992051056327165 6.420631863534482 0.9980495768738843 0.9021548478795818 -0.4147806463912857 0.6057974133249114
Ni 7.298855034465702 8.698545316694101 8.728610807280482 -0.23080124592041543 -0.04615335862761084 -1.2685645591666475
Ni 8.045229325924002 0.540340291411752 0.28962360235289164 -1.265688266060117 1.2269651384583065 1.8645753254184407
Ni 3.7298425834491113 1.9008035077764962 5.942356498178283 0.3072969642853095 0.6199011997161453 0.46403526965203956
Ni 5.064599595960383 3.14714629321127 1.3233580919509245 -0.2827969222614162 0.18200736434616394 -2.021658672829415
Ni 3.425129929900523 6.8494036378125145 10.511745216254981 0.6021870702658338 -0.6581180771054989 -0.8677907685774151
Ni 5.465869892237251 5.8820682327489315 4.7673351430359325 -0.13347085019835722 0.8644290511940339 0.8016452830985936
Ni 1.8064143403017767 8.844345030523618 13.576257711488408 1.6808484072780085 -0.4450625852042787 -0.6320625176690275
Ni 5.453575661293246 0.3138472392197029 6.984419607966921 -0.5696849838730704 -2.0944057227851545 -0.006263207300892439
Ni 2.3655552190942903 3.749293713405941 9.191179152527525 -1.095050062782843 0.5634749984076167 0.5176772233472117
P 6.38775107782277 5.75436086180749 2.6857012739861372 0.35617466382261886 -0.7156434250154772 0.12803013879876016
P 1.2236994365424458 7.0859535756654966 11.815121692886617 -4.123467115836544 1.2519457196630437 -2.3306067995649022
P 9.567815383788732 -0.12217729370682529 7.937044746997126 0.07555598015944408 -0.040904451523845684 0.17668878034672797
P 3.163153921692489 5.753020688260225 8.527858393956663 -0.5180788296610045 -0.6253439679982714 1.1331887786360935
P 9.212408804462704 8.092237774446463 4.634417847429499 -0.3298496527748448 0.813068951554503 -1.2084148862599446
P 0.8640257074148828 3.7824071681362756 10.84301750361735 -2.0631971583928337 0.03439647520199882 -0.8542150867755094
P 0.9115469584543884 6.3325526798448015 2.783612119726725 -0.1764995471540573 -1.0641646860578964 -0.21232478438278274
P 6.437095523292201 9.499317624706311 2.5886354821211865 -0.6792895689767915 1.3921577452399765 -1.1718627981675238
Ni 0.14769177828895338 2.4547698275948484 2.6693558100898795 -1.5984635771221891 -0.9518095347922317 1.5286990068335413
Ni 6.031720945526835 6.383209378579263 9.509415460114521 0.869100231417458 0.20221160720818077 1.1545549030166953
Ni 7.516186511380477 9.001992250781386 5.648610931491477 -1.421154903803275 -1.4005914778296267 1.8502514525966007
Ni 4.249885760352323 7.591943543843918 8.209663036116945 2.0119049358767613 0.7110614620717496 -0.169536742682979
Ni 0.8591889838557613 3.412221452747354 0.9349143733326692 1.0233795337207343 -0.4089025903439538 -2.859873784632242
Ni 8.10413181467844 6.952736602363078 12.194299600507257 0.4239818532745795 -1.0161395643288693 0.0908185627454694
Ni 1.0444046907920546 0.29210199273925697 3.5289058962625424 1.9985418843062934 -0.5252565783563663 -0.546652013313007
Ni 8.54657522049072 3.5840894034233197 8.159618722239498 2.7866168849196202 0.20325907463608864 -0.2662747562366769
Ni 7.842286101120833 1.3501038609796023 7.445339725886043 -0.023651577980668942 0.35954178052263885 1.1644243396116074
Ni 6.493950524682761 3.9632561429310638 8.67381166933847 -0.2735039269952645 -0.5758175791333696 1.2448088515079463
Ni 8.453851963189338 1.7931056724365777 11.853438557549422 -1.1181390833918228 1.7988553575128117 0.5232760575912279
Ni 6.502307995831676 2.7893106493308237 3.110102593418367 0.8212774555072244 -1.4105028234060675 0.8588263602952758
Ni 4.317415616317278 3.3530956017350393 12.005016839125444 -1.6366269755657878 -1.1749573779324474 2.9330478948230714
Ni 0.32917082078617155 8.09034850201525 1.8189859127159802 -1.1522841047046477 0.6655552501098344 -0.6606444430717784
Ni 4.9109822031051555 7.521128401336016 2.6915580185228993 0.9765319772395763 0.7245353281884683 1.5287422013666512
Ni 2.78787740817611 6.736093825743425 12.864131368895245 5.019361841739027 1.3515690251843369 4.096173056007281
Ni 2.1134536840365894 8.058835810133038 8.681235672384673 -1.5421484474702278 0.8960798453300954 -0.14630528295886416
Ni 5.122515568075861 0.7307687150412607 0.7208123423963726 0.15956651884414452 1.1302374093172534 0.5728878070810842
Ni 4.6247248561136916 4.299062684128345 3.3268738033362997 -0.7216880885476603 -0.3945303807826818 0.035082445525429905
Ni 2.2900680826924513 5.004450001266131 11.75566359051571 0.24388610412883158 -2.645645869689476 -0.45647751190943964
Ni 5.899108911672832 0.6407425570037478 12.095109075164247 0.2489630044311067 0.13677728886377089 -0.3399283771670855
Ni 3.2186408292535496 0.46331381678270767 2.1646557589507007 0.07906682152617997 -0.2630796463381469 -1.291959026831188
Ni 1.4897331924352535 1.8756938672867711 11.555184795957791 0.8322241843267151 0.18424756653059235 0.33524485564848716
Ni 6.226036803119485 8.074517701988183 0.5628970874291527 1.4196531224467681 -0.6139051300337105 -0.046730057066687265
P 3.3993408958764197 4.502638768662166 0.23776167810196733 -1.1118594210306978 -1.479385248200078 -1.3083289835487788
P 7.504729888903513 2.2798399526338122 9.929581272731747 -2.860002339790307 1.2272117072514734 -0.40620524601744884
P 4.503066879656432 2.0023868013070194 3.3377301397452186 -0.8591431202047463 -0.6070472265716126 -0.021118012925537825
P 4.098604364444064 7.982622746393097 0.6135900825305183 -1.0484429044472652 0.6985414752278679 -0.2516199824379796
P 0.8294324777261102 0.9398711541054 1.0394423259628767 -0.46935925296811426 1.7139631875541061 1.3039056576701027
P 7.194247043693088 3.0789742707549186 0.07993949074219633 -1.286335252886507 -1.949156134784314 1.1931908702213387
P 9.639756644346766 5.0647671176537905 6.848655374248625 0.19694418816165438 -1.5412277354281716 -0.4223155213157501
P 8.159320905895662 2.8801818612439734 4.544570379198288 -0.12040116149859263 0.6467807977158088 0.7794790314141995
