# total energy = -340891.5065886214 ev
CRYSTAL
PRIMVEC
9.06783803585686 0.00000000000000 0.00000000000000

0.00000000000000 9.06783803585686 0.00000000000000

0.00000000000000 0.00000000000000 13.27169755659390

PRIMCOORD
 96 1
Ni 6.146661032179638 1.9654810389686748 11.49646133764187 1.7739169423999193 0.9530102399685523 -0.11720373760721751
Ni 4.633266112797877 0.4089032625848114 5.986875756147606 -0.13985258535498493 0.1456247119520718 -0.050495180536074324
Ni 2.669979490568211 1.5716104378298514 4.697119105984156 0.6627368068244329 -0.39044746896255983 -0.18513562556250052
Ni 3.4863387888306194 4.682413793481467 5.129524390486999 0.9328738742299933 -0.9020268069421497 -0.3435492617491245
Ni 4.877698747577739 4.657286815036037 2.777222087457623 1.339616737918467 0.07766479897233076 -0.6752434239318759
Ni 7.448711856784198 6.129604429344614 2.346528810724718 0.01884618617222561 0.15571397786727373 0.7779870202497052
Ni 5.098264833361438 4.514332352678694 11.616835977181832 -0.12124319778391376 -0.04643875107851357 -0.24141321710830685
Ni 5.652708705634028 7.8575443902344455 12.427524249706325 -0.1895764349426735 0.4067045542513705 0.8301557318334605
Ni 1.5418588621245268 6.6404047984566645 0.2464819661146398 2.485672602325216 -0.2889413445962572 -0.5616945094684261
Ni 2.923724794732215 1.753148549875142 0.39351604868223133 -0.9011678013759641 -1.8397868056198512 1.7650875170337472
Ni 0.40885792339598886 9.09903112640991 4.655286450025188 0.7017221869486948 -0.11711529165846926 0.29315692533950155
Ni 8.4606825513024 2.545033754011165 1.3755846413882193 0.7029851128215183 -0.8452301096680799 0.21513294325553914
Ni 6.944920926264104 0.6959347856147424 4.820054502908813 -0.29545934822043307 0.6334452569491671 -0.6297840060474961
Ni 0.7944450547369414 7.321072972411094 2.2598384681285455 -0.1795298493399489 0.25033828751207854 1.4593656105450414
Ni 7.691575755630802 3.840818702720455 3.701357171469997 -0.3456925333443724 0.011873354398818262 0.1216453183183389
Ni 7.518887853243663 3.972538114087582 12.765793590024563 0.6148916623166958 -0.49729737413927905 -0.5220321578817978
Ni 8.106338654979034 -0.12020235062243592 7.062971478985025 -1.0370305488452656 -0.32682397857464357 -0.9579711835182533
Ni 6.924373205889748 0.6875434085474741 0.4208546727584225 -0.48634190356903984 -0.0505093216034614 -2.215447603191539
Ni 2.016678050987042 6.332225264192366 9.352379259279827 -0.14960992185206493 1.5442791206599855 -0.19767978077609827
Ni 0.1431131495182217 4.828868441215906 1.376420696030106 0.6129844179916539 -0.21294596290654938 0.944701977213173
Ni 6.5458091148974 1.9701691110929211 6.970799628460211 -0.5945930599686597 -0.17569659163678775 0.26289581246211496
Ni 3.1695266730145173 4.07242034706355 0.512986624797072 1.0602625227900127 1.7338257308059883 -0.2207353770439811
Ni 6.091174932898663 5.658856699638359 4.870049119639607 -1.1216013309088102 0.20153797817992386 -1.465106883904193
Ni 5.476502482194263 2.8101319910563234 9.103667511858898 -0.29283759432686984 1.5344909309249701 1.0490581694337608
P 0.297695300240983 5.189677705865362 12.545177631133157 -0.34600826481257835 1.4262009508676148 -1.5850475608265993
P 3.820298185859391 5.915304219456184 12.835774627972091 0.5048859851198143 0.7842432855720622 -0.4909156389826513
P 2.4577104763390296 8.575236545781328 1.31218866722527 -0.028620491950170062 -0.5360279579402575 0.7945814342732768
P 6.468904782816675 7.943589102781786 5.815604250019282 0.0495785822590759 -1.2031569802951152 -0.13092802917184548
P 4.712636896750545 1.0272409333136212 12.797764972414637 1.0897744162062006 -0.32923361645740074 -0.3635668425216319
P 4.14540737323001 6.233567189314606 8.203581240381755 -0.27627223376902094 0.6344814115231654 1.0534401005515408
P 4.752861825073867 1.1142649723395281 3.885501380088805 0.3767990249411898 -1.365703921923822 -0.5406248332823206
P 0.39755123648743385 5.633784128219516 3.6921333668959475 -0.5949635559342011 -0.33324376605805833 0.35600291413144497
Ni 1.5670311797587788 1.0366442810754077 2.544715472905631 -0.6858746783934768 0.8870329046364787 -0.12599125399186042
Ni 1.9006097276014415 6.393070455592161 5.28394059977867 -1.0518025649481175 1.6360307367426856 -1.04404143294546
Ni 6.278090272738302 5.629748940414314 9.303910759644799 -1.7542531454224048 0.10282947116341645 -0.6561234152729732
Ni 8.642075577943459 2.495523359816995 10.257217077745569 0.09684060056983322 -0.31699259430651855 0.3475146741547757
Ni 2.4150462996570567 5.263925161481089 7.286652367040829 -0.14808911433216432 -0.6511545013034721 -0.5151732259784354
Ni 0.536119585718088 9.092230248086535 9.41879119628325 -1.9731630392218726 -0.27091945409753987 -0.5671714734225973
Ni 1.366604761650035 1.0392920897026419 11.43166891646319 0.33932493925513174 0.7757889841571219 -0.3644633861939723
Ni 3.975539568387631 6.6290065263866875 1.6751805604246415 -0.010853654885052275 2.056932665540361 -2.0649565642861014
Ni 5.683076894307338 7.8878581718811684 7.820546705371508 0.4902690065375879 0.21541010817632578 1.43294212624619
Ni 5.3195835496795905 3.070143171115597 4.485594561235441 0.07898557466628332 -0.06949280468449968 0.6380274770032108
Ni 1.0129137496457112 7.884040612182314 7.451327927979254 0.7876993624414629 -1.3425542232802363 -0.5779012011352757
Ni 5.021750418304587 4.573599740307467 7.208987243371663 -0.04684447115736449 -0.6358307264622082 -0.05204144197727166
Ni 8.06768246258897 7.251150875409035 9.024820848929016 0.28937868924399196 0.40337240455434403 -0.10167221763052167
Ni 4.747004001878001 0.2589620312299212 10.691984533986064 -1.2901823945467392 -0.4259271499264084 -1.4300758604419885
Ni 8.071944346338285 7.160318344522038 4.441705319671485 0.16360623613115693 0.2999101849029351 0.4602516342398912
Ni 7.144884884646859 5.993287624230885 6.871341770291622 0.9434583346140591 0.45914246033611245 0.9780116471088962
Ni 2.435258510034128 5.36484112796221 2.86719136018944 -1.6424029588176166 -1.2054483474324529 -0.4351134444113668
Ni 2.325102416870981 5.098963056869304 11.429054658835684 -1.2195225661373321 0.033245135206374996 1.0521645762732266
Ni 1.0311401035523562 3.375493539997371 3.8293886932183026 0.28179444913883084 -0.09335932688945212 0.15034242914271528
Ni 3.85894531041169 2.6060965735173083 2.626481979595681 -1.1110340969159251 -0.5092848855184584 -0.7928654800234346
Ni 1.1346948108229464 3.287979837732181 8.109007319633125 -0.9688986290640347 0.46424404322873597 0.6820887289884834
Ni 3.443756222688527 2.671956279200872 7.543127997155724 0.9537481465758412 0.3553750507394589 -0.9684638555194612
Ni 4.22213941639321 7.015885824609082 6.026717114933491 -0.12534564998806155 -0.17431308102569978 -0.41896794499975587
Ni 0.6848965067040165 7.330113606662301 11.26319846542032 0.6770046295973566 -0.6118701018815527 -0.3086280243919072
P 0.19026771946117474 5.854132585896867 7.727167018856464 0.42759965253282484 -0.42409781002715347 0.6666525969390712
P 8.674484030113783 1.5835527801656981 8.112391436686837 -0.3608347883024495 1.448413739519228 0.16120765399199333
P 1.758843151991248 3.138369582455695 10.446298724027146 -0.16960307714454018 -0.08998706798310954 -0.969563516341543
P 4.085831679117246 6.400732778503165 3.763335842590355 1.435348678805154 -2.1440146440615333 2.6575014834764814
P 6.945165757883746 3.9607227214804386 10.576481136893193 -0.09902860936008752 0.00176994741622921 -1.0091592763562942
P 6.318197319170685 7.737368336341527 10.31977971761796 -0.8369393304141973 -0.14334671455117245 -0.8481148874150427
P 2.367603372473193 8.560292749145432 5.782464930125141 0.16799742322031713 0.049871173798830236 0.27613905062526634
P 6.818297639720625 4.120035563164939 1.6386834202063054 -0.15843677611507553 -0.34638878808044865 0.2834252998740345
Ni 5.360352548268782 3.038043025429267 0.38109129737731334 -0.16399190160534982 -0.2170389020290004 0.501702188075194
Ni 1.4918134655022512 1.2465647253235834 6.805779489686734 0.018536625351606783 -0.9955725388107951 0.6897650145868185
Ni 6.838654935501928 0.8224002917811185 9.34931342333165 0.08123631837367298 -0.8736222876575277 -0.7433673732933068
Ni 2.4423676948414954 1.3184817466338332 9.168420034551415 0.9375103445607401 1.3356161013995063 0.9566812610622364
Ni 6.369358059837994 1.7621347770997615 2.3975190760420553 -0.09779807938709609 0.8733096415131152 1.625344203563117
Ni 4.116743938056426 6.693415378027932 10.760068580273261 0.14541670970632375 0.6442318060417098 -0.6342942352130237
Ni 8.350290694357378 7.193098578040706 -0.07635119397709024 -1.3364008020843305 0.07543179587675397 1.5584908933839934
Ni 7.61760033514801 3.8685028114154734 8.22307709157543 0.14160222105623999 -0.7003240210495875 -0.855703755505894
Ni 2.918392906126689 8.55301127542054 12.443211609038908 1.1205626052316509 -0.6522292224248897 0.02837109494352533
Ni -0.0921237909846616 5.003179486562891 9.841600894863697 0.8688014692301167 -0.04426642601754312 0.4435762304667393
Ni 8.690914952143055 2.329164808189477 5.76734884457172 -0.5422801094975565 -0.027694380591474884 -0.4071544973045955
Ni 3.540627933526681 2.5640943489921444 11.620459485152526 0.3667989763056844 0.5469618312439418 -1.4068942801192028
Ni 1.1826818082726807 3.1007833949218426 12.673408645312284 -0.5865727607673447 1.327231733990553 0.4744379530426022
Ni 3.326663233635539 8.556946717010332 7.997020430025326 -0.40263681193990014 -1.5302259850010291 -0.004120192815960646
Ni 5.760062836927943 7.841666606308806 3.610897328715121 -0.468760957262483 0.7564311484558005 -0.3661757408993887
Ni 3.011138750781995 8.106329587141268 3.5865828285333907 -0.8764597571063227 2.0021049190672033 -0.10254767825693953
Ni 3.3715580984075784 4.311176515402836 9.479787820573712 1.1707227710258095 -0.1930091147733063 -0.6432110780866793
Ni 7.3899159967191785 6.1242090658747355 11.326942644553426 0.09768777906147692 -0.6987366219578096 0.8990186162434453
Ni 0.6173266068180682 0.12733692537554456 0.24031220929967395 -0.2567313355226159 -0.5406423167838172 0.801451936140865
Ni 4.635052476837483 0.17620350308843521 1.5973150375408796 -0.4161757269665994 -0.3035518954205805 0.27521165371499057
Ni 5.9450285916482155 5.829359253124253 0.44385161611297097 -0.28505666482987035 -0.9684427724735385 -0.6295945157445093
Ni 7.930504212887612 8.774157702821165 11.260902488898349 0.22288970438282257 1.3033495280563165 0.9873840894627317
Ni 0.15905078117310695 4.666472534691476 5.879958694633939 -0.3601573026194507 0.48377697105534107 -0.0633326986203748
Ni 8.081928035716999 8.904779905818788 2.2337194682316794 0.35611604267054153 -0.283274376118467 1.3079854841664313
P 8.50549580553456 1.6344324178623075 3.483037189100565 0.02227783756159389 0.24181945140779 0.42424102047323714
P 1.7935639027915187 3.241888018375228 1.8098615276056544 -0.4538683564213667 -0.8479202549057331 0.1530585425222977
P 4.768594523595275 1.0175927539321932 8.316297184145819 0.5163029687075044 -0.22826690953433587 -0.4242284220677468
P 8.644532961977639 1.7059685899864483 12.492702053989996 -2.44702018006034 -0.6159946655728876 -0.10766057400347266
P 6.34085784574417 7.735518497437569 1.374443907397445 0.5029386315854565 0.5942084229357315 -0.16565746223323083
P 1.9801074612828133 3.261964211185831 5.965919983073847 -0.45942759567669905 0.32270250020710234 0.03818345304825682
P 6.668605773904259 3.882086432386694 5.917677272599154 2.102644565755179 0.08049301244974523 0.6084700750610682
P 2.3779044361736648 8.507336576600753 10.285604850651112 1.1741983882792357 -1.6340522728600761 -0.1838495597612253
