# total energy = -340858.8703740172 ev
CRYSTAL
PRIMVEC
9.42725563488739 0.00000000000000 0.00000000000000
0.00000000000000 9.42725563488739 0.00000000000000
0.00000000000000 0.00000000000000 13.79774154326261
PRIMCOORD
 96 1
Ni 6.712281301000394 1.424486580803955 5.2115866725607 -0.5729484851156906 2.4929274841154165 -0.6859602961287476
Ni 6.924488821260727 6.650843877209342 3.225953080862742 0.5536757529290077 -1.559285621371147 -0.85074898260378
Ni 2.3193310957142628 1.2168701339495214 3.6668743029571 0.4851193440158484 -1.7529768498131424 -2.3414758810689222
Ni 7.176884731519718 9.016689051331623 12.889160483024998 -0.4671483613597245 -0.4865632755512266 1.869061386214252
Ni 8.785608165653201 0.01277016023743432 11.424461001358203 -0.07347467215038314 -0.2737479246852705 -1.8053700187028776
Ni 9.192120848067496 1.7091425592251341 9.476329974580176 -2.1527273413441828 0.933115043706522 -0.8671101975706228
Ni 9.308302344277552 4.576677986821165 8.210869880571755 -0.7275800285520632 0.530946172541976 -0.8348261407259365
Ni 7.3014093488062 4.70590680457899 0.8767083608686895 -0.857463161399162 1.8606855034457308 -0.09827630457509527
Ni 7.75256008579325 9.200954186427511 6.188521842509787 2.2728066007269825 -0.4900643467259495 2.926494924195902
Ni 0.24366532898342025 1.3019605416736335 2.3241465377999573 -0.8617329924191094 -0.30242523801530496 0.19574091188217257
Ni 0.6623165455197598 5.613468687096192 10.138649348276571 -0.9269600798487198 0.7728000767321271 1.4070297772558027
Ni 6.8493347407847 4.066116685965586 7.97720592689905 -0.8808422024447347 0.6927935170004973 0.5296359383709845
Ni 2.5504591176699525 2.2116718384342544 13.002646726900869 0.12815689418461154 -1.4921546320506045 0.1323112826726173
Ni 9.059149409894596 2.160990913115749 12.125275629973794 1.8499169520753171 -0.3528592262961407 0.3338279206963025
Ni 3.2344536371052452 7.4004992308788955 12.288336982103466 1.9734124362285173 2.7999969057709517 -0.9535954230480608
Ni 4.894150241476295 7.908929972001963 0.49257126927349176 0.042246824484353046 -0.3508972174737634 0.9447258884725729
Ni 8.885357955607647 7.38665059261757 4.840344180974924 -1.7466218541293919 -1.2693163497310074 -0.5592213653375853
Ni 2.1436541903365955 4.129986341663665 11.301385353234938 -0.3284931387469504 -1.3843176803702677 0.42317632665414856
Ni 6.360474981983287 8.11939345000338 8.857915214982244 -1.196079247512727 -1.134059354166505 -0.9926581933774774
Ni 8.020576958338841 8.647875963476237 1.7587289801854775 0.46709848195839554 -0.1515207657215326 -0.16037487367805284
Ni 6.661119585653756 8.464751526290232 4.473752154504405 -1.6736642308247434 0.6046090494437651 -0.8374219264775706
Ni 2.2452894313817597 5.160045981544828 8.632377555510534 0.5558277662750041 1.516689383967175 -2.417661524392565
Ni 0.21836163262043676 7.364223151893477 0.1348757437745259 -0.9336570322529211 0.5302586595566481 0.21292565119157525
Ni 0.07743641902134153 4.36267928802465 1.6131212488025837 1.0428659245801202 -1.6588791020957687 -0.6097525413179176
P 3.6121189178315527 5.919854489337899 0.1470331324074768 0.8495948143946788 -0.16826661772130375 0.27330029562489067
P 3.760909290655579 1.7187583597877971 1.3490534535665017 0.24655413787929795 -0.4936412654439305 -0.9160609164377126
P 3.1213925624503283 6.271340281669584 10.133185311015671 1.4915445092704311 0.6164476939499061 1.2488817360257396
P 7.3663065753487205 6.9630085870441 0.17047777399501216 -0.30628369252944665 -0.37959638518066885 0.06719809511305201
P 1.3370205047055383 3.791274480471595 13.49666036625876 -0.6800711843378223 1.4534173633814065 0.1556234750359965
P 8.005512204124003 6.300432791999366 9.462325786603866 -1.1740742039965457 -1.3077805672444767 0.46774048641776866
P 8.210743555348678 4.867009173025407 3.9415043952033844 0.4264285150428592 1.2597333340282626 -0.4095379099351076
P 3.9982310194442774 4.825246431365998 4.298893534900109 0.8168690420268834 -0.7926140261342608 2.9237309882975193
Ni 4.02430680802891 3.589889449471985 2.595727855632551 -0.4100544445602099 -1.7740773792371831 -0.6466810389131508
Ni 1.6168497283344787 6.110011659092281 12.507845911712604 -2.3385024002628954 -2.277001098424304 0.8003206507498991
Ni 3.5145185421205256 2.655912397173821 4.823883250227409 1.0121227298599924 1.5700130350909798 2.24357264356253
Ni 2.6658770061882664 5.453563580092383 2.860506465929834 0.27392121703834116 1.3403849835430595 -2.292568356734942
Ni 8.36351222997412 6.3672908876762335 11.743781940807782 -0.8876695097792133 0.20766568834421656 0.3478003237159945
Ni 1.7742660398985408 0.4259413131786015 0.7577580797319149 0.37564305695987565 -0.5040490910408157 0.4375804178946206
Ni 0.3991207714131352 6.259499648819873 2.792428483397272 -1.6916943488535767 0.97124064693365 -0.12456660573019195
Ni 5.213875610184832 0.11718549891586247 6.411961937643074 -0.7016085441889658 -0.7283873549447069 0.9618172967372209
Ni 4.215378421562292 4.96433615832828 12.05261694401633 0.7925402354735319 2.4939749515433243 0.19028477386360776
Ni 8.768582542304015 4.155194822746567 12.958203816516008 -0.7661699730101192 1.7222544810286209 -0.027936321398951885
Ni 5.605776046646063 7.330294459516003 12.144302659655777 1.1006818071473239 -0.08994464478094832 -0.9499136033210996
Ni 8.150597665554766 3.4466894391319385 6.137994581455176 0.8967105369355589 -0.8779499684986041 -0.6654886585379571
Ni 0.49976426518458167 9.326440383770262 4.708037364311502 0.22677438414920945 2.051429990554577 -1.1172633656550888
Ni 5.294403226269407 5.447219037172116 1.8058756274344312 -1.195516690141038 1.3142623183140787 0.20297033975107626
Ni 3.7497191384321664 4.0143421990144645 7.11363256105385 0.3128757439246676 -0.4118128220122133 -0.1039738691805048
Ni 4.743370717751561 1.3396507089770902 3.230217028504401 1.4304615259161815 -0.11865692511397628 0.05163443634684011
Ni 6.983230049992052 5.418513044315931 5.590968656505106 -0.6631798078991223 1.5125187975292531 1.1794940894605366
Ni 3.910915779433118 6.775830430013051 7.859220996720723 2.797598066521472 0.7494775999561027 3.456220079846583
Ni 1.9108858259319808 7.349356370043164 4.252960175428032 0.8052543406060906 0.12536724725461634 0.4830166958505487
Ni 8.155980628418767 2.900747648559032 3.2825788334702812 0.029958236924987114 -1.0600918015401033 0.1181848705735642
Ni 2.8791026700375872 6.300583628086623 6.165355304958133 -2.531390416077305 -1.5576267456114852 -2.3186162028619295
Ni 1.4496856346314038 4.8029698267291625 4.602940435063779 -1.238423773917209 -0.1364849544343327 2.014066462304454
Ni 4.809238951605801 6.715825949050944 4.80044143681651 1.0456756261147735 0.2648025425665246 0.09418747921770229
Ni 5.458880552168208 1.2260051444840512 9.75599610668977 -1.762703333072287 -1.0537216363477013 -0.010472617396549706
P 2.8137340807223876 8.621592775271626 7.304014099488027 0.7066911009181959 0.32758219689690676 0.7434043971788294
P 4.641660058662768 3.3031877566173766 9.637197604365799 -0.05851008042075085 0.4337888120626723 -0.686920860269804
P 5.852817275807412 7.0573565596236385 6.871220114320211 0.6427508506208092 0.267874496623629 -0.6150862948260053
P 6.404792509870617 3.769752056271047 12.270193286257486 0.60391870824496 0.2997410063149225 0.48692785797949684
P 1.4090258818600663 1.824183357525305 10.77058562037159 0.7908726179631218 0.22038853522752366 2.839258679485052
P 7.114655418270563 0.833951986484473 3.1875954638731714 0.00021391578301898642 0.03801453157056034 -1.0020267790765711
P 1.7088408870506195 3.3547171349267044 2.9555171745677593 -0.5464841202765749 -0.5281233583812001 -0.5729245738562907
P 4.108850434936714 0.2838292081178992 11.890768879663538 -0.48767604899943107 -0.3548366617374856 -0.07419252415301417
Ni 4.396240317439434 2.798480781398477 11.81143192594275 -0.8481642525957392 -0.24395295281102503 -2.97889323529196
Ni 5.531479846416311 5.850168217024954 9.943907704195107 -0.14669531930843122 -0.45085116686159776 -0.1639206820477822
Ni 7.730226917623693 2.4612772810789822 0.9642140314400116 -0.3782247016441228 -0.2722926802959827 -0.21849363219765597
Ni 1.5228034279294556 9.36308412571837 12.170490632580306 1.6791188261814114 0.30568616815476385 -0.049727449132114354
Ni 5.784950463797012 1.653144661830804 12.895438092431544 0.872761225208813 -2.1699159373083274 1.3332519720427038
Ni 6.133815479112599 0.6677108210903046 1.1673732719159875 -0.8389779581107809 0.057463641434107496 0.8474885666849534
Ni 8.318591357737759 3.746033081549812 10.267892306917577 -0.3422238580694816 1.601222627924565 0.46258542457939045
Ni 0.7205091079836862 2.351185791891947 4.647107126863853 -1.2158160638200222 0.6328204788809747 0.8964223162711786
Ni 1.7244712765926733 0.7359424678867599 9.046047410265196 0.9294334810898768 -1.4564083276889304 -1.8499133525308915
Ni 6.098331289585283 3.9248869720153396 3.9415317342442004 -0.7131306858959524 0.2689199071690078 -0.2254502660211472
Ni 0.7153260029353019 8.306194516816285 6.757940327338771 0.31655962053415804 0.976601397024931 0.5105598955761401
Ni 7.12963532718632 1.7114899458330783 8.104696358751232 0.05613952330604525 -0.4703588978772222 -0.9749191242265015
Ni 2.308357770366283 1.0002035218596403 6.1945515150979045 -0.17215258303927125 -0.4025591646244293 0.3414993211986312
Ni 3.379077163018784 8.47262328459398 9.619371607028603 1.2247779009990005 0.49255291747575813 0.8573664879202976
Ni 8.26609097211671 6.792950325916772 7.412477501658228 -1.0898950009444648 0.5425073950170141 -0.4513373624693969
Ni 5.015347037587659 3.480995221727556 0.5091019617113635 0.2676443828906939 -0.07004816296733743 -1.1597212777089834
Ni 3.7477111330205513 1.705418793320966 8.241680979570727 -0.13884522713639313 0.22747500976065985 -0.7321627628267391
Ni 1.172260361143129 3.2708051341342914 6.770330569181426 1.8316536349897552 1.6053453918436869 -0.050862076957189827
Ni 3.8933433752676248 8.931966306570201 4.44001672086373 -0.0812985390701761 -0.3143291885417425 -0.031139658827597984
Ni 7.107377577060391 1.9040039294508597 11.013315765614013 0.8972900635881127 0.21121432492742334 0.1472643044380238
Ni 1.7632832872951074 3.1786914210972546 9.181127725483066 -0.12294166853225924 -1.5669115133475209 -0.6165366541192866
Ni 1.2173792057440154 7.850217025036998 9.036223267357009 -0.14340045060724335 -1.245857604487435 0.09747206350624504
Ni 8.478260783355228 8.981355697891564 8.818301887566255 0.7089693554294113 0.23428869024838359 -0.06995611747416339
Ni 2.3875090071546325 7.305877867891203 1.4155929080090375 0.17561045968088465 0.38591949918521923 -1.0110873466169426
P 0.5579747394338698 6.263515659643104 6.240566891692428 1.3622668712178154 -2.0368346092389054 0.3197668146175461
P 0.06156846264185722 1.5982780350909045 6.999608020891576 -1.5681952651559508 -1.755635370481912 0.38576857542965176
P 0.5189298755217321 7.672871495444046 11.132762863113193 1.1198516952075552 -0.23388708393459076 0.5111782458864293
P 4.168751216088831 7.488257551896374 2.746536603849191 0.4840217400762955 0.41184547502236163 -0.04848869162900681
P 1.0727462525750229 8.511218468420983 2.6650332668251706 -1.201633344561737 1.1897731027890412 -0.6738385731645492
P 5.277415311942035 2.3438702416599604 6.72517118738209 0.24314511219774895 0.3168103030923834 0.09535090339818417
P 8.880191819619078 0.9016491078967097 0.1484000844482475 0.8527531575180023 -1.541457334940474 -0.37046742629620716
P 6.786445519653794 9.096358787169919 10.665033354685459 -0.22777891415432383 0.06938301857951276 0.6574783866389708
