# total energy = -340870.92637382925 ev
CRYSTAL
PRIMVEC
9.27262320342562 0.00000000000000 0.00000000000000

0.00000000000000 9.27262320342562 0.00000000000000

0.00000000000000 0.00000000000000 13.57142134933424

PRIMCOORD
 96 1
Ni 7.569770689518041 8.035247091194165 9.568218451596183 -1.4344503353606004 -0.5748894108921454 0.28674382272430615
Ni 1.62407209953123 8.801137932630109 8.304705806350793 1.2002583185910813 0.2600989664432682 0.7791710132554774
Ni 2.8849541016332196 9.243108235016427 2.5013753607647575 -1.236252220187187 0.6831696207574879 0.675321842578295
Ni 2.3866618871813063 3.570859297122863 13.363018084860393 0.33240558642747914 -1.942986258528176 -0.509122134688349
Ni 7.539208124129797 8.163329832610376 12.115140009245199 -0.27501367877157157 -0.4445303668498925 -1.5639231201431583
Ni 7.89550866267449 3.112782448595955 10.445963089684225 -1.2757754750927899 1.1284877736159984 -0.21672214211952998
Ni 8.939550376061641 3.2398822919748005 2.4586665865166637 -1.1808961120143857 0.8098193342689537 0.7334881665063819
Ni 5.205585640474207 8.949397901681277 4.548230851183108 -0.02516672907361472 1.130808451329375 0.887847173007658
Ni 7.135172122411957 0.8610418622889385 1.3020830478512577 1.1443967315367711 0.7195142208247931 -0.6419952034017073
Ni 7.715415778884899 1.2758572882373096 3.6716935086088855 0.14662744218497328 -0.14252473287050937 -0.6273448004783841
Ni 4.33530360937174 1.0072294001009456 10.740449541563974 1.876621200839381 -0.10804726791893006 -1.3589007829590596
Ni 5.130876117011498 9.039713249642897 8.535528283278293 1.6712090844160314 1.519438921687854 1.0590559040764211
Ni 1.0067379510822634 2.795009658591358 9.190742951182376 0.5248405738648703 0.6404944504864646 0.18128514146815874
Ni 3.119393828790682 5.302002374365885 3.41705337225898 0.17742900094686218 0.32834092943980225 0.8571561716817043
Ni 1.1296651141138057 4.229048622483422 4.675964941974743 -0.04926362212181839 0.4348355081596318 -0.7189591196522714
Ni 3.284159066771181 6.743209075832316 11.445511976159233 -1.8071813608800036 -0.06419324684845719 0.8218983769206748
Ni 8.93670368080248 1.1949165621226283 10.15960687364562 -0.15019896158631552 -2.9843743130111893 -0.3098721812116534
Ni 3.8392460970613826 1.6848077801419716 0.31594515601247897 0.2248406574616063 0.9201433140372024 2.2468996510532335
Ni 9.303222649886571 8.000307847752751 2.3481545384117966 -0.5102644758229082 0.12293549788467215 -0.2435114943982322
Ni 9.028001926801467 6.497466021245159 8.109263022456924 -0.31548978450874693 -0.9780448143396768 0.15308811020865248
Ni 5.13248028078946 6.121470431461196 1.1217741119459061 -0.7494819708314769 -1.2760919778919444 0.24895503401130673
Ni 8.261897815036663 1.8652066604903652 7.945524263841862 -0.5415452882140609 -0.8908427653008723 -0.8792193221293311
Ni 7.353904026217574 6.699238297594737 5.7764175846082315 0.38414286690077065 0.4307307419626388 -0.32449661599304763
Ni 6.201196443963663 4.634410609289403 6.098440017730983 0.2702717932112119 -0.26134183771143377 0.2610615874668536
P 3.3474261734592865 7.688441718595334 0.895281022694307 1.3856371705126393 -1.2717175029733325 0.10134414486714158
P 4.043661070964252 3.7220772329091187 4.896772058806418 -0.716646669469011 1.2339549395125782 -3.059003667591306
P 1.3877871203979601 1.5398674101226584 3.711986764567041 -0.6304031276887336 -0.14175931545939457 -1.9060343638941755
P 4.742177033725746 3.096026818845786 11.168410765130949 0.34107303229449004 0.78520642081628 -0.3805088696926092
P 5.574209494977935 1.0389510433634415 2.925415192067566 3.8836302420764217 -1.208095812357629 -0.13352150093063456
P 0.7403262198414668 5.002626468381395 9.535646508805137 -0.9771891512076011 -0.16926549129946333 0.07580486294545655
P 0.7123266074487653 5.4119664104518055 2.359269631594712 0.5472683067407671 -0.2521938526635786 0.525535800159682
P 2.3337430277545117 7.019264334986878 5.131015206356408 1.0011202081019017 -0.670490996848555 -0.7605703674351547
Ni 2.3735040351528114 5.545214002875677 0.7548258204171946 0.1533958712570584 2.248591694043676 1.277143301974594
Ni 0.7556594292243558 1.6355979699127798 1.46726091755499 0.2302991094730163 -2.314964465041955 -0.9612845641622024
Ni 2.758577522847907 4.068660062556094 10.922510075952893 0.3750110798028316 -0.11856385117953773 -0.7957525717632424
Ni 5.910212261788749 2.5777891923337655 4.7956105237287066 0.057209616441772436 -0.5282406006853548 -0.28267633752315185
Ni 0.5743675952816395 3.082683514357411 11.594281939475072 0.14362979300923004 -0.2913450689417434 0.5048183651066726
Ni 7.871427660759056 5.255648532018847 1.767541831543694 -0.608093922668572 0.5837895415952526 0.5795608482258857
Ni 4.439666981169283 5.029489257195032 12.629306954262852 0.5224833864866034 -0.7285956143007709 -0.24280752635267214
Ni 0.05314232964094979 4.149591516047781 0.047332104072905404 0.18535159822804853 0.33064643764452734 1.137070887299319
Ni 4.152484574421911 1.0345558200642824 6.880032191682675 0.15081268391091446 0.007681942025289996 -0.6078540387436242
Ni 0.12651474086792325 6.560844399409192 13.206893076985711 -0.10561371877677295 0.4777263939858869 -0.3723808412688361
Ni 3.5282237765964215 7.733868298642971 7.51758993088157 0.23892824590292402 -1.1067308415548809 -1.4564137270055693
Ni 5.093739261920502 9.052259108553788 1.2882482943442004 -0.6214448900541812 -1.0768893327134164 -0.1823500923975634
Ni 7.7302519756753085 4.006561306365233 8.19612060930408 0.4310292470396641 1.6835676059813844 -0.3964386535489882
Ni 0.9776868232420415 3.493488530860874 6.9936246051461515 0.032072455054512505 -0.42554379844506063 0.6851727672304457
Ni 0.5677015066112483 0.6605380807649405 6.543772573214927 -0.20567076940137483 1.3328732485470465 -1.4937011506021178
Ni 0.5669958600014045 7.6295512899604 10.066994696968381 0.5975305453304289 -0.03701874331619431 1.3431777157968479
Ni 8.879973773325151 2.5076139815151253 5.289379552684144 -0.16879240831778672 -0.43869601955630255 -0.15291558918653017
Ni 5.609399099240189 0.47979704062806816 12.752738547985269 1.5565193714799193 1.2995319540824393 -1.1083295535005686
Ni 7.945645735203083 1.336249881797273 12.32142527120596 -0.5775772421369537 0.16373607684080188 0.38190986380519387
Ni 0.3996713780745599 7.6177843313810065 6.173489846457572 0.38623883019785094 1.9070028984550316 1.851677900630482
Ni 4.951525043061427 7.653585928760865 12.728188351346336 0.6962135984256397 -1.3273032106584366 1.8231252858037699
Ni 8.178657478419469 5.626803812599939 10.928508535767717 0.15186863597925457 0.4171668872352751 -0.7366909897143957
Ni 2.060803369925935 3.3674828569953217 2.353922109914069 0.8311060115618718 0.5639200563648353 -0.13637079745397157
Ni 4.838436133026525 7.12054919595041 9.650569543668253 -0.3681891717849917 -0.563373696943062 0.7241213805795013
P 8.79804087655011 8.998079172399809 8.171487886320502 -0.4335676971908016 -0.3460861692383652 0.017127917929538244
P 8.574663388624497 8.802269192635377 0.3549940259648385 1.5728880426459297 -0.03483741939415936 -0.09473795240453362
P 5.875912829333919 6.383996933667504 11.398934663598043 1.9543430783018922 -1.5902530162869386 -0.4563710682385624
P 7.725949478606091 2.7678872363338893 0.3769349064932563 1.1947260759189424 1.1891177285932293 0.9731234657786595
P 1.5179932924797974 5.188208744983439 12.099192952220106 -1.1224752488733314 1.5038541798757197 1.6286658117371822
P 6.057498605425546 2.215340904744045 6.959207410379299 1.254413464477246 0.3296352227711936 -0.2066930400183021
P 6.557914250543087 0.5129216317495571 10.456359554585104 0.33695978145706484 -0.013349938944344749 0.7120374528317737
P 2.82382897085673 8.502355474517236 10.195556832993383 0.13073905308949096 0.283680353307634 -0.14940911869516849
Ni 6.001204511228933 4.637683845206288 9.716309658908859 -1.1901873075083245 -0.43142314004397314 1.676212451167894
Ni 2.5949064543807006 6.160767807709795 9.325058749775154 -1.6693812871786733 0.3669352447732325 -0.5533674776599696
Ni 7.640622801815244 4.259601915248672 4.10308838447054 1.3677338078696575 0.60820962231083 1.1784918734482672
Ni 2.3212806224505673 2.22289809248416 5.403108273705632 1.2050292576171635 1.0788693392579225 0.9263463575241208
Ni 4.684232412636199 6.780383021415287 5.2623730382141005 -0.5044830932544409 -0.7605094322902322 0.6238370444354419
Ni 3.939149337198807 1.9862422084311302 3.201688357862488 -3.0575815904327985 2.6858684646549484 1.1702021226356492
Ni 2.589611786651123 9.106847040119504 5.2732164435432916 0.38635298717821204 -0.20074453574435105 -0.2979427767639191
Ni 3.3118656642772715 9.245648933716785 12.538038380657445 -0.5142913375941143 -1.7765770057305856 -1.2695564907662718
Ni 5.7777621149423615 2.8439227448847415 13.261829659176 -0.7419830913512705 0.6921790233449499 -1.090978978037263
Ni 7.103710112593294 4.965934699194112 13.01962040121186 -0.4836278470719864 0.48090196350039116 -0.26343008769903015
Ni 1.6471423855403178 8.720651565042134 0.47046970915839714 -1.8112023091139389 -0.2886284413415287 1.9377242387982887
Ni 5.999572529581989 2.1924189807028616 9.064162374691193 -0.22018413252620145 0.10222243370703685 0.9533262285470743
Ni 2.022924704995419 5.664469207201593 6.760399591600904 0.2381219479515448 0.05832161855902859 0.552426711013255
Ni 4.372690825283574 7.509378095958078 2.9314136518823886 -0.036930040257129954 -1.2243151024299688 0.6656300692118279
Ni 3.618594760296008 3.037683474967498 9.074204625393703 0.21064379713593404 -0.818119626604533 0.07204128213796625
Ni 0.24116608787731475 6.522483558082988 4.384790671028453 -0.101668875196412 -1.8524291769742098 -2.9224055846178767
Ni 7.155238078570988 0.4386006311902967 6.029008471276462 0.22167023015342469 -0.36543423474767384 0.1336605976116601
Ni 4.187933812127998 3.600040241685001 6.9067271460201205 -0.5528306313198931 -0.09842491433781758 1.0278887344449976
Ni 2.12640717760853 1.3836422579196392 10.869011677588974 -0.7731268639439266 -0.02076294357896424 -0.5272676952491242
Ni 5.7185378718796445 5.188505468919247 3.444657043649838 -1.4107067118867576 0.4557434619568925 0.5572668127143757
Ni 6.415088038566407 6.2511573366553685 8.150072763515844 0.22797663198742674 0.3124031751636232 -1.374800742018768
Ni 7.128069293198549 7.302570785322755 0.6930775693755077 -0.2572067324971377 0.16954882686783704 0.34012223834544647
Ni 0.646932361045835 9.179331134063652 12.13901144988097 -1.0979847199311348 -0.2611850004185953 -1.580084303284053
Ni 6.25926160915213 3.230489124881872 2.204338010299357 -0.10261221294628779 -0.6621907045129757 -0.3767149498678158
P 8.420515303972136 8.626246990340155 4.392865271131634 0.20673803432362461 -1.0732098269793002 0.5604912331889443
P 5.85029257200148 7.982838226032042 6.824904593458709 -0.5516461240934887 -0.06705488466696839 -0.8922051928660376
P 1.8882213107614891 1.472001082429526 13.068342471471567 -1.0084401388020825 1.0677742577860256 -0.1506015963413729
P 8.760208574734564 4.871650668591055 6.359391101290608 -1.150717017327844 0.8005451080558794 -1.4352057254693864
P 6.553667389211832 7.034805251124833 2.7639148446432573 -0.168864913426935 -0.16484010853825803 0.2034663055508883
P 4.2664636562642375 3.8954938281430254 1.0865539080277717 -0.3665814609782396 0.16575979213905 0.34377577593763375
P 4.191299774274822 5.337831789614725 8.316946595965181 1.3199868795026817 -0.8296960185882227 -0.8773295613057858
P 2.2325416203979267 1.6099684399573464 7.62238818869753 0.1790868482652593 0.7029424325090411 0.6224751310909087
