# total energy = -381175.13937619963 ev
CRYSTAL
PRIMVEC
9.16941135723663 0.00000000000000 0.00000000000000
0.00000000000000 9.16941135723663 0.00000000000000
0.00000000000000 0.00000000000000 13.42036037962328
PRIMCOORD
 96 1
Ni 6.561263887527523 6.5724322303848774 10.612445468688005 -1.0021108541499453 0.14331226176881126 -0.7805020733620752
Ni 3.6917791731405387 2.4595478472903145 8.946012262848324 -0.1471257219776305 1.5589076692064379 0.28805739932940716
Ni 7.579123548630548 3.213906138367236 1.8067967188050438 0.22261099680013918 -0.21805474488802448 -0.46215039392450086
Ni 7.330696690638509 2.7969271634590327 6.125334490465547 0.031302923878339634 0.15363524096137413 0.4543057010691015
Ni 2.764760868924058 1.1565836833435128 3.221034438644171 -0.10831466264770379 -0.9627284956975807 -1.3426326419266554
Ni 4.311530507611579 8.002915396069962 3.2193830276847217 0.10419061317700119 -0.08241311229059355 0.02818006197864179
Ni 5.198808583631201 8.543534711773376 10.251987661437454 0.5580016339978713 -0.679846727031842 0.9652990846382344
Ni 2.6143550167982905 4.68985124484605 10.083857337437083 0.2722921660753504 -1.0122649118648113 0.16884871547701888
Ni 4.472251947351897 6.137802138891775 0.8537400375671923 -0.43788406517796846 1.0038910859788195 -0.11790282055677113
Ni 3.8150252292535933 0.3327753547987033 5.359474089963121 -0.0876242241778878 0.6193224443945399 -0.8402023174361852
Ni 1.395428506618035 1.6672465326142698 5.12231001976393 -0.5641951644030929 -0.623929604149248 0.27940949384642205
Ni 0.16180526414568755 7.802637116357042 2.2443811945909538 -0.5503019513607684 0.252538637597507 0.25125488578907695
Ni 7.701003362472875 8.747691652429365 -0.11886032672990808 0.6327718850312264 -0.8545467590833155 1.0653959873618362
Ni 1.6412420824143872 3.544811850219622 3.4390747848176657 0.5347076964669372 0.36680026185726505 0.43793291613803287
Ni 5.088436380861107 4.173347480632653 9.929040081576773 -0.47311717734864966 0.19624896186684268 -1.0565791604011545
Ni 8.368793242288481 4.56596332994809 12.282850863465132 -0.33324608005090356 -0.23753573643077155 0.8421566129490786
Ni 7.896201788373828 1.2034118664079703 4.572745943422298 0.46604381544163603 0.6244319977069632 -0.7181489650461503
Ni 7.592529227823857 7.959122288116985 4.264990244059208 0.8625544598791404 0.13148235901341873 -0.6841967764704217
Ni 3.00366987807707 0.25883964136544724 10.29156467411472 -1.2565562218518618 0.2525193543237974 -0.8393283994716642
Ni 3.480451752916034 2.4049806811621406 11.424188685958836 0.3077543635377022 0.16273771748327456 -0.7887671415843447
Ni 6.4463895038518775 5.520031397242728 13.405946940117886 0.60420692890934 -1.2092980601958463 -0.5435096110292833
Ni 4.110023526796128 2.785538754732568 4.2226899162516975 0.4559625199462341 0.012398116554036713 -0.5500129593654399
Ni 6.142643588012204 3.4543097615479565 11.951434415408187 0.2862853950306489 -0.5027815371823018 -0.665700517438447
Ni 5.801935775573191 0.5340136718656163 3.9972947853443084 -1.2045934556313256 -0.14539974042545925 0.21312491168657488
P 0.5433178734233811 4.838569925308637 10.36227642256551 -1.5640779005534675 0.5457315583812665 0.17989597443011598
Ni 3.499698347051983 1.9216059996610773 0.6029621425401571 -0.11508771970547921 -0.7889471188056348 -0.5589282595771987
P 5.604564199214773 6.41702904914806 3.8889114278662995 -1.7522093755194985 0.6277793169126414 -0.16612643144984937
Ni 8.399134823992082 2.4750258134177483 10.368892152755642 -0.304908666558791 -0.6993562578196794 0.9475625865904198
P 1.8254830619158833 0.4728326094295524 1.1354133467350893 -0.2517842759299857 0.20153746395929162 1.0198283260343664
P 0.4093756991304381 9.098109871342876 4.256119755651815 0.45559845173859603 -1.0194187493007736 -0.6234909739499327
P 8.151936667102577 6.662374984972553 0.40219788403295287 1.454602384828443 0.19435148773381367 0.5546165195757223
Ni 4.1538808206275935 0.3692540234271212 12.244280652139043 1.1324303032035143 -0.4152239045762913 0.9027276896639163
Ni 6.549041062380681 3.1335729267307153 3.940808461449267 -0.02774014622774577 0.12509265343699102 0.5535268860559693
Ni 0.1682504432872593 5.154300261603617 1.7265295269292562 -1.214630013931721 0.4604994885846392 0.007268508636955224
Ni 8.971461963669823 0.19065314876270126 6.4747064795596625 -0.9286346393376652 -1.2275796321138537 -0.4162315199051993
Ni 7.498001767629714 0.5060350474315888 9.09457506332029 -1.6269226037938302 -2.839725334708825 -0.8332269145596166
Ni 2.399469865023167 5.327831368808405 1.2890935956049956 -0.5981699786866408 -0.44493300160494986 0.24259900988629188
Ni 4.978467632184381 8.779326121113991 1.0362755065830824 -0.7021780435391907 0.631581464267551 -0.11659875703336695
Ni 7.403804406239237 4.477716916434806 10.081763960857169 0.773851657925093 0.7755848385661158 -0.35316441624138534
Ni 2.636920937793323 7.651112596063297 1.4536533508790488 0.34042845673195565 0.8408396939098679 1.2219427455430503
Ni 6.412013381214585 2.3735571089354135 8.17169766520757 -0.9754971082171585 0.9249145101736006 1.8836521395442334
Ni 4.550659582633702 2.322547674357858 6.559012797074748 1.2005210853341646 0.7707447368649951 0.3087352393937328
Ni 6.375830884568345 1.3975924876642873 0.11209788596036876 -0.33463781819210753 1.175440488216453 -0.6960783583993561
Ni 8.715158581445873 1.8652966454024456 8.015162061685958 1.9692289942747894 1.141611712592466 -1.3586750401014986
Ni 1.407743025877006 2.9333038164290097 1.1285463746777227 -0.44753958598986154 0.6277476923437576 -1.4075149444223372
Ni 3.1777419805434217 7.354867258595804 12.661908821361124 0.6543781504470924 0.23682816884078567 -1.1974010516479443
Ni 0.39120742775312933 6.098492873021923 4.236230385789838 1.1510772288807403 -0.20594613454994853 0.3606506973161015
Ni 7.096216507101343 0.38993104571228887 11.262124844416944 -0.006246495130344081 -0.33184225772484144 1.6205125865024286
Ni 6.199044636382966 7.061152678623082 5.890262879905148 0.09191642379533847 1.2516652123081475 0.4518600677420863
Ni 0.29928041257897425 3.90487628972914 5.67666511346432 0.2179187335307924 0.38490082811271775 0.25781916927015597
Ni 0.8326925710690221 7.927276922974464 13.31914379192952 0.4517924477289445 -0.3301113910766637 -0.3114040444751475
Ni 1.5009592602676998 2.3028334402500485 9.746818206424367 -0.0019324411360224787 -0.07572747274030184 -0.13785689508119484
Ni 9.127672053093379 6.741580359029883 6.7951847369806995 -0.7112373255279816 0.01697339462954496 -0.39370994176391544
Ni 2.036260317467612 7.651360170166046 3.874873976240418 0.35912860424462023 0.5743240253069787 0.1880995932868309
Ni 1.9260806723329893 8.249242458894239 6.27821883444217 -0.2943861697609123 -0.5026645519884634 0.1395859619571596
Ni 3.4424353740272062 5.272924934465352 3.753379277669034 0.10174523696030219 0.46219950199488147 -0.6348863602710679
P 2.9200356784038934 8.326678136587471 8.2833416653129 0.11846589214909276 -0.2806269111932909 0.20985395424478698
Ni 2.2149446337740697 5.879820754415858 5.841883232463463 -0.8962940182234306 -1.0006558668709735 0.48861115921919074
P 7.227605000371485 7.973628296655848 7.532405398500645 0.8785140685321903 1.7187940332838465 0.14170557940332368
Ni 1.2153045927511463 3.502669236284974 11.975805793471045 0.5059974730164383 -2.039651766972726 -0.009537507176790024
P 8.425295154182583 2.549233858364029 13.365819762767842 0.4942596157542197 0.014966134391529062 -0.8371743292431387
P 0.12813426923067017 0.28462035793173435 10.698173961882217 0.0072340558545939924 -0.16717389887775724 0.9582853723245626
P 3.5690282652329826 3.670845407341409 2.0559855548688772 0.08987985298128393 -0.04690334941975793 0.3767632866072479
Ni 7.328055900209184 5.198020014266889 6.0842005117643225 0.7871833420369928 -1.8625662654082116 1.3751259865686705
Ni 5.742646362670356 4.927925837578686 2.301444274451289 -0.15817915157831466 -0.5575483485105365 1.531732908563859
Ni 5.140335248326316 2.0044883076147935 2.39133384645393 0.4580191453649467 -0.7355864437963073 -1.1379409486090981
Ni 8.566806677431805 7.239140119677356 9.259699654325061 0.2530243189846739 -0.07988314677988824 -0.1318312577124052
Ni 5.634942458563225 7.495984497162869 12.495119982221205 -0.30378149493288326 1.1031107283037904 0.3533747324799785
Ni 7.4853021330998 5.489213006156055 3.9279116845782744 -1.4903324912402012 1.1587159763729205 -1.22038671390984
Ni 2.744505639554685 3.469980285310862 5.7696145179887175 -1.6874260604955262 1.365615218864758 1.079506201510973
Ni 6.123452010343532 0.6391272173050928 6.266207822694348 1.189404663706029 -1.424110129776857 1.080144092205288
Ni 0.7230530042548411 9.139023784174992 8.717490362717323 1.8911785298282655 -0.6004240648281401 -0.8664026299806368
Ni 4.970857020877645 7.240827291340537 8.059422809610792 -0.9651656443841634 0.8871146657170077 -0.5564607718733127
Ni 0.2821042714949051 1.5384346438949639 2.53497175616343 -0.3363249760865434 -1.2140396886458897 0.8659177199244183
Ni 7.134003650709848 0.6121196335185151 2.1351524173991123 0.613222502144389 -0.5349990024551109 0.01579994314673408
Ni 4.8956311712867295 4.7476460437211765 5.584426338308925 -0.49487822317482516 0.8106575138995329 -2.5307972625779964
Ni 8.590830534809692 6.867925676132909 11.634687191409691 0.048161390196575116 0.41753198388417767 0.2781411686569597
Ni 3.606769561785421 4.732149738771318 7.670527907365566 -0.8388797419700198 0.42346968952485137 0.9562534294961982
Ni 3.9964878771575703 7.215290481112513 5.587271606608299 -0.20211956171500675 -0.2483819351166561 -0.41687918079152714
Ni 6.8312205230475325 6.015473023900014 8.276738772298465 0.3711299995808705 -2.187038455921227 0.3007779322198691
Ni 3.5081250359566702 6.811277053659399 9.898012627914445 1.8452349732186155 -0.41741834112444887 0.6094362956290794
Ni 1.5623668071607233 7.547479910534711 10.649753969031194 -1.843467854015864 0.580431166645981 0.7012884418453857
Ni 5.356724183540362 3.4798190635423407 0.6381653460688559 -0.7539667460757079 0.1102555884241585 -0.28208472668574
Ni 3.3724360888276634 4.25070063362497 12.759514452899447 0.6427253966995125 0.7611002717966957 0.31519539319677975
Ni 1.7479465206993077 6.406099110982242 8.309860519481827 -0.15756491503308348 0.11724564658874646 0.037868492910999293
Ni 6.534379173851199 7.2400295525650105 1.8779916952267537 0.7258234508722726 0.08892880192192426 0.400857094331658
Ni 4.695086978648636 0.5739757998138281 8.47254146239835 0.8559613800426549 -0.6643951683634622 -1.665025581313139
Ni 2.639717608213268 1.1442599946733287 7.20802188884402 -1.1767031569789606 0.1537116027252643 0.5904319866124348
P 1.4499131480452925 2.9850009568475353 7.601117298365893 0.09239593453491829 0.41389927222759687 -0.5970824020494169
Ni 8.5250491787681 4.036640728859011 8.067475386537991 0.6860032335515412 2.1483243271804806 -0.20707459172743692
P 4.812437103351773 5.503489779414593 11.609819748200213 -0.15976500800819582 0.5866624922676735 0.383657699734236
Ni 1.5282749362710324 5.749202491687605 12.387744343035497 -0.6577043866068479 0.309473403111338 -0.111894152468846
P 5.647697109560418 4.283728852813961 7.353672484314759 2.0363417287628867 -0.7462428950688891 2.3284876963393706
P 5.600960620608089 1.7667621525082495 10.527011313593729 -0.9629961475366707 0.4475228738193131 -0.618902840358618
P 8.72033012936997 3.941077125197806 3.570285391510276 0.9009322883263904 -1.781098547750023 -0.40555655668985635
Ni 1.2599229477132865 1.008112576983675 12.54791561810304 -0.0759565580319724 0.9329137263289934 -1.0241074130256944
