# total energy = -381171.0620116928 ev
CRYSTAL
PRIMVEC
9.21554279482979 0.00000000000000 0.00000000000000
0.00000000000000 9.21554279482979 0.00000000000000
0.00000000000000 0.00000000000000 13.48787840157201
PRIMCOORD
 96 1
Ni 3.779192717058642 7.741295526921968 4.47179789223233 -1.7429186942461916 -0.606050152765666 -0.3938721783733926
Ni 3.253031302876688 9.097851068595077 2.4798002656041036 0.12223872892796367 -0.8852413599536948 0.4406839965206088
Ni 8.194442195774846 8.429982253311872 3.2921079688641783 0.1539941669626896 -1.6452805374757276 -0.9772588281032717
Ni 6.059385247921706 5.975238126932207 8.148337756874575 0.10683319300617085 0.10100475924985186 0.565666863852613
Ni 3.1534297166698653 4.8449149446032225 6.196358624704446 0.5033664631514944 1.5820542825262303 -0.9050748497398542
Ni 1.0030196745698192 4.4628661881842495 1.2153467014354578 0.862927784058159 -0.3799877070818165 -0.239680036467284
Ni 1.6124895953496334 8.997447730167677 0.06349324654402003 0.7645362940614381 0.9435570649754524 0.41336319721846876
Ni 7.290323726161689 7.722274646654491 9.926862864671442 -0.37642364387964206 -0.23805381371777065 0.8191357265738731
Ni 8.788439220251805 1.6150330851528425 9.280037741292686 -0.45765430582636024 0.3406318309920134 -1.0879666735735005
Ni 5.492887403056252 0.026298394389194166 8.790954141872442 1.2572702171997507 0.8834212760258204 2.9901171290322375
Ni 7.536056173997083 4.048424798945423 7.766576525389879 0.125398614713184 -2.29026130586832 0.8828294080780925
Ni 1.9976439896804956 1.0749193392243004 8.717134879659959 1.3124710307416108 0.6807741239421178 -0.7177136772809446
Ni 1.3107542941298154 8.648049641765985 4.068847363267494 0.4666950758723898 0.7587942493713383 1.5999774426635542
Ni 2.7251005044838066 5.795332301068995 3.234244497395449 0.42514142080031947 -1.4251342001659972 0.7359399704809843
Ni 3.3843896494525634 1.0166863244906852 12.739382007826412 0.01691683035999667 1.0184353023415815 0.33802190417299205
Ni 2.956005144009913 8.196174717814712 11.241904229295653 -1.9810763805316787 -0.12946224325959638 -0.0541443472528874
Ni 3.896045799322013 3.83530615695625 2.46870014434336 0.095356559825139 -0.18715574131632287 0.007726164999664113
Ni 2.1687397566601287 2.624061293605605 5.948599679014975 -0.30479193847526864 -1.5092563247278974 0.17125064005029217
Ni 0.06670486319770969 0.4078974323212227 7.07097998503459 0.23569714056013602 0.8523590074033772 1.0024384126926928
Ni 5.956318617635148 1.9398256743713165 4.953976285458575 1.529184174000076 -0.6995238937457953 2.111195283538667
Ni 2.504554135025842 1.9698591282432667 1.897649821351873 -0.09758596337629 0.8022055264774377 -0.0828280883408251
Ni 6.094653130084317 5.042385594977001 0.6307071390823332 -0.34215392406349465 1.120826657526315 0.7421820947359541
Ni 5.12342707805461 8.77391552485377 11.76563826951324 2.0133092724234554 1.3815108070490916 -0.11680418817595369
Ni 7.312164562515333 0.9857773940560363 13.060043269223225 0.050891644643544606 -0.5387630974832334 -0.8184194172331388
P 7.672436991380019 0.4947410211238334 10.727961703266145 -0.32476555338371804 0.17965429073295514 0.7056459474831331
Ni 2.4657935621552 3.169105354913556 13.31280533307995 -0.40215138766304936 -0.21349437921085165 0.509549966254387
P 4.036840861689504 6.9677152205785795 2.1315163363227305 1.0298743974164586 1.0960101127032673 -0.42830619168154627
Ni 8.051251092288389 5.878391988012193 6.7141311303071936 -0.12801574062105694 -0.001683558350010004 -1.278733272169533
P 6.311117014097277 4.430851392617772 5.77239389357201 0.14534291904559485 -0.08399614050699727 -0.681160046526627
P 8.44024836795236 3.969567399503178 2.3481719036252073 0.4010044185427997 -0.698069677797772 1.1807189630065729
P 3.4425489398440563 1.1320464888260857 10.624928248933543 0.012188571646391911 -1.1600822605928278 -0.799052839781069
Ni 1.0874156152139796 3.629117603126544 3.570524260670808 0.17048599397012573 -0.5960033100526252 -1.2157944665534675
Ni 1.5264625036360242 7.490909229990123 2.1145348556692043 0.3099796533237952 -0.4467098909997146 0.09699820919362004
Ni 4.80889138793386 7.14533559183601 10.182363787838002 0.3228092009882957 -1.0982667699479278 -1.0028755002301117
Ni 6.4009316938874035 7.619263309624526 0.08535435709174628 0.3987498181806681 0.5799848231371818 0.43535821343232123
Ni 1.2713394177228408 7.6652488680231246 8.081329702319888 -0.5481044294888173 -1.0712146509261422 -0.33823427729411426
Ni 8.00210460272131 2.9899644190998598 5.313994365342941 0.49067215551327753 0.1032426474414351 -0.12056108411522462
Ni 0.4232081350714092 2.092324476050675 0.3180062635261438 0.5934424913039844 -0.7303179963085163 -0.63996146080113
Ni 0.917667160586626 4.331830385605159 12.077450766746857 -0.742554133363392 0.32231323518848365 -0.31000433591414356
Ni 4.180078042889786 3.2288128564896112 4.657135359001382 -0.5742384075717079 1.686544429221521 0.6353080211895187
Ni 4.676666780338052 3.282355159955714 0.14400022814124477 1.6160956883816555 -3.1367124324276947 2.4182202251095126
Ni 2.673143274373327 3.6777019445849426 8.023992438343056 0.3016284531456225 -0.6598795398812958 1.1998384574448433
Ni 6.524272518257511 2.672793083748247 9.835576462701706 2.1394604490319478 0.007669857840431952 -1.8256012581480883
Ni 5.0215308216992405 7.24983063125118 6.271216478586573 0.27800258619656637 -1.7504949639315532 -0.11097035510299598
Ni 2.253799216383387 6.142214546295773 9.75970766377823 0.5217457369896304 -0.21529877940944214 0.5603220546009318
Ni 7.963242658880251 3.6401393922737837 0.21433140741708037 0.18339318895009707 -0.8084247679142723 0.9521352935627668
Ni 0.6786049226047204 0.4543124350126813 2.070119625757805 0.11293339236663777 1.5335434794100364 1.4425202568529285
Ni 7.095285979077937 8.031308657744388 7.569397086167481 1.3005783930690826 0.5456577677205376 -1.239209245932982
Ni 5.120459673284201 5.614550998643084 4.164355405377993 0.055314713411904734 -0.47905565432027175 0.9955260018435759
Ni 5.248408269036933 2.3162805963317825 11.52661934458233 -0.25141532262634125 -0.778892305672794 1.8576194629258977
Ni 0.06338818935649618 8.572629639775178 12.07065338240321 -1.8119415012728084 0.1815319673716422 -0.1607983343687166
Ni 4.18096273499525 1.41465953880801 7.433426360437599 -1.525992663645972 1.6448357366288253 -1.2840384864325303
Ni 0.7051143529232389 8.890270967807817 9.863618437782085 -1.068859006209772 -1.4135814623313914 0.9081619733056101
Ni 4.840666579388442 1.5998735173040064 3.083895681843224 0.19302042762721594 0.9230244922397394 -2.823846715805356
Ni 0.0799236377401844 6.419712970042983 10.991582441163164 1.1251731074204687 0.6630695075735032 -0.9084730767881257
Ni 4.279163558701755 2.6225499445921043 9.355948010158606 0.3086982155082103 -1.4195579916298005 -1.0058492381464548
P 5.46551724104346 9.223744598311157 6.683432314247592 1.4586536720796814 0.8979266687308473 -1.893878702368248
Ni 6.244037078309021 6.66718715546101 2.3700634254640587 -0.2909856287197956 0.6889209214189684 0.9272071628625193
P 8.540080342728315 8.831024243370026 0.8025797763170768 -0.9515755644045548 -1.1307644854653172 -0.7418283109409611
Ni 7.334493822635533 1.6314643979032835 7.198763622571824 -1.5564982884339966 -0.04789579524001429 0.750283897907482
P 2.443187835752042 5.9256492913123955 12.11551372303017 -0.2661613705872642 0.7571682837321412 -0.16544997420811505
P 1.8300593444944229 1.5880591914789557 4.02687333063461 0.6199173976660614 -0.48325272312075485 -0.567244492752378
P 6.099048943983342 6.271139989581622 11.896295313284678 -0.48638098433709137 2.395337664084384 -0.695876526801195
Ni 9.169031920913868 7.604094526232925 5.8148268602346045 1.737362283204337 0.7622832363612033 0.34142655897916685
Ni 8.121501174787891 5.909439151588321 12.89151218779516 -0.14085814380136386 0.7183587670641112 -0.3141728654695364
Ni 4.904189315669312 0.5127721520983217 0.9397678752462487 1.486721376850175 0.7316683396888237 -0.07626200508753318
Ni 8.138043074051515 4.584990560909344 10.127993928631579 0.42299069300590375 0.08114195888765381 -1.2654447825907433
Ni 7.745866436133531 0.2734997997413685 5.287018628560501 -0.605996416709595 0.5116857816504672 0.0029984205066916104
Ni 8.001496376898803 5.269769897166782 4.342611649086225 -1.9021769378212983 -1.2271335457153705 -1.0296568820890137
Ni 3.1420024436409557 3.33377788858581 11.10099581575215 -1.410335701700584 0.9423247352302481 0.7563406456245233
Ni 3.8112720214244775 0.9279130010330311 5.015777558350895 -0.8318248920057674 -1.0086802798373469 0.31201622413784974
Ni 2.137194953774678 8.925806100710622 6.397772605827476 0.5918208965401615 0.3349581776460038 -1.685036991438059
Ni 3.814543539106141 8.038505996644048 0.048132779862901195 -1.0396229921627902 -2.6981616802000046 0.9241843168757955
Ni 0.6460012538555422 6.301578927335243 3.951449642426697 0.5004603452482929 0.5284917974642124 -0.170378521857984
Ni 7.055659145187362 7.208858328116879 5.127551954996337 -1.2175117063548904 0.23412542519764193 -1.2836862452994342
Ni 4.407324111938087 4.925403495114917 12.326747786523852 -0.4385553802133802 1.9236415354529774 -2.500965009707912
Ni 0.9465283974188362 6.773949218396432 0.1733111834603992 0.5252756045197599 -1.2052781404031758 -2.34092746476462
Ni 8.464042899372236 2.570675654366511 11.433525774676328 -0.6470831594475759 0.04360179585035072 0.700825129055722
Ni 6.358696861394263 3.9173705652808017 2.8766408897155795 -0.23650600961467655 -1.01119841827351 -0.13607023549441727
Ni 3.713651776912183 8.245404147266678 7.8237248707400235 -1.0374594088525682 -1.094697821649747 1.9870068870835005
Ni 7.534848937894836 1.4477249062497275 3.0049101863565424 -0.4555483152269509 0.9049506654571641 -0.09080365034713395
Ni 3.3750082269175383 5.278294274224639 0.8055444164246578 -1.0997011884016092 1.4735902387848558 0.12082102264483062
Ni 6.7563198850865085 4.361458355595438 11.949518758971104 -0.9611822342563833 -2.717540856057565 -1.7665296487969124
Ni 1.378875586250544 1.6184889136898115 11.280451923128417 0.39891205479014524 -1.174720579331293 1.3225448700378448
Ni 5.762755357393836 8.742803852478286 3.7682160840709527 0.39174613316932533 0.21372860670884478 -0.25974775375143655
Ni 0.8113078168700452 5.045500448431656 7.967316850336768 -0.516902035744084 -0.05237671382950334 0.36427003923624357
Ni 5.013494868407943 4.657139045218487 10.032863723774456 0.32887057669102715 0.4431733386013658 -0.25855116234017406
Ni 5.032690843987958 3.8727673382969914 7.450097277299936 0.3590663835481171 -0.27428297125313406 -0.2716180228264613
P 3.888341605570264 5.868688021480385 8.358438308608129 0.2836248174793502 -0.24367218834581264 -0.2003172183989453
Ni 0.708714865481622 4.421423892368921 5.597240523112838 0.07045722548029801 1.1590245087522748 1.7489859834861945
P 8.596147704912095 6.505223991361739 8.61812032352728 0.08735271568405602 0.5195417873597762 2.1130135676943285
Ni 1.1446717824144783 3.2600811930921045 9.756604790529172 -0.6630024017809937 1.6429526606734994 -0.4973364549073306
P 6.37759793960579 2.0427172093453336 1.16330929610292 -0.4946337112641868 1.3408094726749875 0.9331307274358058
P 0.33571945827523103 2.786835425468217 7.434882416194508 0.09999945791378907 0.10744125890381497 -0.36276697232815586
P 2.103263325313027 6.636434889253369 5.679017406503114 -0.731069015541928 0.9701386721187226 -0.7864053262203876
Ni 8.47979226195805 5.9683909786576255 1.6835303714183936 -0.753838962248592 1.4059203462417076 0.9046804425149129
