# total energy = -340891.80706257245 ev
CRYSTAL
PRIMVEC
9.06461608474169 0.00000000000000 0.00000000000000
0.00000000000000 9.06461608474169 0.00000000000000
0.00000000000000 0.00000000000000 13.26698190545866
PRIMCOORD
 96 1
Ni 6.546211962474312 1.8854038973358245 11.54407871392665 -0.4182755469184216 0.2116403567212484 0.5458310600736084
Ni 4.5748664395753 0.45667445435195436 6.084928150818394 0.5858199417617201 -0.2867070559490998 -0.3183092562354131
Ni 2.6852203018889242 1.7112635567921675 4.855078198730154 0.5842088885208584 -1.3739268240542466 -0.8918570654979995
Ni 3.6540464742540317 4.0989740925583815 4.907111814722177 -0.12920127628872588 1.3517266338081235 -0.1600750830494469
Ni 5.284716529001868 4.753267149701775 2.902683162320161 -1.4374266443801051 -1.1767360670994251 -0.12067678375748249
Ni 7.162179822604609 6.127209146312217 2.7186696418837264 0.23642964785078635 0.09292429623456254 -2.32252787921151
Ni 5.055744325465728 4.274383479360751 11.716191299841206 0.5651698696115363 0.32964782117668384 -0.36172361866530606
Ni 5.54741816917134 7.755313914694228 12.456038016977267 0.4312858431351605 0.3596901331750451 0.18616278127543423
Ni 1.9469345116510786 6.335024535792405 0.22203505280905317 0.12282365489715621 1.162915616276565 0.21140381523041013
Ni 2.6797905968248643 1.5202177071592424 0.5100768273801595 0.2786939558366362 0.8691771074019805 -0.9229288472021395
Ni 0.7079800591181947 -0.005870245408155349 4.784763971381388 -0.061571750065210096 -0.5408081529377202 0.49633295334348076
Ni 8.611367197740528 2.488998556443682 1.5955401349218534 1.0164159579187075 -0.051012229381808924 0.21125134881294588
Ni 6.857046714313496 0.8629759303875714 4.848524481265521 -0.9624006800445167 -1.5991942846406264 -0.8084450796292465
Ni 0.8203377890180823 7.484780446185277 2.2713471519968644 0.07826103779543296 0.3395406548103636 0.030572987690850574
Ni 7.634228772380857 3.7878764668513223 3.7808513893477396 1.0926972462799502 0.5091499026024908 -0.02680375045640545
Ni 7.614322875351349 3.7500588883417114 13.04145630781392 -0.3335474133414062 0.3254576943547363 -2.0955755747235396
Ni 8.002768870526893 8.949939674948697 6.741749329401464 -0.779457948368277 0.3638321803678766 0.5667775804182884
Ni 6.933252942149139 0.89397057233338 0.6623007390358643 -0.32615189220828344 -0.5397087492259544 -2.5156652920325646
Ni 1.9130237826950731 6.267203077880394 9.191710210003944 0.017459590237344128 0.5327225477161083 -0.8653410214853419
Ni 0.2203399695920596 5.027934083167672 1.4677399249766703 -1.1632102646988483 -0.46723937841163404 -0.969003272962699
Ni 6.366297461453516 2.1707126901426337 6.88565645575454 0.18149905725117774 -0.47503213498317537 1.859161867712353
Ni 3.2363308335829153 4.290056200655841 0.3489079525237634 0.4761999300390315 -0.8152250786655573 -0.09656934918631756
Ni 6.0445761056378124 5.764715147127331 4.876611194355653 0.23884057128512412 -0.3261079263442255 0.6146232391466575
Ni 5.384635792643152 2.9418395846327137 9.540074285559689 0.22990650202028795 0.8333004481100293 0.11619715071957408
P 0.09504884539267225 5.844220895235623 12.514398735030584 -0.08960294517081342 -0.8550463244275532 0.8133067785969218
P 3.9436790889565945 6.040895871487549 12.611447234742341 0.1520596689441381 1.1137916050564045 -0.679958312909042
P 2.578529769995798 8.569561188132107 1.3519322021763134 -0.9306521839883262 -0.9245247309343496 -0.3270543494178948
P 6.325397913458462 7.860218717209024 5.8431902483812275 -0.7637729335328524 0.2507967152057358 0.3357544482950541
P 4.762658092016242 1.0056557077161503 12.366976350540876 -0.7277931730041337 -0.0901989268835995 1.0601218834470905
P 3.9178539975918096 6.118615890217512 8.20704815325334 0.32764750291720346 0.3645873133663463 1.657993614167022
P 4.58399450802189 1.1838932547522198 3.7349608637094946 0.6745173443991287 -0.10935056011138587 0.4449103758971305
P 0.20529995850309823 5.847493221659874 3.5001347310742403 -0.5778670054632306 -1.5868712442988993 0.26015013139617776
Ni 1.3088489881546617 1.0049849261222596 2.720182526316434 0.7955445695174944 0.7029974541166925 -0.9698756482653232
Ni 1.8015833919479116 6.595079308050849 4.628876141884459 1.157021105169001 0.15759422560912215 1.156517168949389
Ni 6.015714367868254 5.673316622651681 9.364273307340346 -0.1557440597742608 0.16371987889088577 0.42544506808366733
Ni 8.556906984009524 2.3009440301348634 10.427343387185456 1.1785888040374477 0.884673660375683 -0.602775338669136
Ni 2.1971904338690416 5.28554140907003 6.928243835273681 0.48603697073411134 -0.07901385680105748 -0.9276599341292217
Ni 0.3535816686022762 0.05308511146352713 8.877163497858028 0.356768845763192 -0.3359580796654279 1.0513739620511313
Ni 1.403565162135229 0.8277317963983052 11.570347065020368 0.08360173328205601 0.6069497817617998 -1.491907806147121
Ni 4.26019735511158 7.005053766543824 1.6559050396023194 -0.5067659757513466 -0.16764621052848547 0.005563353020390419
Ni 5.8073822952684475 8.08325359717762 8.300036611398832 -0.541143681900268 -0.6924523316109945 -1.3624820725524147
Ni 5.778049197459938 2.9307807529496537 4.825015399322885 -2.057757475434501 0.5597682389799908 -0.8654886028067998
Ni 0.6376703640774953 7.513216146996555 6.777199230176964 1.632150427851673 -1.1975928559437763 0.3697984252536406
Ni 5.198557352651471 4.654009603038246 7.3308832063913005 1.0840999915292426 -0.7699543797532159 -0.6682564510910813
Ni 8.213503066402117 7.012015391734471 9.017169213427179 0.3470207652374927 0.6670539461425479 1.5912603745055307
Ni 4.57479392264623 0.13999211864494995 10.307012420934406 0.5272124165311566 0.5440701115184436 -0.15537664913251306
Ni 7.920335251407428 7.316903755389976 4.438641575395497 1.1299329907029572 1.2326002252568966 1.782858210753607
Ni 7.4611671211571045 6.327256159765862 6.9979752078050526 -0.6178905970440198 -1.235483974562595 -1.1850561569293463
Ni 2.3361872576625164 5.2447778303169805 2.511903934951816 1.1540784776009092 0.5539809428742523 0.6821548063397284
Ni 2.6568480533905823 4.78744981714179 11.141465630195816 -0.3280251979715963 0.6401501797731686 1.319665748717837
Ni 1.0641587402427632 3.4551053439686927 3.682755020010932 -0.0039019061575674735 -0.42407749831217934 -0.1075790700332599
Ni 3.6571284437394747 2.934234371696576 2.7245734263715766 -0.31843061230462577 -0.6283886683618661 -0.7040752605619036
Ni 1.2438556904763514 3.216715004269685 8.066617307187522 -1.755155602632016 0.42246490240942086 0.16371319402266643
Ni 3.7077271309975397 2.8480389368816454 7.044820237522171 -0.45317595834003244 -0.48434647040556583 -0.64511575130856
Ni 4.282169984619561 6.614631685051145 6.179773042348059 -0.5691208838394843 1.747389585533352 -0.6373883007573152
Ni 0.861397780718702 7.216866651738954 11.023866739247449 0.04085071546777481 0.9997940330913104 1.0173942626715768
P 0.31840370631078563 5.457442789428675 7.969064814818734 -0.8527840107559377 -0.06328127655714907 -0.05423536430479691
P 8.448095331941122 1.7044379008435246 7.889263560224483 0.2991373112926526 0.3365897997121558 1.1032943050695063
P 1.6193755430453007 2.9909607394609927 10.304889487835904 0.034690095183017675 -0.009319734739029112 0.20219978013363885
P 3.91589604050694 6.1736109163004 3.9330363231540697 -0.0017802318288743532 0.05435723459464187 -0.8240817577252388
P 7.065714177710247 4.037606641333534 10.681366563868567 -0.5434347919272898 -0.4306525804265357 -0.749729825176225
P 6.514404224461315 7.736160380803814 10.351562289846482 -0.44337337042731384 -0.11542787665371733 0.2386791060065954
P 2.673091845502093 8.39579249684993 5.819071117772796 -1.6883711980176148 0.4424683421145412 0.10157760103418637
P 6.950729522054826 4.052209737924852 1.6849462567713251 -0.575980329963479 0.0899191908596516 0.8998737651548889
Ni 5.026746618454163 2.748654485592246 0.4709022758353402 0.647417145748227 -0.3981404667314434 -0.20755127425353934
Ni 1.6474124007466975 1.091588268663205 7.047832409463385 -0.3706893124990261 -0.5323571939568896 -1.3741919047901752
Ni 6.981630798454457 0.7728392004777271 9.35062199544306 -0.3105517237771813 0.3935176232474513 -0.4477154494460934
Ni 2.6701277160263874 1.371793682586766 9.16962064694784 -0.011435238420135144 0.9535992797028028 0.19374419316711794
Ni 6.3603420086537055 1.9981223989578314 2.512872942416504 -0.784684743984855 0.7719490415857414 1.7571322667424125
Ni 3.8497696658119227 6.849523082922562 10.51762515095344 0.8819937995506746 -0.0373118490765809 -0.4346305912376773
Ni 8.063275183219043 7.519398215199708 0.25498583891650456 0.04667914922409381 -0.6438507685532073 0.11383096448024267
Ni 7.6803404746527635 3.8337615537198872 8.28971473300744 0.34572775745768203 0.35959345969618073 0.33444524256532726
Ni 3.1797948227573056 8.383265197353218 12.378996031534102 -0.26252763048941885 0.07293525470714536 0.47860982503210475
Ni 0.278271024840639 4.897974681659453 10.534130004009599 -1.2210837399768648 -0.7468609882688622 -0.6728872649948734
Ni 8.613243573280194 2.210225351869238 5.7721590098962885 1.219906431839312 1.3787864661393932 0.2575026664710017
Ni 3.5205065493730174 2.5029036775927094 11.19233081716821 0.5493676124719571 -0.6695438024439372 0.8000216314522415
Ni 0.8806011699978513 3.2718369349784444 12.481788778489756 1.2614965965762728 0.6592907572573614 0.45544032889417696
Ni 3.2982149679273824 8.4315252136488 8.000043140455501 0.8405931251167007 -0.8752731929973893 -1.1229565593851243
Ni 5.451732081264471 8.02193146903344 3.6741046568345848 0.6958837258900468 0.030526964944263553 0.3230724819520113
Ni 3.040245057379678 8.42748239485319 3.5105227811634094 0.12417296983619905 0.17290668759647643 0.662601309687833
Ni 3.195757611768673 4.188079269152216 8.965216272518747 1.2228685997914295 -0.45796026710255316 0.36227769139656313
Ni 7.1345055495485585 5.945173525116146 11.753962648808535 -0.08452810175106733 0.15457909293188216 -0.6558557634338834
Ni 0.6740720495470294 0.1003135744430994 0.4336974653763643 -0.409596788197501 -0.33007076764671545 0.16794522982614302
Ni 4.532670651473133 0.3726563403323276 1.6131191449898516 1.1196583482498266 0.7366028008759637 -0.16366511439355041
Ni 5.633087856250518 5.428780473214055 0.579327775256448 1.0538795020818044 0.06676846377480114 -0.50438950509937
Ni 8.13381602597115 8.828473818757711 11.401100710727272 -0.21222811090391838 0.17025665156813904 0.21034914871365065
Ni 9.222159162058507 4.788700734168234 5.561425720482678 -0.6446647798140704 0.5168035624930067 0.6128270664781833
Ni 7.884539082295622 8.915231259772929 2.6400495067716916 0.7301058802977104 -0.3085105249774364 0.1274171878051096
P 8.56327034453535 1.5728196745828458 3.7173818536414966 -0.2181393341820308 0.9302860588981591 -0.5453489782308673
P 1.7471050489846414 3.27311504585329 1.4855700249115706 -0.35553677312830384 -0.44887938784720754 0.7465480850141336
P 4.774423963757727 1.4446097439884213 8.229164003696233 -0.05023884155089413 -2.5633867664782435 0.21655270642120125
P 8.575380671689913 1.6509566656549566 12.679440013899278 -0.5254686943671725 -0.7842821092297977 -0.7208740772867972
P 6.366351849150319 8.029826749685855 1.4401309171567822 -1.5799112680412983 -1.5352393790552206 0.4655455356489789
P 1.8365637456076884 3.3098901935075307 5.876158257259332 -0.6333259577624835 0.2638203811589134 0.20339842842743036
P 7.058797875600267 4.1829215025721656 6.0982350073026 0.009977165817369914 0.35866272035179525 -0.16999568459726852
P 2.2845552041652137 8.404820854519052 9.817978193446914 -0.558021174381897 0.37462490010800636 2.4424775549949804
