# total energy = -340890.0416669003 ev
CRYSTAL
PRIMVEC
9.08508959170833 0.00000000000000 0.00000000000000

0.00000000000000 9.08508959170833 0.00000000000000

0.00000000000000 0.00000000000000 13.29694695239677

PRIMCOORD
 96 1
Ni 6.480203532549714 2.088389516622812 11.439549460075138 -0.9142773421747286 -0.18916377288528713 -0.3869571964211142
Ni 4.408657771805523 0.40736541826640543 6.044831508972076 0.419903826550464 -1.0786852482715745 0.0745635343391877
Ni 2.698707657083452 1.5770534259451172 5.0003569299049735 -0.4433273476807269 -0.060285427153618766 -1.0843514454184164
Ni 3.1322844669816865 4.380212356672858 4.594906648498985 0.8883117713489023 -0.6494341761782557 1.6195674489803398
Ni 5.196335028912575 4.36505842743578 2.9316439000577375 -0.5968551165299592 0.8579508996688578 -0.16844273828785183
Ni 7.407945614026079 6.018144967160931 2.5007435575175623 -0.9768510511418917 -0.18872899934071366 0.09678943561692363
Ni 5.306764291428563 4.806811817857617 11.405695691180581 -0.4761451655416961 0.42626910664685946 0.11526641137518857
Ni 5.455641652584425 7.929048175884743 12.602567195064484 1.1123047360982328 -0.29312298677777254 0.0126174316536944
Ni 1.7063433342022158 6.695638259167701 0.4009667897522129 -0.2749080064316427 0.1460412306642001 -0.3115220581102506
Ni 2.746486142609703 1.468123203191789 0.6726327691399624 0.7923872548354354 0.29224238394503216 -0.5472197128910189
Ni 0.1318918778814983 0.1182606096397057 4.808401708514984 2.498297233067762 -0.6014797597861641 0.36288267197041374
Ni 8.67774131407315 2.2447984169498594 1.3486560936703786 0.29609106826716103 0.7245936922302295 -0.2435616309098773
Ni 6.988505203344206 0.6077779494446406 4.664249502392818 -1.1881239972213926 1.0308938398199086 0.19038736087974306
Ni 0.8132036329927913 7.401540625949257 2.72068812254879 0.18364104329484504 0.6255031192839551 -0.4431170314421337
Ni 7.5314574053798315 3.7511698468131676 3.8024615364377263 0.5663620901474247 0.6025704217471816 0.10531264259658636
Ni 7.466926014869665 4.0905342789005585 12.365841561271983 1.1507463279038828 -1.2816352763076766 2.024175525713998
Ni 7.848608793711435 0.16965950332001872 6.82385976090305 0.5417743735057315 -1.212098505759119 1.1989596543843155
Ni 6.938137467318814 0.6641854529501338 0.2773241731100825 -0.10223220389904975 -0.24161787691994518 0.08151014086034994
Ni 2.008395303833567 6.474016586620188 9.062693816615415 -1.1492838844257434 0.6848722052708914 1.4984481783688002
Ni 9.139509156598873 4.803977269942768 1.443343621660538 0.1707942692391639 -1.174074718217178 -1.0544754837945904
Ni 6.129028484150454 2.0394663098232564 6.985644308669892 0.16437499597638144 -1.1407264817740355 0.9983652710645838
Ni 3.045267480031613 4.5428536283767835 0.26209211210355793 1.010676484331769 -1.7828291572878845 1.7619944799307203
Ni 6.38041290980388 5.753650757401328 4.899911272208303 -1.5910464587225113 -0.9500161903372348 0.5063677118716635
Ni 5.111671080135405 2.87643017730869 9.144204330837313 1.272350251461325 -0.8048748457794849 0.35450216121620237
P 0.18434645895830315 5.431593420755563 12.638455115491524 1.0114172191525355 0.21813676307886948 -0.5027162311620051
P 3.8744817661985653 6.274008341923397 12.7579949057287 1.1537722592144 1.2347877198265187 -0.544546794044546
P 2.5651568418646096 8.584528296104082 1.6324524845193662 -0.9349621242175897 -0.32066644361368 -0.3829524461370953
P 6.510656752455399 7.8955423659169135 5.821536362944065 -1.288825623408529 -0.818879644699009 -0.5018065748635422
P 4.680910647973078 1.2098068542722415 12.64559599581547 0.4967463867318155 -0.8694429594688573 0.2726441500981304
P 3.999165534094035 6.178623987570838 8.210000025220465 1.1833234905089556 0.7740840856508734 -0.8551998192862819
P 4.99803478103627 0.8978085286884016 3.9782998091067476 -1.3266480935729412 0.2072183163941528 -1.271896451753358
P 0.14576480950321072 5.40482874717497 3.5256052454353837 0.3278735028850805 0.6672123260972832 1.3088851131625652
Ni 1.5115771861300018 0.9406156532563025 2.8838681400583273 -0.03185879638180965 0.6878413152015445 -0.4574810134732895
Ni 1.6271576943758599 6.505133018057231 4.8733446535781715 1.076953096071816 -0.42627116352938843 0.12046286797446351
Ni 6.125285427288537 5.806744020267922 9.069196015149572 -0.21161156036584203 -1.5072881452579332 0.9932284640586508
Ni 8.576560672638305 2.1702007473061915 10.097780772732474 1.4121668413720518 1.993248497117838 1.6500244799186163
Ni 2.161833379903705 5.14959224358598 7.077100270335334 0.6063026350961042 -0.35456978122934424 -1.323614963173572
Ni 0.7592209398670198 0.1453014699402066 9.118314551372748 0.3649128150265651 -0.8963729510904822 0.9687739305607121
Ni 1.5031916485485737 1.0640456788048192 11.36915546132955 0.14565942184474914 1.0450441631783616 -0.03235373374035719
Ni 3.7287478459995547 6.720458723601571 1.6678489016060416 1.6423988450525584 0.9167047206692988 0.4842731939654692
Ni 5.806035383289209 7.903010309461804 8.329127352395671 -1.3932748895635552 1.468000403401904 -0.6459788706398036
Ni 5.398496439813914 2.8499380564122174 4.81768303591822 -1.2946733404385575 0.09168271051797759 -0.2056995657567812
Ni 0.6182121747017045 7.4387985778684715 6.978064618524512 0.5207738599946644 0.5963977172775664 0.38810390843104775
Ni 4.915669359895181 4.546215111480931 6.943000715712464 -0.17311443273190832 0.4207762018530882 0.2355883828964136
Ni 8.238032068782214 7.570423354119533 9.097146292906087 -0.036596053956478906 -0.6941171209079272 1.170859296603674
Ni 4.669763243192567 0.5150546177980401 10.448301694689848 -0.04587927903061777 -0.9491504999028297 0.25394837346084004
Ni 8.328474134462729 6.928116613632665 4.768470923273497 0.5206694732063162 1.3620732671497704 -0.18908098336349372
Ni 7.49819689282771 6.621740141413276 7.165405522972348 -0.5558781598969652 -1.7144020748637379 -0.7487936865152007
Ni 2.244689395876211 5.300977089435747 2.646983517200089 -0.45842846498822337 -0.5756388874636602 -0.13284915745395828
Ni 2.487197689116794 5.235909678646811 11.487923927470666 -1.4762505592258381 -0.12534873531185511 -1.6181980794366388
Ni 0.9896933065768595 3.4360171781651108 3.8581622199824017 0.15712165684807777 -0.7775890134803383 0.008432961258701606
Ni 3.752114696118117 2.475150860478686 2.920754511818193 -0.8875967475597487 -0.343380340271428 -0.33997954211999515
Ni 1.2073175397572782 3.3432493295801042 8.432724627629716 -0.6353206195950091 -0.25660458013676457 -0.8964374857798304
Ni 3.454568930864218 2.6633030634162527 7.145938901763544 0.646075544118668 -0.13504847909812226 0.3440107747665753
Ni 4.238239663514704 6.869136212789079 6.047531597562759 0.17899505988240139 0.060043229235825626 -0.9257470333772251
Ni 0.8437413442305528 7.092638498857021 11.232595664478021 0.45623428555038203 0.6686814544436419 -0.03616616550791191
P 0.18047257680800963 5.5305754705385075 8.033669340702133 0.35755354644801646 0.5329963702027853 0.9615239338665184
P 8.639275045254337 1.6688219146883505 8.049040403577559 0.29821659925059607 0.6103143273586585 -0.6242160250414153
P 1.9384673701778232 3.3009582380941374 10.515026225798232 -0.6695720845787114 -0.01664737874869391 0.6602063270930952
P 4.291905287017949 6.104253445163938 3.8649433307633094 -0.24910852887003548 0.4574097939157219 -0.03625024058128595
P 6.964565992588991 4.066022707508692 10.256081188687315 -0.542749335824491 -0.3787265809812058 0.05835607134138982
P 6.517261612500576 7.909442552807039 10.53334903424268 -0.2543196407573297 -0.1645904544212972 -0.35872416971734994
P 2.184482507954084 8.381721843850324 5.7829619815605495 0.6613977762980351 0.9225172135860177 -0.9079629699209266
P 6.815225291870125 3.918871513352257 1.622547011469495 1.0159220490014245 0.07861070782536785 -1.261315848024034
Ni 5.003013410066196 2.814869611055433 0.7883404686384099 -0.4532371505952711 0.6767380061995313 -1.2784856749351012
Ni 1.5713843301154196 0.9603757228550087 7.128413764174623 -0.5616284321171812 0.7543956060830104 -0.9322074442905881
Ni 7.04717671114579 0.7826550196476648 9.264887025329902 -2.082971255695967 -1.1233638221258717 -0.44291597117492104
Ni 2.781545502877017 1.7290469727894189 9.373044106969274 0.8023453944894117 -1.2590157391359478 -0.7397999676570227
Ni 6.30674191928622 1.9567465701928102 2.5090673164905897 1.1450749885507183 -0.6125352462693774 0.6537348604361386
Ni 4.206014851162239 6.873724182971767 10.531899962472108 0.058897031446524375 0.7833922504256766 -0.23780544515239047
Ni 8.371065033901228 7.319693054907994 0.052046660559571786 -1.0165136598388365 0.3157268402202175 1.029179171121647
Ni 7.666280133124567 3.8245773697361773 8.265381822124718 0.2614760492964529 -0.3079783066230502 -1.2166452445895368
Ni 3.08565978781821 8.454684197389271 12.540284364198309 -0.012030705912288957 0.12865440264632036 0.1889614270664939
Ni 0.11375258824435945 4.740854068300556 10.104975255084298 0.8413842535594283 -0.18683358209021372 0.38952418581734205
Ni 8.356229082795625 2.286271850383466 5.73232714390472 0.9549804763210457 1.0038782304630132 0.7074894284497751
Ni 3.8722286640098393 2.9323852433585436 11.473815692031662 -0.3207075812642606 -0.48659952810580065 0.4251121102242808
Ni 1.1997496602282105 3.085069257002617 12.773325994210454 -0.7282487724843135 0.7192352561317936 -0.30415147667779235
Ni 3.1029668832598354 8.16742275341617 7.782835471470628 0.3240016786345001 0.9394420143658143 1.0283677309639452
Ni 5.880660308201288 7.905863027555594 3.584936330732538 -0.4867846475334133 -0.9159768413643385 0.25700361534739613
Ni 3.4491087920923458 8.417871414854119 3.751640454447748 -0.8452967012399571 -0.60534258517568 0.37287757839959657
Ni 3.512095717392498 4.496183523765954 9.29731806921335 -0.33008259472125734 -0.8063421743536308 0.612022568299017
Ni 7.710351902146786 6.0730552479216575 11.289107646512425 -1.9267083473037592 1.9538890214836093 -0.7836290490268311
Ni 0.6998280759614646 0.25132083002713207 0.10851957670925379 -0.23249611712433507 -0.61308829055937 1.2153149558138876
Ni 4.875168031034935 0.08041212690489628 1.5238565930585588 -0.789087243927925 0.08292836136411524 0.1571453109971616
Ni 5.700166835687496 5.43384652294429 0.4797108942302942 0.22366257799310513 0.4460000094168835 0.16061964269900725
Ni 8.38055895239808 8.913317684047612 11.380657184599416 -0.8982837949599497 0.12963245028887352 -0.3237962474919133
Ni -0.18787965025344655 4.805921479089491 6.029740266852347 -0.10521159824234783 -0.8829857311502987 -0.792444590435932
Ni 8.19250668544469 9.10580347466269 2.509279907584203 -0.49540427088162425 -1.5831300320889121 -1.076868249667494
P 8.528991144169877 1.8092319724575485 3.4965120634234585 0.3143998938786779 0.058576929102944285 1.03524774591323
P 1.933079912121716 3.282515506468678 1.6637542517816108 -0.21198308477264782 -0.6697559184547434 0.7546432033174423
P 4.725645628526656 0.7684750120018439 8.168832759302019 0.049350782518985975 1.4319653641552177 0.9303693626405848
P 8.432507493991368 1.8189621032806358 12.372728967599697 0.3987727009988035 -0.41429290812158975 0.6588212738201105
P 6.640037511607204 7.751189379317444 1.5756352434787457 -0.21069136254441778 0.88312842737575 -2.36862878733463
P 1.602409910657756 3.0412609555750483 6.127831069358219 -0.36769449153676026 1.0823344149883876 -0.5972055578908424
P 6.74079115383693 3.825449538325362 6.1204648788154 1.590789862627015 2.160075039958506 -0.48786965306747593
P 2.5256367026671973 8.53756746863019 10.362297695215755 -0.012858858240539145 -0.5139604366172568 -0.8353961542967935
