# total energy = -340875.6086927065 ev
CRYSTAL
PRIMVEC
9.21688573153661 0.00000000000000 0.00000000000000

0.00000000000000 9.21688573153661 0.00000000000000

0.00000000000000 0.00000000000000 13.48984392519155

PRIMCOORD
 96 1
Ni 1.0301805446524532 9.031266953536226 11.694939581141986 -0.5340968023558156 0.28061559833938127 0.35689868647283696
Ni 2.898526251731697 6.532265051314241 4.641315853457374 -1.1170803031100052 0.23039758272409352 0.9893278434526639
Ni 4.816302117447538 6.302580256754478 7.012465724068777 -0.6026907493751298 0.4647508076618254 0.2675327970134941
Ni 1.8149338537697006 3.687805051785094 10.172205893363046 1.1161917298574646 2.274717958817082 1.382831068522412
Ni 4.304248808998015 4.283722804283545 8.640690356777665 -0.03514929420762334 1.2786216862923334 0.14610756512576126
Ni 5.295985722907741 2.210236869575223 1.855919501620758 -0.2642980921262803 0.39036030856539217 -0.466853455827125
Ni 6.993828259258211 4.570838014369064 9.663180331904409 -1.0360283328329964 0.9592742186003932 -0.6682901325424943
Ni 7.470083183194488 2.344462377728265 9.542513784476762 0.9678241650529331 0.333317042498155 0.9635697606519534
Ni 1.8773137369791897 6.0974768966686685 0.7934743264772972 1.2121278163351576 -0.8162756314172588 -0.5164592917797105
Ni 8.746179458330449 0.691357683444955 13.471026104570175 -0.12925758344795804 -1.3065258689017694 -0.19679840661240947
Ni 7.436920828024904 9.099886668443828 3.7784780093870425 1.5450566222559585 -1.0980564537093347 -0.17196206429501998
Ni 0.4193056298501668 2.300313494664812 11.630174367883056 0.12709554279963273 0.008358656377340443 -0.0014542159480233018
Ni 6.779203856123435 7.160119313168614 8.435928021467083 0.3276937827741066 0.34113782409415444 -0.9113653107342562
Ni 4.545675916088641 5.2011808353940285 -0.5758710258464654 -0.5385916049023757 0.21913897909113872 0.9263419866487466
Ni 3.284732201235836 2.7103543108917254 12.714798135367976 0.31872886027133496 -0.4257679986407248 0.023255370983514784
Ni 8.412611143727224 0.2851133024860658 9.034350923530596 1.0748141953519423 -1.0944067727718894 0.1664051390325328
Ni 8.146344529359771 2.421156084611563 3.347315777621881 -0.982887744254275 -0.40905351409952134 1.4014538258299218
Ni 1.2246660522770734 2.549132544180676 3.14453691613912 0.9370930545176634 0.6276353351356093 0.005801180062809364
Ni -0.2247168931043962 6.921604741996161 12.72391732219532 1.8948482653703687 -0.8535077762958397 1.6633613062368384
Ni 5.081333669115514 3.9147800819146563 11.124642927837645 0.15076177606832103 -0.3425591299217133 -1.4705900185059513
Ni 5.41151016973808 0.7563496320949833 4.075403672736182 -0.9462104434378993 1.4934270710051247 1.1607276074863104
Ni 6.008460213448035 6.716169574020939 4.990189728648316 -0.673086268379557 -1.440769592710409 -1.008476905577289
Ni 8.290109514333412 7.040281363775916 5.921407648595006 -2.20408435565992 0.7742303814207505 0.2827943511582549
Ni -0.017095479813380665 4.744050949528037 1.938017990347147 0.2051210675454919 -1.4289317195352165 -1.2668756014999987
P 1.4035012877844193 8.177700374909222 0.47516733140987005 -1.099634339719416 1.0533022894220956 0.3178965941780267
P 9.368687926410958 3.3403468902556437 5.142153133556183 -0.1937393080711115 -2.6873933859399073 -1.2966507758799024
P 5.422247841714891 2.9086279585871346 13.108917703034594 -0.5567839595406863 0.5797307981448467 0.3019788945065057
P 2.200310283550309 1.3928373508941447 10.783470682435393 1.501371522663182 0.26395459274393246 -0.4809006779488105
P 4.8852352064729185 8.631281759735666 11.939186133604032 0.651502114450878 -0.7206604186140944 0.6764783247802414
P 8.102850045189324 9.17303187428758 6.869096143496684 -0.7849817063999835 -0.17010135693719736 -0.8701680105603402
P 7.94850407529776 0.798327938548532 11.221094872846855 0.3587390821156854 -0.2652468291927948 0.7299143331121944
P 2.9705469975057737 1.672606702983511 1.855878947323163 0.006927066137136457 -0.21372886381916098 0.8920434704771927
Ni 7.705786604192753 6.501121194138581 3.4733115284289195 -1.6269488290460754 0.9782505025925798 -1.4512753773377391
Ni 7.982892276281006 7.789328457238086 1.3640926490966516 -0.5405006489996304 1.1762125904957872 0.7401000153959448
Ni 5.037571895256375 7.251854977705263 0.6722851816238267 -0.5529059646425187 -0.5412151585681517 -1.3873076162365268
Ni 2.8666542605764946 6.5224398510333135 8.478825251436588 -0.5004626592411381 -0.9502527318280731 0.9516897213849158
Ni 6.24087320620963 0.8653817045558243 12.943424831435944 0.10221240640470784 -0.1093706147160439 0.33468101272521716
Ni 5.394016520457405 8.556836972991716 6.123485105067093 0.36795777250047595 1.02167566365575 0.9403359869349934
Ni 0.46513567288664187 4.3770990744956215 6.881412668013948 0.6246104322663566 0.9881083692232661 0.5426768307153428
Ni 8.415173437984352 7.480894590257835 10.489338657177386 -1.2909066743072735 0.6363233498279106 -0.15554479927926115
Ni 1.1258979038620491 9.163225107778286 7.331541407413342 -0.2513163351546317 1.8402660592491147 -0.7672156406658142
Ni 4.420870065240577 1.3788645519955653 11.176794832856004 0.2904415832908675 -0.1429636201801409 -1.0635705041173231
Ni 2.902673850349349 7.914844008294058 2.364621550387218 0.577199804192877 -1.2717113323257452 -2.31363391915599
Ni 0.1048319375940319 5.431768884763857 4.379734182150703 2.4912081874314644 -0.9949397903228027 1.0560970785584132
Ni 3.003838389076795 8.047705417346185 6.671172737462321 2.210119763220723 0.48621951905856264 -0.4662998973165001
Ni 3.6081527245545373 2.4688442518287466 3.8963122078031236 0.37156631578734073 -1.024844291191719 -0.5760590057202143
Ni 6.9134017136190264 4.417524335689005 2.417096968097754 -0.5395205444745482 -1.691070342116333 1.5631733864613273
Ni 7.338714909644716 2.934066563442068 12.069336856537378 -0.2805855164323942 0.3589666247454592 -0.27650029061942705
Ni 4.736161295268681 1.6827544942680335 6.154188395100699 1.172198584240388 0.9524574527888757 0.7475310177526933
Ni 5.006271351021826 6.602331817295112 10.100061641319023 -0.7398686161114291 -0.9092626625689566 0.8339666209391187
Ni 6.738068894722142 3.1346997339066305 7.2391356752777964 -0.6112877470155215 0.9402082031078776 1.0742444388914014
Ni 7.783457300972653 2.585732797760002 1.1367378832714286 0.1404719641065387 0.5612142273978981 -1.523170106595512
Ni 2.2606532349942396 4.031659410960096 4.953430022944356 -0.3893030709454715 1.6165841979823001 -0.23405189164722917
Ni 3.0701262318726945 7.731722920881805 12.516538313001291 -0.5359215142693802 -2.37037945147715 -1.0311118693679855
Ni 3.515016093373703 0.38963278765090126 0.16380157305122917 0.4547443312684168 0.5409927581447005 1.3241592657128163
Ni 3.230149803427533 3.8207678465812065 1.4807802669170969 -0.3156265671969274 0.8296057728672616 -0.12076008749990814
P 0.5949628831278093 7.8870919650990565 4.563776036456074 -0.28615812542416524 -0.15847020045617224 -0.44001242437488086
P 3.072329067582958 5.623507760415009 11.205959824646753 1.5194715746980025 0.030878948967043594 -0.9887930539951164
P 9.011155708683521 3.925453235690748 13.182950494982522 0.4029893101833124 0.06647510090409842 0.7618713456347653
P 5.81553235952649 2.9953127696960657 3.9848726551758147 0.5144322340473527 -0.4747950792717049 -0.5271111150666019
P 2.0328855526844154 5.2465924318144115 2.9834404990751815 0.1652507137131154 -0.7962392815916739 -0.7848816904870095
P 2.8668754658361024 0.9070235946770523 6.064898892059883 -1.9138008952134715 -0.11227390440576793 0.07304658347402904
P 6.922646250093482 5.815467841325771 11.514755915239613 -0.41895946035932363 0.18854079458930753 0.2695454565681487
P 0.7501356076771586 7.755613088919482 8.761599308302298 0.33288998226306543 -1.6530236717562563 1.6661846346182465
Ni 1.331268553636552 2.4010909241879435 0.6268717418262802 -1.233702714292456 0.049912311449410815 -0.1678722104963625
Ni 4.881170559827619 4.089403200603631 5.490879538574054 -0.37000642749938856 0.9585985326896072 1.9824755748720504
Ni 8.99125645220461 4.854561410473926 11.109736458405804 -0.5056609156126259 -0.2741017084802634 0.9172114851023881
Ni 4.169792878699547 5.0220414426547215 3.408802544595702 1.1572530186741488 -0.578751464950713 -0.48320052972658073
Ni 6.959154334814639 7.7041275647456935 12.723768930333666 -1.9139212228414202 1.3278477703079972 -1.6952769239985126
Ni 1.7884998252465305 2.1352667203397058 8.696605516275106 -1.769677964617907 -2.1597472243054416 -0.18346260873545178
Ni 3.8131178313530927 0.9357351156856043 8.670691320112015 0.6089544708966544 1.3069040781767942 -1.0013405516428238
Ni 7.374983355334631 4.193139250474021 5.053524481228447 -0.6907703159228813 0.7892942177324084 0.4165624208820568
Ni 1.1403960652521978 6.692454526813785 6.579792844718208 0.9747144644148631 -0.6615083337339703 0.8805953765412512
Ni 9.011690288060908 1.99868168941751 7.18323434110908 -0.06813346244312783 1.0118941587889543 0.31457935687933564
Ni 2.8928394331826053 2.990962399590439 7.000676405420246 0.5742903438555658 -0.6305684496220043 -0.6312767885429386
Ni 6.323050960154046 8.70906305914537 10.25622057265079 -0.3839279226764872 0.9075585353936564 0.4941243757279361
Ni 8.837316025288992 5.860225038853146 8.899654432512305 0.9698962170906136 0.045379713686379906 -1.5591249274235666
Ni 7.10024642290135 1.625148957911753 5.609346937045763 0.8472756793431989 -1.0878280911131073 -0.776978633589849
Ni 1.944154592924109 4.505038666521466 12.598839573215656 -1.4810598076890236 0.2016387654238463 0.08921496570377539
Ni 1.299083188363571 6.810688738074324 11.019287471129207 1.6168454220634865 -0.9968832872024188 -1.1754217191633758
Ni 2.4206675896632617 0.002219426104734777 4.024262860091949 -0.214144868310657 1.4545275657264498 1.7726632724984759
Ni 7.063019421086467 5.693703562797319 0.46618916293552554 0.09936722364642887 -0.6870859250927586 -1.0131054054882358
Ni 6.291354089829367 0.8575316829054812 8.064498583304767 -0.305520589111177 -1.6538261130528935 -0.8327561455707851
Ni 2.7196357149094497 8.466732697244677 9.692264215099966 -0.7745443131167434 0.18375314339267707 1.6164417588671645
Ni 0.30480610072267844 0.870614130634138 4.915321886845367 -0.17723102600344318 0.07215749600085637 0.29839554803062157
Ni 0.4498789617937537 0.36680256148218016 2.4172859142570027 -0.0935480458614905 -0.6349215843843775 -0.6578198291387897
Ni 0.6570091150707229 6.863510710691579 2.523491167837768 -0.23677289012281802 2.5964197856738123 1.1497577387383682
Ni 5.176147773515043 -0.4280801051479554 2.2389502339609386 -0.06050268537074742 -0.20477653972187962 -0.3452749861909795
P 6.552118223364069 5.230094206201973 7.396926917087757 1.1350304598305225 0.24290728515533008 -0.520371225239607
P 4.744576312019606 8.211563213400897 8.53973227629252 0.10598370052168199 -0.8570091045808789 -0.9152672168918238
P 5.320170831291561 2.518237542922076 8.92471883180307 -0.2310480718238989 0.13561412179360516 1.1138278576109786
P 0.018963742568487558 3.7211609615568344 8.880917425334916 -0.30616079379833727 -1.0342506721072835 0.51922142790588
P 3.0356366451454617 5.0787621579725695 6.8734529654223815 -1.051039718640164 0.6392407805850218 -0.8490307143610927
P 4.342157860363356 8.016432523769087 4.246063530523845 0.6168343878653635 0.4600251200513819 -0.2777033097885927
P 6.969504897587136 0.689443336260763 1.8249461568327128 1.6798284506539265 -0.5912853357516655 -0.5677952230495253
P 5.753511934863863 6.1132562051873816 2.3370612184172104 -0.15988816384962143 1.3567174021544959 -0.011872325957553748
