# total energy = -340864.63596325595 ev
CRYSTAL
PRIMVEC
9.30774049480737 0.00000000000000 0.00000000000000
0.00000000000000 9.30774049480737 0.00000000000000
0.00000000000000 0.00000000000000 13.62281905497941
PRIMCOORD
 96 1
Ni 5.821954296606887 4.512634475371114 11.516077019368108 -0.10728673560382168 -1.4529566216949041 -0.7844453742805393
Ni 3.100510663053028 6.362063847944553 11.360014138564381 1.8992314820397294 0.740160179209919 0.0718492207318182
Ni 6.211436687447939 6.034971240012033 5.617451143210161 -0.34267534378460335 0.8059958467578056 0.593349674479862
Ni 0.6008984029228709 5.604478945621077 4.9430532386140795 0.9776339520545034 0.6924507889490978 1.5820540254159141
Ni 3.7171205315211178 0.7532558723323131 12.058810422682786 -0.21514657010229396 -1.164167486405795 1.453588341741632
Ni 6.324330268963322 6.884851694673419 12.344834488301816 0.47029693429103525 1.3474454899342665 0.35936283174261335
Ni 2.4567873472311326 3.952503974751597 7.574763740721378 1.8386575771114142 -0.7875569233263275 2.1312344615777294
Ni 6.61496445832912 6.455159865944127 2.969638250467063 -1.3294179430085944 -0.10097596289444545 -0.6030944125714517
Ni 9.122925761465238 7.344681986338386 12.918165226146588 -2.372487241848772 1.928017553033486 0.22994532567802337
Ni 7.662764701707059 4.736262242663434 4.289784835163854 0.863613497271274 -1.1435557236927145 -0.7205891990565267
Ni 7.886215621934593 5.180101836575624 12.072637070826994 2.02204356697266 0.22580842069151433 0.8538150231236135
Ni 1.1327706041375987 6.29455480789747 10.038314092019547 0.6506549359592343 0.4167940772768886 -1.2755571884343968
Ni 5.433225832726239 6.1991225470946665 0.8695812176785724 -1.4548985759126234 1.7598105849055243 0.30089954539939795
Ni 7.647704777979474 8.096151703316357 6.195112772594146 -1.0906920429244635 -0.48277321238117504 0.6555999386693354
Ni 1.6336014916122161 1.648168105106451 3.7078863224172007 -0.15046095699845058 -0.11925882036403332 -0.07864747460057422
Ni 5.397028030886572 3.8480432059044434 5.110328223325254 -0.046133304022952806 -1.3505842926735643 0.2506367925891038
Ni 7.47106248347878 0.06540269842807567 13.052513148942616 0.893129761562836 0.5215703877540309 0.6860428285402249
Ni 6.733061066645318 4.893088358167817 8.597156645533685 1.135068769267626 0.9447503139526051 0.7596992776841109
Ni 2.876966665422975 3.486753960286417 9.966876254812133 -3.0153090549168327 0.09454846210154684 -0.13568842667496633
Ni 7.376467919298649 3.664429413955072 6.472119499457127 -0.24294430904085257 2.1740744395613913 -1.1773287063781013
Ni 2.089327069826092 8.377003457677404 3.6816077793639916 -2.2862231312432044 -0.024146772449532606 -1.1304148154353821
Ni 5.100287963915521 6.4212424604661775 10.257723591429702 0.6085639203264551 1.0058070720546097 -0.9091011972904278
Ni 3.790977450420001 9.075968211894367 7.151612461067101 0.06956402424206728 -0.9930490010579929 0.6984118916285391
Ni 4.961826019928151 1.8687801645571531 1.739415605891997 2.013927879844061 0.38364278733590057 1.6972121933480127
P 4.453418631888481 7.799206866059765 12.798828826828835 -1.0056849446544485 0.4985528438129349 0.4242618464088435
P 5.4368558514244825 7.9962517271926385 5.068002205303731 0.5846387769694255 -0.12115603738674617 0.8147584234417838
P 5.881179447829772 4.051594177473399 2.995848847016433 0.7367118156500022 -0.177872516242184 -0.005821234667467394
P 5.2389174472274265 8.781862235414607 9.43519113917647 0.3035176997485353 -1.0564884004595612 -0.48507357837957743
P 7.202915794561588 1.9294480155190836 7.405554607585858 -0.046980739624912636 -3.371530769927303 1.323594908568914
P 4.716585679770903 4.262851957970936 9.61008078618773 1.2185702295263918 1.7036967726310916 -1.4339345720664465
P 3.5475335041313705 2.0033235498984703 6.974365163450035 -0.5540848154419683 -0.2978766994126741 -1.071951786202483
P 0.23060391861112448 8.523674828566955 5.220468575274121 1.2911064490229054 1.033802528826271 1.1748000264189769
Ni 3.9092322903204804 0.1980901203631626 4.621813337751959 -0.5672470638555391 1.3993131253378353 0.5054493138224521
Ni 3.042914366374227 5.8846698504242365 0.1194062073696407 -0.5150598403290226 0.8341491692635699 1.2886209635968902
Ni 5.665519106193084 7.199909394460223 7.969621351557908 0.27271716942791097 0.4770399094418237 -0.3647156114140945
Ni 2.775847375326256 7.468251545922705 5.725398591555678 -0.46702340574608603 1.032636276432312 -0.12415934298944423
Ni 3.922616820802723 4.294814737995984 2.0821656944762745 0.4086315960707543 0.692137371473737 -2.3780585652889625
Ni 4.8319551201932915 4.894531057906863 7.500942191235453 -1.4819352683154412 -0.1972180106483313 -1.796436463658674
Ni 8.038704330481588 3.1348189936215576 13.235236190149879 0.8890391364332302 -2.272859822562421 -0.9385243876475514
Ni 8.290860321646003 3.33395809631111 1.8513141899744494 0.2038393726195909 -0.48100017964115227 1.5896724611931203
Ni 0.9019237535058993 5.564101968408305 7.598249961699016 -1.323488979118669 1.4089812445552186 -0.10201674545413399
Ni 3.7191589266362857 2.707128329046426 3.640875246473596 1.4648947678933868 -1.4548137295083008 0.8669340770040747
Ni 4.662126091556995 2.3272608338855933 10.497567303788895 2.113245738309793 -1.4757535649847617 0.9796283567767129
Ni 0.16451989359660923 2.7275122801981024 7.195545925830128 0.03145410474422325 0.7630751361348793 -1.25893192117289
Ni 5.642473141329362 2.2574062432950304 13.300435049066438 -0.9755590718033456 -0.24172483481145463 -1.4223029013647892
Ni 5.754901335832148 9.321515707479927 11.43789572434819 0.7108835417329886 0.13390999461830486 -0.20105023991022794
Ni 1.851141996779789 4.081341715318495 3.3799578794100604 -0.7935920737768138 0.8667872670135652 -1.4511154547211074
Ni 6.45892950074615 9.192622120471519 3.4438350392108483 -0.5353597282286393 -1.3560738550332259 0.07385776652141472
Ni 6.509070297483174 4.316604157925699 0.6736309467993233 -0.35252086912011543 -0.5338893143306999 0.8105731817158426
Ni 1.826997718566342 1.2794698982479065 8.299443919706311 0.99475467089519 0.5751413790019515 -0.8984318905020399
Ni 0.17833258013043937 5.689439998640485 2.5925174694545676 -1.2726369294638082 -1.9238765342819188 0.013272548739190043
Ni 2.3338414062436916 3.3738045323295243 5.500062853927133 -0.10529335932287671 -0.984535307160027 -0.7658958934131261
Ni 3.1466584392219836 0.10698409722944546 9.795297371008479 0.738649141882031 -0.4479239659124738 -0.6719146166689589
Ni 1.189547819674232 0.44765949051157305 1.5042043558561784 -1.3754000661656636 1.1231815309117366 1.5538189418296209
Ni 8.567514285153438 1.3426973777791114 5.392674800770755 -0.4108638278353827 1.1699640384829142 -0.4689424771456698
Ni 5.1063845337805205 1.2535943803476046 8.270045422120663 1.7933480545413372 1.4160633482129807 0.389723960532974
P 1.0787484797155298 3.24855027175961 1.4456130617444485 1.1653383667854447 -1.3873811497869397 0.33173427139206735
P 2.1752468200914463 2.0278029067609857 11.66765822324054 -0.860872187080711 0.5363706859916569 -0.2396129306747744
P 7.693936323810696 0.8942979219175119 1.7526986820054933 -0.5390430906174974 0.6258702728153867 -0.5336594577080809
P 4.600629851712644 4.360788000901501 13.20188748760132 -1.6173367598776083 -0.41672260060900485 1.5676154813930807
P 7.223867517868631 6.411804411850745 10.420434991095366 1.3314316310045133 0.090315912077438 -1.3012000858134816
P 1.7534758783165278 7.714915970338495 8.60832686461 -0.22398576566047876 2.1322361633693667 -0.6657167153883632
P 0.9542202228852645 3.311303056537968 9.000324206867118 -0.856955368524808 0.8942757022418211 1.3449193810783031
P 8.89476512467024 8.937915808478081 11.1957502078247 -1.05698590892127 0.7517625393355375 0.08910903625353041
Ni 1.7103065790281826 8.51818326181833 11.369985520696249 -0.806266841031005 -0.21845249454707538 0.8172068849822764
Ni 9.027009498169335 0.22234329913755693 3.3818650353876762 -0.3819538296692519 -0.08419848632579048 -0.7886480995079772
Ni 5.332236850993047 8.561250175963904 1.2998771187502127 0.30097076495696556 0.9615290760728408 -1.2351890690299954
Ni 0.5509865765960442 4.636706652929036 13.541435713538942 -0.21217051819310556 1.3814228753209759 0.7751215257764522
Ni 0.9543412235085393 7.157224097664977 1.2652318479845643 2.652965800389657 1.321429525486479 -0.20748956777766847
Ni 4.252483135330311 7.722892703734379 3.176950479871815 1.0441530188226598 -1.4580756880890244 -0.3582282039175379
Ni 5.756204419467415 0.835400403151494 5.760258871121145 1.579624590038815 1.021979310939098 1.0605864817883348
Ni 3.0028166213690106 2.2373573707924224 0.5858747793822675 -1.2330614811640312 0.14217480573025837 -0.6665075867207747
Ni 8.766672003323494 7.814313328488611 8.629415411698746 0.2809372433448581 -1.9933636825394638 0.6119829733103331
Ni 9.157913557072156 0.3911112453851366 7.313505710364622 -0.4107450428693313 -0.8830579791491308 1.4687447377670964
Ni 8.109089462266509 8.022304092157727 1.6345750812425657 -0.7844530875900232 -0.05608270192618083 -0.1603144527537626
Ni 2.658998004203814 8.763349140053563 0.37815487095448186 2.591178591879531 -1.1472995070058627 -1.299943073477929
Ni 2.5706023950314525 4.121160228116154 12.205623271224166 0.11172445966020114 -0.24198708733390584 0.838612347241246
Ni 8.446792894086203 7.21478316338277 4.0651583473425035 -0.25746975635053726 -0.04980483933726906 -0.4190129393050784
Ni 8.847398034528284 4.8566857860426085 9.842240958968972 -1.5508192357713484 -0.5717269540037637 -1.0196833158160696
Ni 7.588898475067924 0.4125739636320092 9.37828919992046 -1.5700850259794958 -0.56924403968091 -0.10983932682234633
Ni 3.9261630698386996 5.443650501808375 4.211780387208721 0.24595609928398288 0.4134704122202943 0.5232014955995505
Ni 7.0696196464140275 2.0429931388520983 3.726794065964925 -0.5371150203568492 1.7523896098511047 -0.6272183022028487
Ni 3.301986008545809 6.286633920943098 8.78660918294308 -0.13410616978951098 -0.4357287093978625 -0.5642843816827894
Ni 7.351551098644293 2.804505907561878 9.593638663032735 0.13973791415399162 0.04086562786611027 -0.43545797223497906
Ni 1.8426719531505535 0.5398759270573427 5.996206363410891 -0.09448984094946952 0.38964194234212896 -0.850485187419432
Ni 0.27214715567746145 1.4513745529603788 9.97396037591786 0.37110737387305115 -0.17035641037079693 1.487849319807031
Ni 0.6247541411885088 1.4369196323491669 13.072756553216488 -0.05276777862033493 -0.013760544119202108 -0.5786740747455582
Ni 0.2856703714894573 3.4744677431539 11.485289806936873 0.7558099699320338 -1.198056682954072 -0.6589464865440651
P 8.009859643440926 5.784174178924396 6.865123939209503 0.6678250199806176 1.1584059013316694 0.2909971986840214
P 7.97639831723532 5.977998561930109 0.7488654112554886 -0.44816333561678945 0.12006871785983837 0.3156527924491725
P 2.7637659284792804 6.178124285086364 2.5498098340827173 -1.4544956840472498 0.4792708556548714 -1.3975825157999735
P 6.877517195354916 2.3805104158667536 11.616981300665007 0.281646867817373 -1.0545654724052353 -0.8216502654656107
P 0.1604151801455182 3.5483525852735385 4.866425405442204 -0.47018329153130634 -1.9410461040826699 -0.051575558084446665
P 2.908110364305856 5.510964079310168 6.100529377702316 -0.1095009696463211 -2.0185129281115817 1.379385790286289
P 1.205277900699955 6.231746176677601 12.075143645276833 1.0518568152248207 -1.9450696234197664 1.2516695831835218
P 3.6105748288575374 0.5004483393502641 2.4683866531330594 -1.6712211686008895 -0.5146759746270427 -0.6419934036294943
