# total energy = -381164.9841908722 ev
CRYSTAL
PRIMVEC
9.23293404745521 0.00000000000000 0.00000000000000

0.00000000000000 9.23293404745521 0.00000000000000

0.00000000000000 0.00000000000000 13.51333225773134

PRIMCOORD
 96 1
Ni 3.882771972948301 7.729877121181658 10.7633825730382 -1.2097426039324326 -1.619024431992676 2.1361193004738563
Ni 6.11941334491219 0.23393854634544162 11.48010293771194 1.296128327717529 -0.4319576723912045 0.4286316933417651
Ni 4.597401078031584 0.6023621652854838 3.9727441465956534 0.583066547386299 -0.9933721887253666 0.041009866753458406
Ni 1.0142008872994617 5.867917450941086 11.833030923227417 0.5757394175972665 3.4415485938773376 1.576279327715666
Ni 8.106830124711829 3.877610762744922 4.075431917187718 0.5651814395757621 -0.04311508602191929 -0.35653307560330205
Ni 2.5686484519340413 1.5202118447166364 4.506750283722428 -0.4956534107779528 -0.08485643162476353 -0.5903373700160995
Ni 1.0648250653766147 3.392503168298142 3.8636505662735274 1.6588724172275497 0.945141892964069 -0.8793231946970468
Ni 6.972167145241545 7.360818276370431 12.430292815675074 0.7586309843205966 -1.7670497829664409 -0.6818771271983095
Ni 6.030278598394439 4.014516710679999 3.0744313558771137 0.010330435391730597 0.04458112904448452 0.054564208399125375
Ni 1.3064694185838457 8.533013133258848 5.0996883930963035 -1.3315391031166552 -0.0917385034565775 -0.47918472369896825
Ni 4.2134310445290195 4.094316960747632 7.894813333976196 1.5498311608264663 0.45684877920592937 -0.10519000097579304
Ni 7.846609107946102 3.4984695538154655 1.48349338879925 0.6154927862358045 1.4396506486146174 0.3627127220514528
Ni 1.4616935079205404 6.239764641872921 0.7244483305775478 -0.44688009802899165 0.16021829349553052 0.7248831984461903
Ni 3.9283919007030366 0.7496745533283041 1.8861638071782447 -0.47759243951118396 -0.32911380305008475 -0.005577751198093619
Ni 8.596988134151898 1.5684908575135421 8.574182786741618 2.609551952180396 1.3237090655492751 -0.8644858725738982
Ni 6.878166642413988 0.3574973646382908 8.341968952499917 -1.3163019744519266 -2.6125547435624616 -0.7645535204526187
Ni 7.653529988495176 7.281331946064721 7.2077546936305 -0.1498876009934838 1.50102365240546 -0.8723578191228073
Ni 3.44381981643836 4.128977395637588 4.669842679562379 -2.12334066065195 -0.7054541431873012 2.988868601337117
Ni 3.042418003214901 8.251639464300023 8.60510111341077 -2.400611510888814 1.7009271803057544 -1.764871544368199
Ni 2.4544001244624583 5.352387338390308 6.964203739516295 0.5218274980701593 -0.20604897867639999 0.8245728384290444
Ni 6.103061818489677 2.442120322010769 7.660059519543172 0.06374870311187085 0.8197440495818333 -0.8044745250172725
Ni 0.19698649719344785 6.268654492904002 3.0707289492732586 -1.0253811375317956 0.3959506581689761 0.30649992230531087
Ni 6.053490194908384 0.5962730451975973 5.973379718252497 -0.6113003454210117 0.6268472920166752 2.072339229903418
Ni 0.3814965304372957 4.292464961060194 13.246809195957518 -0.8873584062966976 -2.1469215332956835 0.6033085854647868
P 8.315439039443762 5.914303712232279 13.652654820399022 -0.8082332207287565 1.2769121598003945 -0.0489355493584383
Ni 6.899153101791951 2.4612878933564133 12.924650886870987 1.334406140251805 -1.1063413194259462 1.7659354668563394
P 8.900603941536376 6.947552142733121 5.389548975148056 -0.3996584460378666 -0.036862677354304256 -0.15490485170241708
Ni 6.348999486087913 1.7830919465245336 1.778421928419222 -2.9946728667237204 0.8755804398251631 -1.11835377050579
P 2.464140870016242 7.6464667938519115 12.926678439215642 1.2182534696169212 -0.4751969426958138 -0.8945464394047046
P 6.3107197410016695 3.791412089294566 5.238118698463541 -0.6893112148788516 -0.8352866253021227 0.5673262538329068
P 4.998849055925914 5.996430661711811 6.743382422752143 -0.4523963998615306 0.24977444458880857 0.10770993918416935
Ni 7.938735325136296 2.230298346186212 5.941839091820003 -0.618331027015548 2.1080593090128468 0.4063659399650292
Ni 7.014112365194948 6.074855204587489 3.8831375971416 0.6649302149313258 0.18985205720156337 0.8469997999739929
Ni 8.041664075310306 7.83430160669189 10.313158850488392 1.5760286451574406 0.160951057896497 -0.11111022311496993
Ni 0.6569066472130032 8.71865974069954 12.104865124597458 -0.6616224907143314 -1.4205054431447341 -0.8638706075874025
Ni 4.414256595752101 5.764194668428093 12.539318072284312 -1.6147720844742255 -0.22973578077037854 0.24284892111356887
Ni 6.677239528914991 1.9951632115717939 9.963366369418475 -2.3589041038476988 -1.507054174870256 0.5199624198369626
Ni 4.627749732662188 5.758304056424951 3.9710683690430355 1.3158278630289855 1.5288275619916056 -0.7163211678087922
Ni 8.858317103018528 5.957070663327186 8.768004234100149 -0.6254799793555034 -1.6763042395507517 -0.5837887702643043
Ni 1.3212605791309184 6.964374548798518 9.749234313463532 0.7289828224368607 1.1457447609242333 0.5292096494668435
Ni 8.88975524388169 7.977430552260379 1.0905544830398652 0.6360487560102853 -0.5339638763223772 -1.5307448336189766
Ni 7.345833224205699 8.03323440640926 2.6505316519513746 -1.7119687828318966 -0.22602593601895912 1.234271185201416
Ni 5.035014459086267 8.135618413466993 7.388549394162648 0.8638549238581187 -0.7616672000437592 1.1890894464584554
Ni 4.652078514211213 0.20497667842780282 9.50848093840411 0.9461009144432286 3.4259368554820098 -1.3442526940285817
Ni 1.6290681386304855 0.6879994763380479 6.989460430949826 1.2334975402601853 0.27597141469915054 1.6097239805273569
Ni 1.6849273903844113 1.4339485407270613 12.457698010890942 1.3980975077631794 1.5874469142967114 -0.3798684078951329
Ni 1.7648476685963095 2.942730012936035 6.374089984706309 0.4482281274164538 -0.06469615462680471 -0.8605988788146661
Ni 4.837752820454427 8.00276572363439 13.072203331202337 -2.384638275389009 -0.4907588016898129 -0.08618209241472254
Ni 5.100328235434575 4.093449064935257 0.9748298093938268 0.7297477256273431 -0.4857508069522602 -1.163229805082874
Ni 1.7633980979309594 1.7890102573301976 2.033877827857643 0.9637263408344758 1.496114645139617 1.8661794366807667
Ni 0.1973613543209205 1.9838897989450925 0.5594761093397301 -2.0198766412283278 -0.20866147659858258 -0.9479497947265094
Ni 2.318158947787924 5.5904308472696 3.5275745322128045 -1.0505992886686357 0.35564630212297454 -0.4705432459738864
Ni 7.607780799662002 4.90575338064743 6.681977870733191 0.5048777575896982 -0.780873854879197 -0.8146902892080098
Ni 3.8659034022120333 3.331418075801617 2.7219908692860337 -1.311370341478264 -1.796221262324074 -0.5914992515346845
Ni 3.591131281187763 5.661579838016005 1.62519399945099 0.4798457543217349 0.9521494346301538 -0.13452834492859414
Ni 8.11566604271654 5.308438571721102 11.214687472179808 0.05545175321040127 1.9471951544032013 -1.2980494559996418
P 4.859127063067707 7.703397065970045 2.799625072996399 0.8226560810223058 0.11961414682092303 -0.1944767004577683
Ni 3.6155154603418325 0.015841868456096864 6.030783639893767 -0.23723594580216564 0.8306565827292791 0.07515617361786411
P 8.170712796263135 0.7423159047914647 12.761248264442784 0.23907865543785922 -1.424577813441895 -0.19800605376726546
Ni 5.463902717346326 5.465749304181167 10.433589550683022 0.1063966196893845 -0.8132047058014188 1.8692213088308838
P 0.6622959108904853 8.915810584121289 2.825542842516803 1.0062999525306282 -0.3781018029130133 0.42966604814355036
P 0.3364527377750308 8.898018719967599 9.10637834547683 0.9283983549571431 0.17543588177623334 -0.5010763815657371
P 3.411209092935076 2.726457762839513 0.6145644110901101 -0.08330142843281782 -0.980652170055537 -0.9240321075686473
Ni 3.836339546986236 1.710281027626772 7.8553000688842785 0.44853691690612424 -1.7881593112515464 -1.0008474140564894
Ni 4.97805648816561 1.0056142585174532 -0.04865294663096074 -0.5164222678941881 1.2387140514641182 -0.11084668504093813
Ni 6.590126794981389 1.6133813834685153 3.9973785382658438 0.589330783128456 1.48244871761675 0.6723483617722679
Ni 8.193185758043146 0.9949409866120749 2.453940324340583 2.051698927945247 -0.4524187684590337 -0.08990427846131614
Ni 4.369716921295748 2.432924319573263 5.584735973470952 2.171756590061492 -0.547484022295999 1.128538681458592
Ni 6.498286798750596 4.88791535182287 12.883678818179545 0.9105055338371222 -0.24041717174362465 -0.05614003752667751
Ni 1.0040446597078387 4.264258347158005 10.323564367302719 -0.836454934578611 -1.0427864774924362 -1.6802783937071515
Ni 1.023507684947058 7.380862976462624 7.3118070918935105 -0.30651252071080115 0.5278055700304652 -0.40033567461054925
Ni 8.777085748153894 0.3571585159540976 6.541588336734188 -0.22146505612115408 -1.9483387810893413 1.7687261422275993
Ni 3.048345546954739 7.093792587118317 5.4750487154814245 0.602345193110253 -1.63210080556066 0.777886233005783
Ni 0.7180415975540685 5.021211222495833 5.55533092471295 -0.9678133664196559 0.575940477864479 -0.3750049091552445
Ni 6.636725413758589 8.84665590715651 0.5746070418644132 1.608112670176179 1.311026327875284 1.0136365954013575
Ni 2.1705704950132954 1.023378423868619 9.9905148890643 -1.287090385884977 -0.5038567725243516 -0.8118998709470663
Ni 1.8596976013678927 9.085290323822951 0.8714015574809916 0.20800661662340308 -0.8946996771531172 0.10164830637112171
Ni 6.152088698954694 6.31979571529491 1.4253323665556956 -0.2341529360014677 0.19916793528585053 -0.14406662343633253
Ni 6.424561819369587 5.797793315888017 8.49141322504356 -0.6771874350321241 -0.20419701306932572 -0.987030562778055
Ni 9.044997799086731 1.8452849911219626 10.80646344389503 0.026466421721644744 0.04919445944677979 1.5934275573601784
Ni 2.322166041219528 3.0581786218502645 8.709585612993132 -2.197453994827596 0.8810913423410632 0.2734774446327032
Ni 5.9375337746145735 7.753947380573804 9.652951429308112 0.9118075404779975 -1.4691887672830504 0.16227491891424312
Ni 2.4843702287919203 3.8761888908820947 12.202836712413339 0.9977566909463073 -0.5568528651054088 0.6346948130855522
Ni 7.6878211060181645 8.802051602160937 4.84721842456982 0.3433096349344926 -1.4913370212453154 -1.450441568582534
Ni 5.404147167370888 7.786068758565855 5.132526246780273 0.4101295207725195 -1.126041626068351 -1.2115320917326877
Ni 2.7557723288426064 7.974235957036105 3.3564005490901745 -0.010607857422833345 0.6260242818947476 -1.5090272394362267
Ni 3.8401527488001816 0.6778469419200949 11.490453980214639 -0.7197106531063153 1.2521892031324178 1.8868349081475893
Ni 0.2970844297496482 1.3548776924591903 4.418886912240463 -1.0719646417182893 -0.3134251886702344 0.00970437177195748
P 1.1457609663476749 4.197319574395036 1.744287770777195 -0.18145303450459074 -0.0976057608706319 1.5204568214294072
Ni 3.9129359688954213 6.299907975083678 8.904110609935739 0.01648694191142967 -1.8560282071793777 -0.6946663085431778
P 2.790617422416047 5.54543875903871 10.755464408690404 1.6542318331317447 -0.04638784323592011 -0.6392122413399313
Ni 4.835324558766612 3.0135281521838206 12.34025324160825 -1.744426646250286 1.1076633806714795 -2.1726842440820837
P 7.320848904330307 3.463495199163586 11.210471714435867 0.21510054735570697 0.7995382640579198 -0.811791627503976
P 0.4547303177202361 3.893159023894279 7.7807736708169495 -1.11993705583251 1.0739940134434922 0.6746078472304059
P 4.104279296721597 2.7148704304508886 9.83453000595165 0.9921002639914784 -0.8041557082252732 0.9209524402020591
Ni 7.612341869144059 3.7506302190471135 8.976338930687108 1.4237946554189673 1.5962740256700378 -0.2726348941267498
