# total energy = -340892.4513508621 ev
CRYSTAL
PRIMVEC
9.05550803046854 0.00000000000000 0.00000000000000

0.00000000000000 9.05550803046854 0.00000000000000

0.00000000000000 0.00000000000000 13.25365134737368

PRIMCOORD
 96 1
Ni 6.58560909061745 1.9724616830125616 11.685333389470618 -0.9914970831898409 0.5854664150770433 -1.8225038501696869
Ni 4.633377412332897 0.21380688121378155 6.004527107452231 0.44600515162320603 0.05569549379009117 -0.1555903078052159
Ni 3.1381772195553195 1.7368102000058638 4.703376488674663 -0.9622129895137428 0.43571713943363666 1.574168194909934
Ni 3.3158643962665915 4.29305331309923 5.033789334472876 -0.18511197141341668 -0.5887399436219926 0.5281680955762066
Ni 4.976671718169423 4.279307052053072 2.320277403961305 -0.25467111055947755 1.6172861091453308 0.6808854527090016
Ni 7.429555263686474 6.13507040430026 2.603971073218452 -0.6191663784326499 -0.326036963896974 0.3688574014966099
Ni 4.838312612422224 4.402452904468554 11.217877203228241 0.7017522688556818 0.6079152309988628 0.9457728416798484
Ni 5.611055326594055 7.873700761401168 12.353409826271035 -0.7147139712226723 0.4628903574143189 0.7919907907279651
Ni 2.0460829625285455 6.380221115131345 0.30651626590710174 -1.1635943875111443 -0.49108070380560587 0.9308545298071194
Ni 2.729339147281316 1.3064743518928759 0.3900786820347275 0.6319481035783504 0.7001206467895297 0.15640997549303384
Ni 0.5904843170546955 0.17013216644064616 4.619798678183547 0.08451987422095121 -0.21823189389583705 0.6436684773390721
Ni 8.722355798596675 2.415103966409956 1.4008979442383946 -0.3097135441466021 0.2758248618189572 -0.19698969668760913
Ni 7.005784658826756 0.6414595823254675 4.747802810606449 -0.9405427036291608 0.5729173747674391 0.3019917500223122
Ni 0.6291766913616937 7.173211945047055 2.6139248875412036 1.4464609866682314 1.1338588081199246 -0.33380606631943155
Ni 7.798395157409173 3.724023305445429 3.798231381875636 0.38878936453384655 0.5159101041444599 -0.013372821762480195
Ni 7.593088681494487 3.9407940544065143 12.714624982312003 1.0688006421680107 0.04475802094198098 0.12806227758827624
Ni 8.17518578709928 8.971056268538495 6.961784851318735 -1.625931957745787 -1.5511791902139285 -0.5584896293778834
Ni 6.974036048004734 0.7225453170327216 0.3804345660833716 -0.8689464794484132 -1.2611482120979185 1.165476692135522
Ni 2.0417000966877414 6.487021775723168 9.542350153176184 -2.724405187277566 -0.20542754304231717 -1.5425438831364335
Ni 0.1084071076995881 4.902054332780528 1.4738328162528642 0.521758849615753 -0.5886494407907152 -0.141996114060549
Ni 6.075675327751018 2.1228917808378416 6.983812374371949 0.19566506433891465 0.2591304318824118 -0.8426494934250971
Ni 3.270052581620667 4.018780088747431 0.44921567660780665 0.3045176017679594 0.613314290527247 -0.07086217422820054
Ni 6.35557202253079 5.841617614140977 4.801347123478535 -0.6346104809018619 -1.8242241752949033 -0.0719140125314826
Ni 5.371691085333783 3.083119731307204 9.328913642236964 -0.7772462854289388 0.012968644345526052 -0.04018454263868563
P 0.21520776829141042 5.578908273422869 12.417942092472112 -0.17650700335322506 0.341050920807303 0.5044866927988666
P 3.9929085025755784 5.872723283899575 12.569577478403613 0.4994553010225463 1.240433091037754 0.4433522873813913
P 2.486769256211862 8.261837942534516 1.4672585174916584 -0.206684812488186 0.014080132242149946 -0.20697688980730802
P 6.442197011442218 7.908482967381599 5.844740858827946 0.07222305913146917 -1.1558031736014998 0.6235686212654035
P 4.820319318154296 1.108493781898047 12.790966536411826 0.01842452525377472 -0.03938492955552572 -0.22828644991836167
P 3.6847314565130973 6.264048003826233 8.115979065115098 2.1523586451508545 0.1885950448660107 -0.4153876838476652
P 4.977115438058264 1.1405683910057487 3.855274743014017 0.8827347914817573 -0.41081600531658286 -0.6754519403982561
P 0.5621767992481805 5.353788346145211 3.6954097114706923 -0.33421872837681793 0.06765626569639314 0.11122180899216974
Ni 1.3439822657619047 0.8907223993100836 2.488412830902164 0.3431219444037188 0.32825351193231855 -0.5673509364232552
Ni 2.2371904020002953 6.641535907627378 4.685549815752749 -0.18403776451263143 -0.12296995066703338 -0.5440438862661985
Ni 5.929166264861829 5.648499851907535 9.376931378615987 -0.9558196843928893 0.2783831094644367 -1.4670848335661704
Ni 8.565795121899033 2.42804428724985 10.280989824462749 0.5019104474312582 -0.26229186032952895 -0.060197495425502776
Ni 2.0946567070948108 5.229039668825138 7.094718802261747 0.8769780915036379 -0.10922946115248929 -0.5613111579870783
Ni 0.4431828972211463 8.968837669094286 9.228954417890446 -0.30162125405677087 -0.04817707392585896 0.16811106598004594
Ni 1.5005701089833556 1.2997279984808943 11.53853636142908 -1.3911537294554945 -1.3294886483455295 -0.6383164689985393
Ni 4.24416262575522 6.807958032466831 1.6384293506925116 0.08158598840360788 0.20915435707460106 0.16472003802062601
Ni 5.591830483246892 7.812168584979137 8.007551129747258 -0.26483905223141485 0.20348533171428182 -0.18636615553549193
Ni 5.426848184169191 3.2250014296413285 4.481788209491866 0.12205875170667366 -0.2720851922708669 0.9599002822201662
Ni 1.1345736447524177 7.482511874093543 6.532088322065996 -1.8584468439231994 -0.8948724552855557 1.5669642209623271
Ni 4.999835707468548 4.376472652201474 7.031326624509755 0.4341374536513426 1.187415144079826 0.09706865742023929
Ni 8.016325011386009 6.960706340323611 9.488805840304096 0.2830941417868608 1.1807606148777856 -0.9136852171166844
Ni 4.5363204782797215 0.5756133619229428 10.629361553598734 -0.14041385717509366 -0.36530542247929343 -0.09356270114950983
Ni 8.287573696087335 7.204960555869077 4.795806963723568 0.6292769845040904 0.3256428137823489 -0.09066403944547612
Ni 7.344877208981189 6.139516658696613 7.042261150341926 0.13663947773432597 0.13457719588865855 0.6778204406304327
Ni 2.5736115773137422 5.37179975142901 2.60191728401867 -1.4763989118782446 -1.444104570620913 -0.3450587564151154
Ni 2.2477672352690123 5.05741968243068 11.502167630458342 0.058175322789151426 0.4255697665869896 -0.5434026531377738
Ni 1.1701346244153044 2.921189138403781 3.953723508636886 -0.5126712854921881 0.6354136935294477 -1.18988674554877
Ni 3.64866336840582 2.363578126256703 2.4204349439316113 0.15446133640709528 -0.12656460999682717 0.20296751153759884
Ni 0.8766691565449106 3.260480909732796 8.02674246771506 -0.35299832297716627 0.06201218003673836 0.9069093318454317
Ni 3.3836448731641484 2.727355991043432 7.268593610132155 -0.11331494407577258 -0.6720040910589717 -0.30434302386330814
Ni 4.374498551471525 6.663088016513977 5.940260167633666 -0.3163711586724358 0.4355675012296498 0.7933138804147628
Ni 0.6656151497435349 7.631945866045913 11.461677737826138 0.9860412022815921 -1.2775721619818965 0.006568397246137074
P 0.3157085120124738 5.80016149881205 8.092387655841415 -1.181129053960798 0.276248322509621 -0.15288190773511734
P 8.418679339978162 1.6269849997635693 8.135197569606706 0.003664336225464657 0.5894480254326105 0.25098543417777414
P 1.67174637548897 3.4567862107595486 10.140408497068169 0.39706574561002583 -1.5004587810409253 0.7879040222531011
P 4.217666209535815 5.805830246779701 3.845188718275407 1.5427331163291043 1.0975296346715873 -0.1614231124369091
P 7.020898301571181 4.177840085635286 10.547030686550343 -1.4891194447687064 -1.3948820861496751 0.2508987880012389
P 6.127889386507373 7.982656632881651 10.17576935000568 1.0024211863015122 -0.22883383778139946 0.3476879665078464
P 2.518065091637107 8.743545687165852 5.597851490473236 0.6890276222001617 0.13398815615440796 -0.3166213270100289
P 7.008166257413805 4.107895342341133 1.6997016340367923 0.33394927676551517 0.4265267311836203 -0.8618854588365736
Ni 5.437225796263325 3.11327457273257 0.29757214071916355 -0.09204497895340276 -0.48903256302732556 -0.5915499022669619
Ni 1.2279178205520194 0.8669525965300705 7.0098161709596605 1.0904105071283026 1.6018201522992477 -0.041662926956425025
Ni 6.532969422988124 1.1593766809878765 9.071064392627864 1.236118008602168 -2.313842692732686 1.5659735749142836
Ni 2.4142708596798856 1.504989196855902 9.278761522637533 0.6633533573625092 -0.10548747761155382 -0.25811047525832964
Ni 6.3615848797999925 2.0948106507297153 2.328414683392186 0.08068198853209976 -0.646597478060409 1.1569290596758266
Ni 4.100460770326051 7.07932443877132 10.220221932910478 1.1738556602278363 0.26222449742670323 0.9229316754156168
Ni 8.41134437855037 7.192980118870351 0.5152475349230101 -0.6490662513158756 -0.4442768560781896 -1.0203970540536427
Ni 7.503439152932589 3.9317023244392266 8.420760295701749 0.4919769903676301 -0.426704137301749 -1.2091013708040081
Ni 3.11593689206562 8.10145584148807 12.444529063770872 0.47194886807216135 0.9820230822611346 -0.6822000577553671
Ni -0.019913061950264314 4.893198046019565 10.175887977159634 1.0152399353327355 0.41405713796169974 0.5105223574699853
Ni 8.517583597650189 2.345304111242772 5.892427163616528 -0.08233726474733562 0.27755727112903167 0.15932894891204172
Ni 3.367761512245202 2.565678952362205 11.612424778429162 0.6370106057029222 0.7920224152968488 -0.22539241620001832
Ni 1.0797063221709482 3.4284877484609693 12.772556688778863 -0.8458435748823627 -0.5463136561369818 0.014659658894703786
Ni 3.0675714241818723 8.473510440527889 7.820078571160837 -0.09164440108087443 -0.4627072948692354 0.7139318416410091
Ni 5.643582711098534 7.844659747451875 3.6591740964666077 -0.4173370942645522 0.23378346847719095 -0.382815920559231
Ni 3.240196571957174 8.724891340818628 3.457095909130944 -0.10142564883735435 -0.6729052627170024 0.6248148349676788
Ni 3.390545170211034 4.398758257230852 9.19583389761619 0.12302625782626556 -0.13406091837387232 -0.01756474835664072
Ni 7.047793160139751 6.112078469651911 11.511472164862115 1.1680935609330787 0.3330560755272845 0.6506515935251246
Ni 0.7785264670902632 9.047321756371657 0.27014119608080944 -0.7177555862624736 -0.4762721780378636 -0.09209537257536397
Ni 4.656061459711438 0.1588109704196273 1.55559409185211 0.8280381712698256 0.19723806525298934 -0.19659811767614527
Ni 5.968440002778289 5.738131269453563 0.379161361667634 0.3171064941765636 -0.5651297604022203 0.002742595742143664
Ni 7.791431471806738 8.767044730258593 11.531498420661572 -0.5820800151033136 0.36422890158566307 -0.8884560102362505
Ni 0.09923116150849995 4.892853936718014 5.779572895969793 -0.672936373065254 -0.10093971033987133 0.010687304510517078
Ni 7.932353286299696 8.85151450828136 2.5395855062459303 0.20549053506976872 -1.3170308821981513 -0.3924501012148854
P 8.433267763262325 1.5770076514672942 3.399150619402183 0.36594254184266006 1.4954099057631085 1.4055881597132696
P 1.7555732124483139 3.0755312156572168 1.6516567311339627 -0.06943649752526752 0.13394316184908545 0.0028616378185112004
P 4.482041763714062 1.0518878017929525 8.396240696864673 -0.04854319901602607 0.8404146905573076 -1.2777523963135025
P 8.568538940803501 1.5926012361323034 12.559160022074561 0.8752413113181894 0.8231317351071435 -0.8478510922306945
P 6.459972973519693 7.720046902750834 1.4119510972245213 -1.2888053116935545 0.029606252902207073 -0.40698814693006036
P 1.592492570037077 3.1605352686481814 6.019782016120451 1.2544078080502912 -0.2513767560789219 -0.012246421467520845
P 6.986514537939915 4.047332105268206 6.11314068073275 -0.5401489220871666 0.07751156122391813 -0.7488119413476458
P 2.3268489860701305 8.499662747445743 10.259731114033261 0.23781572956503563 1.1286458964604174 0.7847575062043194
