# total energy = -340870.35192899866 ev
CRYSTAL
PRIMVEC
9.22596020356283 0.00000000000000 0.00000000000000

0.00000000000000 9.22596020356283 0.00000000000000

0.00000000000000 0.00000000000000 13.50312533226238

PRIMCOORD
 96 1
Ni 2.5152366112469617 8.613125744957864 4.830216376718377 1.7714160303549364 -2.6258758861514004 0.8534527546881882
Ni 5.640318414221915 3.3234491721122366 6.1119873234127144 1.145468367334395 0.02491398963286032 0.1369942899705834
Ni 1.2962843046028005 1.756733523657892 10.329432033844226 0.3047222615795978 -0.625933007732522 0.7855470919851504
Ni 6.397585223151183 0.6998702656579381 10.201368326225008 -0.8461991584495685 0.09105947511168189 -0.2712112743063458
Ni 2.8339935343525444 4.815766677934933 10.11829685845844 0.18735783002479992 0.062016550912112556 1.7772354652501907
Ni 3.4065473951632343 0.6799366561626582 11.017956213712433 0.16077956531563922 0.5547394183068317 0.6921170597587628
Ni 7.596369580912311 1.3768915184139 5.141652500446701 0.6856029127893289 -0.09695887131525237 -1.473198916883708
Ni 3.4604546803066767 7.51199817536092 6.72297653419903 1.713561067019681 1.2360357333010068 1.9720592646347328
Ni 7.753054062101953 2.0394261685458273 1.4796585659039365 -0.4764413566258763 0.34358500008306636 -0.22903978314461845
Ni 5.122668242250627 3.958804143648822 1.4863566129712202 1.8511294843261799 1.6901995094756053 0.49278483098090625
Ni 1.9222103448683618 1.4314353948075382 13.020591098380967 1.5538881045046593 0.3709551645659031 0.08984437175765816
Ni 4.158435469326351 6.246980649698925 0.48241899795498505 -0.9019008228872468 -2.7186860254056016 0.3703995491727492
Ni 3.6907254196349606 1.756696619817301 5.555010573715525 -1.3080579892755795 -0.2851847057673024 0.3893879173497939
Ni 7.150211374126121 8.690383935235321 0.7634408214601581 -0.4563345585736722 -0.39095500472659767 0.6966797394287808
Ni 8.749217883097673 6.8766616557446305 9.288435582106413 -1.8396639068887415 -0.9564447195713979 -0.935128474592125
Ni 3.1204688229010666 5.568475862551201 8.028795868614555 -0.9709583398065407 0.5311775718264917 -2.351033185740054
Ni 7.599312662199451 8.95532583279894 8.338274243599521 0.357520636327552 -0.24722828112818712 -0.7498915475650698
Ni 6.56356947216978 4.5439053102604845 13.088025486293073 -0.612376609204326 -1.3986099286232236 0.14766462520023602
Ni 1.4609492413202663 3.704066158008642 11.918965326936044 -0.2028402419311152 -0.2968194617927533 -0.2247982342594451
Ni 0.8067991437706356 8.65101676328477 9.28852968689992 1.3882681803775834 2.2835602396990606 0.7789900075929229
Ni 0.3797082288218496 5.316210434230625 7.539618854851326 -0.2508468517173809 -1.463509457510086 0.10656194162265518
Ni 3.154374226444135 0.7326731669633475 8.712837154446957 0.5308171031632795 0.13364465677206014 -1.2694271642772588
Ni 3.2313925417577503 7.593011331418522 12.05627898219942 -0.7115445723557553 -0.5115065757601256 0.48990570966089825
Ni 8.3125255114231 3.668749182562964 6.004326826660299 1.6115895729811858 -0.042749989373016696 2.061804391810365
P 8.460131647827332 7.410724810818809 13.041075497697069 0.724536613740049 -0.635508567236099 -0.0390771685071198
P 1.4734596432806473 3.802396441263614 6.432173347745187 0.13814640129715564 -0.34969059876017194 -0.5717742623019314
P 8.281378669964216 6.9676757526024184 6.765484222983882 -2.0419163946371865 -1.7685099124517352 1.1653355385719673
P 3.101491022877096 5.065236640330735 12.304358592400952 -0.27415493031570204 2.936872153665168 0.48451436344199783
P 8.5039826364097 1.3801113785054728 9.855201998116405 -1.1546433489654437 -0.45401105264681807 0.0004995653442378493
P 3.0078567533373404 0.3121096188191115 1.1512060812790588 0.1459209030362519 -0.2141171003965151 -0.702866584965783
P 1.7480703470791326 6.581606224258678 9.137821782694006 -2.4397221037370307 0.45653639017183306 1.3439827281966465
P 8.141808344848695 0.2746319235068251 2.834049812709446 -2.1476093033913273 2.7572224909179033 0.7415858559128519
Ni 4.283151998603956 6.958625085697452 4.672877774954258 0.4097657096751975 -0.16777990789287234 -0.9592755041519737
Ni 1.5804069733136406 3.2054491418222106 8.613549216528646 2.0238291981181726 0.41138653310807216 -1.1204206803371477
Ni 4.952901349571442 4.620517683327598 8.861006997016219 1.1296159736831708 -1.234392541270629 0.6058539775944598
Ni 9.18448945690949 0.28599922900489705 13.686227516314576 0.11652033838694772 0.6895217882277609 -3.6978287007951476
Ni 0.35045547698130347 3.092624875175085 4.123948830293973 -0.23603961150121927 -0.33352298786137397 0.9381520919097972
Ni 5.265384619776539 2.338513344616356 3.8658636663121793 1.2540100583912404 0.6248657428102723 -0.5557231223763397
Ni 8.880983045928177 8.663564069085743 5.8891720824798455 0.039815589335041104 2.037111774159692 0.323103849410579
Ni 6.687898511121179 5.5991890838831395 3.795444680292267 -0.9079305740210943 -0.5001821518862418 -0.5247762962858382
Ni 5.787527834339793 2.9514215551134084 10.99891659975547 -0.2923028048693224 0.5169539720279419 -0.023225803297159998
Ni 1.9035923572901545 5.024227247473881 3.2629084216225452 1.7194221537861483 0.2198897412142342 0.00573818803535786
Ni 1.4900663715466402 6.616102089251204 0.4624494072151288 0.24875423085441029 0.2894059429375016 -0.9087183600297125
Ni 5.724514526530498 0.8610607057837522 6.508127909853763 -0.4916458322804565 -1.091327362515617 -0.19203003868948865
Ni 3.5405729182299432 7.492393010046901 9.714391703957022 1.4100767916122425 0.8421018484517432 -0.60461470587072
Ni 4.74868472170047 8.331328018204262 0.3969801488144969 0.15519024415331983 1.76193405900643 -0.4834175308333933
Ni 6.183330750639434 6.5289444437351865 9.414810939018587 0.32157455725024614 2.3556562863343626 -0.25750292358131777
Ni 5.02410730999196 5.420048615693817 11.314214710401654 -0.4725859874355281 -0.12805173606531495 -0.19853415835659355
Ni 0.5064756890403052 4.836912578593631 10.082959585900435 -1.2411236893468756 -0.7960179096094872 -0.9022219536720913
Ni 6.0718350222535875 7.631280614111487 6.07663621191449 0.8110071839294678 -0.16492675471479337 0.6862726851628438
Ni 3.6470035944946613 2.40285519068693 1.5909513231665313 -1.6829983637414756 0.006261150418363411 -1.3255353201247366
Ni 8.84972549294752 4.893882882506134 13.290221628891683 1.129830146576506 0.2773045316882773 -0.002098791510557676
Ni 8.415182769987378 3.1997382724907384 11.369307531424084 -0.9259162119652377 0.014967419943109708 -0.48405182198328245
Ni 8.576203452446473 3.2541160816017167 8.619692783391049 -1.7950521817166378 -0.12140029218706834 0.24591830406751194
Ni 1.0502279474616751 1.3296269245768548 1.892152166706915 0.747026567312449 1.2765964283321884 0.9926977883661614
Ni 3.5802629987856665 3.4949966750999413 7.169970612974608 -0.6173825470593497 -0.9696226517142527 -0.22846128493332912
P 6.992207580635348 4.5843426935881775 9.663565889502937 0.7480552656872794 -1.1756076099219366 0.7658827807870036
P 7.62961071532474 4.461369870778501 1.7493841238041754 -1.4209163054299077 -0.7054394878992819 -0.35864240863682106
P 5.702095443371408 2.3617719901488936 13.338670836011701 0.5592272788748562 0.0648103116071658 0.5596931627676812
P 7.173147111053487 3.4923026947367912 4.357998522898785 -1.4571919999324903 0.06326816393102652 -1.684108566086519
P 4.94922019147248 0.14891530014920104 4.492260230545277 1.1397039540467921 -1.385928219390497 1.0494068110224315
P 4.330850212567946 5.943188233953031 2.7889487065270537 0.6893410396755225 -1.0382381960001217 -0.6565659021270305
P 0.13841338971299022 2.5772627413204447 13.35787190427125 -0.8740120668967787 0.6255848803644839 0.2560361092278042
P 5.3907192883840445 8.789332357820195 8.248613595095412 -0.898824240844452 -0.37698414436880234 0.642492711863416
Ni 5.43048317662095 0.9233433175493431 1.7889210534214453 0.7738241471212673 1.02099560686959 -0.6813449088439233
Ni 0.9601733504592558 0.6032274105139935 4.315382890380203 -2.8484534586104426 2.609549381077235 -1.4568963230689425
Ni 5.83664684616654 8.094183938565886 2.8125524029691182 -0.9658613848996075 -0.20284821235091519 0.9819788592867604
Ni 7.0002618438443545 5.08635486310899 7.373354136644236 0.09723732178761964 1.2152722755014103 0.6925850005341169
Ni 7.839685827889547 7.82906674775946 4.0655881741872 0.0769186648349256 -0.6442418333440388 -0.3298403968034642
Ni 5.471640184840168 2.1223029685532784 8.51627253792255 -0.6172552774528659 0.23001731656653934 -0.04922042758870878
Ni 3.441301587039898 0.8684866811066951 3.275345015901744 -1.606519614657446 -0.13348653392764107 -0.7221953672013821
Ni 2.217025901390471 4.2114386103753105 0.6079132756730476 1.1614462308198903 0.4982926481730128 0.4542144269068758
Ni 0.623605711288396 1.5878154193123029 6.595155469331699 -0.6005233094101659 1.5083546388492346 -0.25636546754276496
Ni 6.487741305715228 6.319718119503973 1.4394195407194215 -0.16818125709634907 -0.6151901673937211 0.27817664988058544
Ni 0.22882410877711368 8.354974154063006 1.9475153083616756 2.7073600588698215 -4.0833741044703995 1.2306140480648031
Ni 7.379476483798299 1.1844564416516352 12.355778558688554 -0.5842723947689422 0.4478172651312804 0.3091263041845644
Ni 7.3926142510487285 8.056431309641196 11.058829984955112 0.5036240876882552 0.9149504569823532 0.17112799842949883
Ni 3.0349995280920905 7.7096920494074155 2.270995923062918 -0.6854195931339293 -0.5521462036583588 0.6223746009573023
Ni 3.7819517135761473 3.1105693676625052 12.604884095658518 1.0122993646471727 -1.3230953432246761 -0.37183191074390154
Ni 0.5016588152471524 3.8441254590119946 1.944355417011063 -1.7254393065145057 -3.152227754454474 -1.366445685185853
Ni 6.24621489500666 6.82266211099971 12.715960965453656 -0.7571574850988638 1.8135327570193285 0.16877723880913512
Ni 1.1418878615298071 7.3794949357185935 7.131689336533451 1.1541170441483284 0.8833518562404657 0.6631918920839804
Ni 0.8678021148637304 6.593793717613887 11.41619017051101 0.8465251743304194 1.899084929159536 1.2103524696022896
Ni 7.7424718858124555 5.851334574721797 11.312971973569748 0.694830602035184 -2.2288204249540193 -0.634822596912668
Ni 8.785106868072512 5.74788388358481 4.920579120789732 0.6385928625883777 0.11287759942803785 0.21084845694757237
Ni 9.13940218966732 5.93250457210191 2.036608560316697 -0.7829621048667935 2.425143434591907 1.1261791800874799
Ni 2.1920789051508915 5.854932699179428 5.589834882889312 -0.8091493047851226 -0.7812237820194481 -0.714451461589905
Ni 4.04559275075893 4.416993002467709 4.704610464882526 -0.06351653249640675 0.46371002510213694 -0.4679793419014521
P 2.21748719939786 2.8212248055080256 3.147659572648585 0.8232170957320983 0.09598827987186695 0.4993465433588239
P 7.35402205975059 2.1725014177173154 7.181718028030769 -0.049103185284554145 -0.7022814018862744 0.61136488011036
P 1.0240077687217022 6.90575110809056 3.7175046915598893 0.2358753180092131 1.590513726147493 0.4262297687684918
P 4.930011742444816 5.484574980967347 6.727257379707598 -0.3630762760384586 0.13779004639900141 -1.1633958983470933
P 1.2132045334720982 9.147262707713223 11.645608431121643 1.0991818255630295 -1.3630019496116266 -0.39869531079364884
P 5.103902639310055 8.663591746966185 11.562524047010866 0.8575104696973297 -0.7612856483346244 0.6717932605997462
P 2.0234560315300305 0.08507811409871026 6.914018490978981 0.7057680748832943 0.1409638161412927 -0.09586255292728006
P 3.6915834339287037 2.888915675112241 9.763840082561046 0.2642037326402611 -1.743401290309565 -0.28232898148606217
