# total energy = -381171.13475261984 ev
CRYSTAL
PRIMVEC
9.18862806857338 0.00000000000000 0.00000000000000

0.00000000000000 9.18862806857338 0.00000000000000

0.00000000000000 0.00000000000000 13.44848597911650

PRIMCOORD
 96 1
Ni 7.629511024781418 5.216549671713538 4.527970407697243 -0.07977747443995938 1.155166054238133 -1.6650651763018227
Ni 6.843368743379166 0.7883925764688211 0.17297868402077946 -0.18545495657513222 -0.5418808171766086 0.014431344933981597
Ni 4.878270321465468 5.076616051587833 3.957526580930284 0.04728001603288632 -0.9342424724427459 -0.5293780567239077
Ni 6.305898309206672 7.75529415735091 7.964153515954975 0.44668340863715333 0.11312339689025679 -0.8258637893263261
Ni 3.6218081013847576 5.088221289109585 1.7109832312889395 0.1915682685617217 0.028409918601260752 0.0653075629585585
Ni 2.7433109171075 7.01479179263159 11.884750080952026 -0.19331507604949932 0.6560665938931088 -1.3160320086199917
Ni 9.484134568845528 1.9853501586499944 6.518589325804856 -1.3683048498817791 -1.4252015630688228 2.912380339171391
Ni 2.556147747605858 7.319312122566978 7.998958202166293 0.4022151510214492 0.12192222612880937 0.841265468593377
Ni 3.4891151203462574 3.0280297530924702 2.8151448564375103 0.268698278076505 -0.07880148367993525 0.03775844969569626
Ni 3.9801094726620425 2.2056658989976237 8.003194159804874 -0.6098566709959496 0.08248407473784504 -0.35175442326773615
Ni 4.246993181149214 7.756470301771167 1.8370769394944053 -0.4361526843091585 -0.2942918102748932 1.0863296521907098
Ni 4.576083903114028 8.99595193678442 8.879806756421237 0.30607311918053737 -0.3803306922435321 -0.029311347369607586
Ni 4.697851605123736 1.8739104748306654 4.64226959263832 0.5801030938826008 0.5147356242203845 -0.9271901935816548
Ni 6.095331703467577 7.116463964585819 3.1005215982075622 -0.5586822050046636 -0.018863155453090096 -0.05932049213718816
Ni 7.221976983162447 3.3434661734283666 8.755570069991816 0.7227602385659165 -0.65629696473636 -0.35508014520685943
Ni 1.2979488767796117 1.850350831912397 3.102363918178355 0.5874993863466721 -1.125527919656726 -0.05631358699006431
Ni 6.199604257225967 5.241698947324811 1.7518000369859912 -0.21385484787406395 -0.5793189074184087 -1.1684535153756586
Ni 6.218100965960161 8.984953148729362 4.377495593204985 0.6678748993819466 1.1091857308532769 -0.008764633566507486
Ni 8.121111826563897 8.944495618398188 1.9888427562604598 -0.13624995560539116 0.772333935728986 1.1473846105205014
Ni 8.691165136628818 4.03707896801823 11.671645576081094 1.6661041590892982 -0.7562131189077234 0.7890101108330864
Ni 0.3775910586323244 3.0863591654345797 4.582719930460195 -0.8861394462879318 3.1350589559846718 0.46182283538175306
Ni 2.115157910407552 0.6832608859659475 12.593740963836746 0.41527146998477515 1.8106394946319335 -3.247412050367807
Ni 1.025689820746736 1.5329664223804509 10.398382868047278 -0.6146250389188705 0.07574752734495986 0.7985715292692763
Ni 3.573374841703715 3.1151563264743043 10.101762920709836 0.6650032342611064 -0.01226184808648856 1.221794135780328
P 3.904578948173678 0.9995573619091559 11.106593636390752 0.2821870565915591 0.3965764646784331 0.363408976787529
Ni 7.880287067888041 1.935492661585047 10.736935120555362 -0.3716961564969857 -0.4799126030039283 -0.2890045937340249
P 4.914730798493428 4.156834360433906 13.558360404424477 0.8163777042127618 2.1072373273321836 -0.3001773225213927
Ni 7.1047484635246665 8.870196370099778 9.818807382492421 0.7004595181861872 0.7546573443848293 0.659669994973651
P 0.9608456709517983 6.356233614942348 9.758194596021923 0.4738787381050226 0.2427069962190659 0.45907175499917713
P 2.5424934459769397 8.243972975339315 0.15020926313487104 -1.6068980810427873 -3.9179680961263426 2.9692374573697506
P 7.7786792163317955 8.470426719380159 11.951858308755957 -1.1530477223435496 0.3689707871460226 0.08282680278924445
Ni 8.342015639121655 3.991025563062551 2.5044442551188046 -0.7062966936932545 0.11572715306169103 0.26526765512840117
Ni 4.859406067599944 0.36541520729418187 6.331265355308258 -1.7879721349414044 -1.434371145383233 -0.22462365635479378
Ni 4.521503451111487 6.423797598709131 13.440847956172746 -0.808382344712111 0.8735976050671793 0.13953685388677903
Ni 6.118183822008035 3.0300880058279196 2.7354629096907708 -0.1689700715462316 -0.3258564724550517 0.9946124888903709
Ni 8.053272183948618 6.698684602431017 2.18767915913315 2.443148612920076 -0.8564722582408024 1.7202981286331984
Ni 2.1414190100410977 1.8552943139287887 1.0712553095405744 0.1846525152784949 0.8353475604470453 -0.7732525908885135
Ni 6.283459678938962 1.0298155148459178 7.796019995627957 2.7086142429918967 0.874050890554514 0.5205074937071551
Ni 3.5135293056948687 0.734604184224297 2.6196981385385127 -0.6768861017416214 -0.6546288330053177 0.5453968007496671
Ni 0.7289136667284766 7.558547248549832 6.2843160590949605 1.585444796265018 -0.21633339132154356 -0.11470925332013793
Ni 4.897933985991637 7.063601786072247 5.053174941974418 -2.5911971038222923 1.4089527053101283 0.13812043315522662
Ni 6.418008762890679 6.438214556485558 10.326890745689406 -1.1324842963699013 1.0080480455699865 -0.15709363182361977
Ni 1.2768517862412558 8.657874736358583 2.461718971327321 0.37552170089066295 0.2088800203672919 0.00975373695265417
Ni -0.13768608164762144 0.9814190096780085 12.77296883395297 -0.4503788552108695 1.9841131104754732 -1.6049720676646682
Ni 1.8547429962317934 4.454729689377065 10.650030911977982 -0.984649464140388 1.0017750680770814 0.6435874875894916
Ni 3.6349386512015305 3.6898131393091353 5.985772931857831 -0.33021809185785705 0.821844640864604 0.7117857418322838
Ni 7.052106812089893 5.611026672542002 7.71110696279956 -0.7606223037190126 -0.2830157231404416 -1.8209951268346447
Ni -0.48299565139521083 1.908147303814077 1.3629767991402144 1.8061968854795474 0.7367131012015828 -0.7611154413053473
Ni 5.688064132068821 2.0924528099196262 11.95600054238605 -0.48116524446410686 -0.3854492444170201 1.3234095320309853
Ni 8.531145175075915 5.415244569710667 0.5091933494936021 -0.29781139339237744 -0.9871174660649064 -0.9200651525010992
Ni 0.2902816315476541 5.271111746459513 7.623745160533675 1.7540721397598502 -0.4680490187971229 -0.5665379536036566
Ni 6.458383595567306 5.59583786998978 12.628075192279962 0.15282354369335616 -0.2886125005019287 1.055062466646312
Ni 5.109465397700473 4.808188653549075 8.888037010774548 1.1236813533662906 -1.6023279451736017 2.7125259193414766
Ni 2.5657222982770107 8.979660498838207 9.876662661615114 0.46316135168751843 -0.3072853943210837 1.5357392015097744
Ni 1.3866283283413157 6.4842495841846715 1.5289583427232947 -0.12072512049691468 0.8701736669872949 0.19325491223552524
Ni 9.338862355687253 8.103203190039832 0.08872171925180679 0.6586598085415818 -1.798597990086367 0.8617769582831674
P 5.57650499608181 0.6550802818840294 2.436650555644942 1.4980026061909493 -0.025923404733981158 -0.3399067799005307
Ni 5.464247524345271 1.9393243195791647 9.769437801589314 1.2136648218049741 -0.3529726119455534 -0.526585581580435
P 0.3699663348828786 5.665395786094028 3.457027511518299 1.3934355835111356 -0.06525228424059085 -0.059784833368116394
Ni 2.9077322316080827 4.875173753734011 8.415887616204893 -1.290131486704146 0.39594423041107296 -0.8465097477114518
P 8.518593508840986 1.2994006800483664 8.632838480875193 -0.9234687788660096 0.4196693419421546 0.4856950140136602
P 1.0002556976586834 3.1379716905016286 13.020756735141877 0.22313704450693828 0.21200828158362842 0.30582063685009914
P 0.5633768527543062 0.6057180518835499 4.857189770458023 -0.27518080047705507 -1.3949512488247136 -0.6264063478245147
Ni 8.790209360894035 7.311896899542391 8.323375587786243 -0.9821668069278504 0.9475885547323486 0.6774802836821946
Ni 8.450349566581245 6.372497487003712 11.741200735596859 1.1289040352178106 0.8428870633572 -0.2660446425037419
Ni 4.222137941643006 5.217882022814611 11.435086178654327 0.42645988250142686 -0.6751776036909468 -1.0522046854825426
Ni 7.1451141075730105 1.7763548083473362 5.556376386964509 -0.26728340000684936 -0.032800077249156415 0.3151185172122573
Ni 3.307308921133754 3.107860555617399 12.591495263084319 -1.0667054502018791 -0.4157530376068839 -0.5212202035034637
Ni 4.748820926210958 6.118183822008035 7.212679010202621 -0.6919877332697502 0.6949535007662935 -1.145730619856846
Ni 6.58462615955096 4.013151779968631 11.023657077506083 -1.3778510988093173 -0.1699162375095848 -1.371250562773664
Ni 5.076193374686803 2.213182196933327 0.7642218897697162 -0.9496510936883321 -0.6435121542668659 1.4129446000783408
Ni 3.017609848619258 8.678402131943376 4.712900740526053 -0.4865524769179491 0.07045722548029801 0.18035774455788292
Ni 2.7723745483674382 6.67143113094288 3.341007296499767 0.002136586727028578 0.45043953324547586 1.155451960909668
Ni 4.296216662862616 0.047421591707055975 13.535363105557146 1.6715273869873988 1.7780643889093894 -0.6200372110733773
Ni 7.968617351574982 8.784218375253351 6.407518105979685 -1.055188964921847 0.8206796740222254 0.5272304142532855
Ni 1.7945850468613163 2.8195673432302417 8.775661924595983 -1.335123478033804 -0.12296815089482048 -2.376481193499514
Ni 1.3762268011246697 4.1479581455122805 1.8863923074906401 0.441918126038026 -0.6049774885267775 -0.3451502876876572
Ni 8.080470523667056 1.655607044077069 3.4056143796849967 -0.8240629886721614 -0.9014783906378474 1.6915385400020027
Ni 6.711447607116459 7.69552213036833 0.7518742110826767 -1.980455716228544 -0.7810291495101387 -2.1210274391377406
Ni 1.3996945577601054 5.480832998396548 12.966962829720382 0.45667342997032967 -1.5362325962064252 -0.9267024553119587
Ni 5.4848576175846135 8.101273578100349 11.87760867905028 0.4936224963908531 0.08738254048072693 -0.7723552758852247
Ni 7.912732114356219 3.9380714982661464 6.3261675043367065 0.7259144679241821 -1.0553108352116922 1.0357843351429903
Ni 7.286821132957385 3.2582875892425833 0.24269096908018623 -1.0699620094659639 0.9102923893850515 -0.7298860509774204
Ni 1.0191750832939075 9.15796583067479 8.19574921638313 -2.276323612741306 0.8375569093935381 -0.1572584395362582
Ni 2.4042413448270694 1.7766488444524005 5.459211237183219 0.5128502342722135 -0.6892371671078066 0.05839155256501556
Ni 8.169774801952022 5.374952434688589 9.562895815038287 1.7107909604737117 -1.6055577649648092 1.8910628301860075
Ni 8.625025390245941 7.741566346695725 4.398784726074461 -0.22291181587000963 -0.3476830814118399 -1.2685025955804607
Ni 2.7867179971176013 6.305346991509677 5.891661163255066 -0.4152066781851107 -0.32026175197609363 -0.3745878762224839
P 6.134631466635064 3.651928424897271 5.052152247646492 -0.4700223404734098 -0.3814156977775947 -1.7123156246483544
Ni 2.527038173204503 4.566812577176222 4.279940845584485 -2.1037725087120345 0.06069474677689547 -0.8594441963849329
P 6.764943800981577 6.786316550368429 5.730870275789198 1.8940674213402862 1.0677020097871934 1.4369890426220542
Ni 0.6209417712232485 8.39510753334231 11.041099850576186 -0.41059437622408 -0.9304922613716943 -0.46773380154954924
P 1.4661007743631969 3.811948386450174 6.542769201132245 0.893349590883126 0.5068523648175658 -0.16686562360871907
P 2.829105139388261 9.759793417343209 7.523137031734648 1.2841120199829432 -0.9776048985887809 -1.2523961769369012
P 4.366757762193172 6.8417974879427295 9.672487665709852 -0.422633309666485 0.11741302540454618 -0.22131901746159302
Ni 5.56899788677439 3.3572950589946666 7.022368735513964 2.142470439502865 0.43490441372435423 0.7454216847191744
