# total energy = -381175.59426427784 ev
CRYSTAL
PRIMVEC
9.21636530312194 0.00000000000000 0.00000000000000
0.00000000000000 9.21636530312194 0.00000000000000
0.00000000000000 0.00000000000000 13.48908222559825
PRIMCOORD
 96 1
Ni 8.436780431357196 4.815891773724095 6.181264006993732 0.3988390354603647 0.8111732771936868 2.132778151915766
Ni 3.606160906192703 3.6963983369517357 6.842633131955168 -0.4651860954270311 -0.03702799928757494 -0.214878661152888
Ni 4.118618455216755 0.40753015392155856 6.110109060187981 0.5952913715872651 1.1578047774125608 0.7368964208569826
Ni 1.1833259815008919 8.210896538958757 8.296459429335705 0.4014916425918634 0.015246127525793098 -0.24265043194951763
Ni 5.179495809910935 3.9633595686304344 0.19421001043647865 -0.19576559447252093 1.5526588600832487 0.8014488508170713
Ni 5.810475814206273 1.2514994341946477 1.4083545952174368 1.0607978264681925 0.20144541846611758 -0.1256809218402932
Ni 0.953995168552571 2.9695497028172135 10.840473887359044 0.3555318880322974 -0.7813122279681963 0.3834183300299203
Ni 1.7163083756174127 1.850111564235494 8.47214178099832 -1.8174436620379604 -1.288627905575426 -1.429962731902892
Ni 8.755298009442393 4.586588609871095 11.983066299998155 0.46254428692880983 0.4169979657575786 -0.9418989605467392
Ni 1.2101732530565104 2.752946690081152 6.385623078685634 -0.6725959590066997 -0.48163189968788017 -0.8218973484794103
Ni 1.7234141931146256 0.2710652790606818 6.08122865848984 0.12972526711299595 0.07620929747272681 2.426948091900814
Ni 4.0094506105287 9.038811832852604 8.564217876596127 0.05773669258983605 -1.0866104166559223 -0.7587623676921385
Ni 3.0203871727453953 7.075182299598724 6.8263118709878325 0.05403610380979726 1.1773094231043917 0.10110734626598716
Ni 7.599141872275853 5.875994953749319 -0.0033224996209407875 -1.381111257617828 1.0670399507231625 0.3647438935488686
Ni 3.0577134514272544 3.078468705647389 0.7952921263259023 -0.6154002265219982 -0.1618519724442116 -1.124123840220348
Ni 6.807870846045973 0.6465851536938865 8.63479311403667 0.508412253105518 -0.24461321210284326 -0.6529208491752756
Ni 2.7903466996838633 3.781281059583815 9.171981857187859 1.1308303057062459 -0.3681452059209337 0.7645056979338188
Ni 4.108646348171379 5.672691155862126 5.206259212544084 0.7697589759129583 -0.42563070173191214 -0.023580358423101324
Ni 4.145004908517041 2.297639821083324 2.59450354935049 0.0023502453997314363 -2.5947660521204727 -0.25931940796476627
Ni 0.7865319712920487 0.2610461685532623 11.442707127250285 0.14203133817385863 1.0203158071937461 -1.1345478637671493
Ni 7.713314203216807 -0.38880157838837187 10.784615341720768 0.006300745407047214 1.3068002056090784 -0.09709128312805859
Ni 5.2611159392952676 1.089862822954538 10.228406785899026 0.36999717152800793 0.6948092618789453 1.441175569899576
Ni 7.5002871401421185 8.300931209685443 3.6922454428346874 -1.565966375825432 0.27363762435965133 -0.3741680150762459
Ni 3.744139108204089 3.472929132211233 11.6116043909214 -0.8455137023467696 1.3013132143525783 -0.5825695531452225
P 5.052862953345814 0.0535756520013617 3.1397188248730434 -0.22351268267880214 -0.40378198128793685 -0.07224645617023687
Ni 4.28330568330716 8.60043542655566 0.7013054782414918 0.3762261831568553 -0.42024218372648914 0.5831997305300536
P 5.641189619927658 7.509190148835126 8.277629473786345 0.39257171439441424 -0.23036261572110003 -1.6906939326135204
Ni 0.6655874552707401 7.307121343872222 6.023373848169469 0.14078281047873817 -0.4094211818515852 1.0950107249044754
P 0.0905102351661889 6.117915321433299 8.254630034662746 0.734698127654083 -0.8324247303732955 -1.6132433065345249
P 1.836710969370451 4.91422117304675 11.430351668188337 -0.10657196892498422 0.7589238329706671 -0.008190506230592346
P 6.505712316025048 5.985494587581212 5.553130937879834 -0.4509504114436234 -0.6187953682464762 -0.35417485978377067
Ni 4.149557792879718 8.810669931003037 11.945121603217641 -0.5627993124968308 0.3982029445382626 -0.8478027554912626
Ni 7.521871867221851 3.5919492711982772 0.42637116910904604 0.09896664577390053 0.22364020939560192 -0.17437504461188677
Ni 8.960398998525378 0.00592612276356429 5.021027784994486 -0.48131591110935823 0.992409310591465 0.9699509815879489
Ni 2.4451477446149674 1.505548538358955 4.337859191646335 0.7100777580022416 -0.6324733799542012 0.1256654952213255
Ni 5.520012851505664 2.5517073579778446 6.939700810894725 0.3352636247015645 -0.5453577199816156 0.9159732418199129
Ni 2.9419374729577443 8.346054533247512 4.561062965071766 0.2997967992535224 -1.319727455193708 -0.5814881471555857
Ni 2.118943718030839 7.855559582272564 12.832311949294791 0.7143763853775954 0.9514210411045614 -0.451009546816333
Ni 4.2783196297844714 5.677741723940561 8.334606886148565 -0.3211418405882018 0.5248014930968188 0.4116516138440007
Ni 6.684730991856266 0.7742096911444819 6.006701443691572 -0.03971145965700903 -0.07075238812321362 -0.745175373036323
Ni 6.450911809101015 3.697144862525373 2.4692844831927254 -1.1882985751260438 0.3931977780141873 -0.35850999682401485
Ni 5.489488250272498 7.644062435805576 10.343549600085709 0.21561939597365445 0.06435291235477303 0.748828139297562
Ni 8.598638235359864 6.218751572064958 4.275418318048904 0.12513584797010063 0.32898241967854314 -0.08875396690695683
Ni 8.049259927718646 7.697830709837666 8.579326263915428 -1.1296090317046352 0.5767796859363228 1.310130555533892
Ni 5.3598785077779345 6.91473459945737 12.832905483207659 0.5883457935073674 -0.39126739376069386 0.37436367602681975
Ni 8.525957980128966 8.078715430599441 13.041109622422045 0.3753869750850116 -0.16789149377007215 0.09821459809922439
Ni 6.81050672646647 3.9189459051815754 4.764168611109167 -0.8809460750124506 0.11311054137445037 -0.20267106334310256
Ni 2.90440843424354 1.5119815612033842 10.292331494278624 0.013710407607557033 -1.2439544739274513 3.0753669394406775
Ni 4.2772966132576355 6.991073751635601 3.0177098186819182 0.1469783977664888 0.4890857848627642 -0.2762727479896532
Ni 1.5910671901833922 2.9528312165137836 2.789245344053621 0.3560916171905093 -0.7313878323339276 -1.1301952432254085
Ni 2.0033336341332486 5.8323001667787775 9.132284207764064 -0.17663992938666354 2.0055897922920107 1.0522080279166524
Ni 1.6642082636696227 5.00621892954115 6.763021248527571 -0.14082574790153168 1.0745223751431365 1.0930597718256916
Ni 0.43220973640409727 3.9676728275003383 8.570638918165917 -0.08806105460499027 -0.2797105700266086 0.3408388047964969
Ni 6.792276756285552 1.5259443543399314 3.528757263844655 -0.5959362042601156 -0.45628930715803356 1.8840082373320712
Ni 3.218244098854568 5.873543400630954 13.40067412578265 0.2673420211589267 -1.1510540889522884 0.8745013478283713
Ni 1.6290293980576087 5.600785075300185 4.628886195891471 1.487001112874123 0.6136876147062656 -1.5467226971044719
P 8.134585035875844 2.385361184168246 5.471738452713636 0.47707873309955906 -0.7613185584550888 0.9774292922428651
Ni 8.899423526979902 7.27986855225191 1.9978950570838252 0.29462811056838933 0.648212902176645 -0.375861600728585
P 8.122917117650848 0.6932743376875729 1.0218340671929562 -0.8632846531769455 -0.3498782892909458 0.24242391776100827
Ni 7.709867282666927 5.070917812589705 9.565877320570666 0.9555893135496382 1.120096978449142 1.1998276588115657
P 3.93179351814022 1.9450309084686956 8.50896668941838 1.6213831620328398 1.1639520279608793 -1.4723638225769222
P 5.2345082932324205 5.887708953799848 1.4349281407293886 -0.07989240275126885 -0.6741417062272648 -0.8149710536732223
P 6.241027526527687 2.965632747646895 12.113735002843471 0.05921584823852383 -0.2641245426628935 -0.8116669290006537
Ni 5.35296623394796 7.928940281251568 5.003599638577845 0.16519337811261872 0.14974413343708406 -0.3592191070758975
Ni 4.7040511831551175 2.7622644352039565 4.735531521449841 -0.12129924783282982 0.04319710421276431 0.6503813705828734
Ni 8.34069982512056 1.8963408516103595 12.624323473023898 -0.18671505423447843 -1.1266869729618338 -0.8775874429528627
Ni 0.9249912675620006 0.4548525021980705 0.2983097759523962 0.9309905411643515 0.6999440120023495 1.3859027654692002
Ni 7.69420867835076 2.950886563476284 7.765772831767246 -0.22831833159756162 -0.12727372024870987 -0.1565364737685691
Ni 8.87493564489158 0.8348091349936079 7.234032803667099 0.18880227578081032 -0.08067761765672558 0.9036522583607147
Ni 8.716736737836246 4.942828770337735 2.190829522589546 0.09526040056690692 -0.7179754155827635 -0.6299416146712828
Ni 3.6037185694394456 6.242686472246881 11.189260773363953 -0.4445144260102925 0.16177098269463105 -1.2424573205566345
Ni 0.13434234597681938 3.8002483389732635 4.293790220252464 -0.5477593874445728 -0.6456217444107011 -0.03717120973365856
Ni 5.754154607039646 5.168685013640856 11.10765170361775 0.7481092588536664 -0.5230135479584606 0.3312761008087262
Ni 4.505834818806786 1.7787861146752701 12.965826665685034 0.4798717224636639 -1.8840483465413873 -0.547027908595187
Ni 5.295290221110658 3.595617384510716 9.24093870091568 0.4556449887058153 -0.33452726075617223 0.03411365385425738
Ni 6.534513456983272 7.6706977309637425 1.5674309002309241 -0.40078896009788395 0.6985880121950873 -0.7104364268932409
Ni 6.4894362152467355 -0.11112263572717106 13.093366412576648 -0.7484650995311883 0.8220338740572746 -1.0485071820262977
Ni 8.469185171072114 2.47619767865921 2.3127436002200725 0.643628368129756 0.15153464967860353 -0.6672542350788121
Ni 2.067848189879672 4.889125010861393 1.7420883920936832 -1.2772327763646067 1.2145999320247338 0.01944011100248265
Ni 2.3155287857552964 7.2472149706791145 1.7384589875146916 -1.3738090675294599 -1.4990665286790892 -0.5545486424522643
Ni 0.560369744667388 7.0767490816668515 11.152543696415641 -0.14964257486221327 -1.1514040160925396 -0.8229515007755376
Ni 0.6962567534360788 6.194024064483865 0.05690921126043045 0.6637179397907795 -1.5747086407944364 0.2771986022380323
Ni 0.5188371169508622 0.6452801163947874 3.0383885770716685 0.2988994842502336 -0.639709235581008 -1.4554217954059452
Ni 7.709830417206501 2.918601636507753 10.390167818068075 -1.824610869210361 0.5021338762959738 0.8232317510201176
Ni 4.019883535829408 4.435449438487439 2.8885249506187702 0.4619925281903979 1.8201592611969106 0.4962211103559648
Ni 2.7799414234784763 0.05336459724041982 2.2532971236457864 0.37221500511493316 2.5102868013294706 1.16741273281597
Ni 7.325010308544194 7.766935015407191 6.420493196066576 0.06955631093258344 -0.24385782199405742 0.006301002517363342
Ni 6.593857631904874 6.0610595650904875 3.2624697484552514 -0.9169731438393369 -1.0091160818231846 0.12148153904696497
P 2.6091898271479077 3.577525659806398 4.731417336066239 0.2571524822204345 1.3467556629560935 0.4157952036987291
Ni 2.5330810840973417 8.281954713930888 10.23230530833913 0.035850434039706 -0.5349619785695883 0.5531527905460022
P 1.122783679115427 7.64656928711458 3.6254737992736503 -0.670147497466207 0.03535961044621652 0.07156614227376062
Ni 0.7341102082020373 3.3405729129148924 0.2508713014755407 0.3731897103233766 0.05170308480124644 0.309515312092867
P 7.540055755577235 6.757770685326323 11.099815028367578 -0.5996337077163608 -1.388587768500531 0.9992461310076404
P 2.1759285034851437 1.758832684219412 12.527027228229695 0.434635990554316 0.7106282311890729 0.06879500728652668
P 8.844530856404804 1.498138580813223 9.504420754766622 1.0238461889445076 -1.8590117152877337 -1.4310371959139936
Ni 6.485722020108763 5.2881475381530185 7.811716411823805 -0.5521091797728362 0.33265292655159484 -2.219819249896674
