# total energy = -340885.44010964164 ev
CRYSTAL
PRIMVEC
9.06917629693165 0.00000000000000 0.00000000000000

0.00000000000000 9.06917629693165 0.00000000000000

0.00000000000000 0.00000000000000 13.27365623695409

PRIMCOORD
 96 1
Ni 6.84426229994372 2.412373622745387 10.987958862767295 -0.3773775231524791 -0.8209599242668055 1.0196385786210633
Ni 4.9973245966158695 0.630337664010344 6.019921356381508 -0.8061130890619601 -1.2423369929286863 0.17495662814696966
Ni 3.1700488669723543 1.7582865074033238 4.825704043564435 -0.5776859998006761 -1.4944999923543294 -1.9417392734949528
Ni 3.5179968754470723 4.252092261934524 4.539470871217269 0.6559958885561734 0.9123086484841321 0.3480510062742199
Ni 3.618102440727371 2.7876651970218895 2.3335615759214767 1.1570925818368847 -0.3449335436911608 1.0264699997206
Ni 5.378356959334339 4.246623548774167 2.5397284343965123 -0.2757821815064799 1.5963637571703668 0.017064925902086737
Ni 5.849945044948603 3.079520351604721 0.029037687888608443 0.18921622338977734 0.22886829056376068 1.0563071376866904
Ni 5.86559844281722 8.046626453609795 12.35087101244089 -0.7451098099057103 0.4723802991826252 -0.5499864770028786
Ni 1.941030404884572 6.631091316802443 0.5351911241961866 -0.15824985691525006 0.4379961652758005 -1.0231928716312249
Ni 0.5266271012487156 0.37607968567556566 0.13583993276692954 0.27566391076106067 -0.36113740714453285 0.054157202768693825
Ni 8.376263795632173 9.215552555166028 6.613081746995085 -0.5065772567793082 0.24939289287967373 1.1545042522844182
Ni 8.688932709258154 2.431845143732595 1.6101605618365011 1.1167553156704186 0.7134335618483519 -1.339848394313299
Ni 7.03593026666177 0.9576868529143839 4.585358181295972 -0.5330565340167595 -0.8192467982304406 0.9792637743484425
Ni 0.7827324707456245 7.8716457708304794 2.3187479837554283 0.528689001076683 -0.4393439375529466 0.403542354473305
Ni 8.023799337482734 3.9119709523941144 3.746489324613403 0.11106162926522163 0.5017839491557229 0.2602655739281195
Ni 7.873015216414583 4.062809488518587 12.278277699636975 1.5274540786828468 0.013746403051815036 1.3462319292421394
Ni 8.45324296197564 7.1281819254795975 9.237389317268029 -0.3891110095393234 0.6513663602039621 -1.385202911188698
Ni 7.19425087303051 0.8572883532475523 0.30692903210161926 -0.08718276576509501 0.5978601607557058 -0.8909070428799043
Ni 1.810397993007654 7.029699742712904 9.10092270443579 1.46558125243745 -0.6836380757534742 1.315713191827992
Ni 0.3521669891748805 5.103724170077408 1.3298477476171633 -0.7042639795339419 -1.1174464282001724 -0.268938162001453
Ni 6.638491764462229 2.0662575878335088 6.963187312452968 0.47625803697047653 0.7476657435583446 -0.7269789046329546
Ni 3.8473621421878406 4.361267003268482 13.414489469332445 -0.07819701732671694 1.0663341829053892 -1.0629236145619436
Ni 6.250630312175353 5.526075698896352 4.521816813111213 -0.3966242871972331 0.753009010148129 1.0855732336406594
Ni 5.711522210841591 3.0449123757839547 8.918038234725712 -0.07854694446696796 2.197406686529429 0.1763995312410833
P 0.4134845953912808 5.733832383933595 12.354362645221551 0.2821965696732559 0.8765114362798647 0.4114916912273688
P 4.251747633244484 6.577882460895619 12.49437258513795 -0.4983461271187676 -2.1168866774964896 -0.7137294958222159
P 2.301539222193609 9.121686583010646 1.2084432223748443 1.7702644332489965 -1.8434881657308382 -1.0428366140040815
P 6.46238650385226 7.922814062125229 5.870659043055162 -0.898870006480723 0.7019096203691525 0.07347158682658961
P 5.266588433649034 1.2283836197640263 12.378692523820705 0.08006672354560404 -0.33085084034584955 -0.24981558223938913
P 3.98154060190174 6.402203451560172 8.021495766765105 1.0786973324564326 1.1419600970708204 -0.047879597290098184
P 4.790211823078438 1.3344294953594722 3.3937283044070075 0.5623771373577475 -1.0270433557255667 1.322679081622864
P 0.43707805689487716 5.974736907446965 3.4193206123128306 0.34020168543313023 0.43900043817059875 0.22787738740540106
Ni 1.1554583751165466 0.1026150062943463 4.562075792531015 -1.7367369909155121 -0.2119666297124156 -0.3562507684761929
Ni 2.232568138305525 6.893190504753215 4.609767868644397 -1.306703275019898 -1.5859919270177396 -1.4314172049612315
Ni 6.237516283601761 5.991070493519605 8.77174970422736 -1.4995043875474563 0.4391336213143534 0.9096344440860785
Ni 9.170388058418801 2.8190898920478213 10.12736116717776 -0.2836505285109631 -1.730567628880007 0.18675027834778804
Ni 2.638976055622135 5.236433423270614 6.828512768808933 -1.1945905787823425 0.4219761356984604 -1.1261861220660152
Ni 0.4326613681567448 0.29776916428742267 9.232956304013001 0.2018449678973814 0.09655957899430467 -0.4700719627644227
Ni 1.93051922983838 1.5321012566250445 11.490950784302566 0.294787261854073 -0.9436287987536524 -0.19384935128641453
Ni 4.148640170690425 6.751774842548495 1.3698010958039568 1.0219399730607301 2.2274232874961766 0.42480512050682323
Ni 5.711848701179522 8.460507371994622 8.080218681712552 -0.008865677920746022 -0.9854159099927674 -0.6483820807646575
Ni 5.4227505761170045 2.8285309043196816 4.934229431892952 0.6112160132373216 0.8248494891291988 -0.15046172832939894
Ni 1.1144203534737354 7.44385273637934 6.979433834435494 -0.42443873830634 1.3666544587625495 -1.9484693931299348
Ni 5.015871061645604 4.617362396671732 6.872501900339605 1.8023253183392833 0.12329519521693605 -0.7910006589005538
Ni 0.7096929544798686 7.799981141654459 11.13796484853004 0.04297778911310663 -1.1461563945403552 1.4099924594285524
Ni 4.431598463564615 0.6694031398614841 10.314055597747982 1.6012244276967778 -1.2633632174713663 1.2700545134486128
Ni 8.258999349258351 7.752612835126193 4.817766700682272 0.7122354277751927 -1.262392883138297 -1.5783745196817978
Ni 7.520550758265142 6.289056411114711 6.828512768808933 0.2265938927072872 0.5336183200575003 -0.8478392651561526
Ni 2.969737975475167 4.988391458203015 2.1623319043579556 -0.9557443510702637 1.725589458939125 0.7581347614104685
Ni 2.379679243071943 5.721897348246977 11.294062599848031 0.8146437522407906 -0.11707441111820482 0.2448353554159783
Ni 1.3996368711852871 3.894884624709019 3.4062854855709053 -1.411407080387892 -0.4165256541068504 1.1028109376751847
Ni 1.7313329161718463 1.4340816018370877 2.6588729209662594 -0.6664487084583812 1.0379762005879867 -0.26702243303597883
Ni 1.5861626150809116 3.6246141091338986 8.134733498971102 -0.2477242469279992 0.31296701808689326 0.3828326327297794
Ni 3.550836361937375 2.738818614796877 6.800996888662129 0.8516326707603139 0.3988143528700164 1.917631067592839
Ni 4.180318802645859 6.848778749618442 5.756678545330369 2.249705753043461 0.8036772259269578 0.4717786610428843
Ni 8.134053310767078 7.611369487266494 -0.18953217575741257 0.649268854244985 -1.0110834899622008 1.8419064230660147
P 0.5889749658648117 5.636411294765179 7.921731202504422 -0.3749568295261284 0.004387587544734379 -0.5536623831925691
P 9.20267432516983 2.145295457141155 8.07640872085241 -2.230451532799539 -2.4603783465348017 -1.043357519504558
P 2.259394761072251 3.584546489328829 10.353504699746194 1.0267361088977929 0.3160675113890879 -0.12683071917402028
P 4.359208300304301 6.057538484816879 3.469534826286735 -0.20896460966129815 0.650962439897324 1.0953722220089523
P 6.9672584655834555 4.421604231553482 10.109322576007031 0.7760442947010378 0.03435713732363115 0.6753910052533335
P 6.64369747151703 8.083465446739762 10.075182569670634 -0.8313566941200973 -0.610259048640691 -0.6074267213982184
P 2.8460162757511376 8.644348639778363 5.634335360366497 1.059743417061749 0.45250747151809806 1.4164886086758572
P 7.252402429886579 4.152548985569552 1.4523768506901358 0.5635395330969649 -0.03248460289126663 0.19345288717894424
Ni 3.4052488787479716 1.9311994180424044 13.509263266010795 -0.7680129397561289 -0.776058949989057 -1.598489802374434
Ni 1.6071305501169735 1.0335958564835177 6.747490563780746 -0.2805289521628459 1.1308914979614846 0.8072222629657387
Ni 6.989604915379674 1.1082261062290855 9.04279744819028 1.8658495641451736 -0.9710506424100309 0.7338776886353168
Ni 2.6682241483951885 1.630529024335416 9.210111956451437 -1.181345026626346 1.2867039490798355 -1.177903862155281
Ni 6.595458524087612 2.3464497820113333 2.7394434810269748 0.06925189231828718 -1.3033760104188776 -1.1999212469666365
Ni 4.382053554783471 7.202431269830912 10.047268552695074 -0.0937413928192192 0.16507922113225762 0.9362073094786005
Ni 7.632981333802365 6.206091588575829 11.279714256413536 -0.8972108736107453 0.8625225781999404 -0.3786751589179801
Ni 7.854985694419907 4.379341871143426 8.122242522792396 1.020659049465778 -1.9867351214793525 -0.13454274310629732
Ni 2.9390297453574745 8.273727691169494 12.34970290256518 0.5170994964668707 1.0120422543310441 0.5765297747090458
Ni 9.427589891300597 5.023942628333361 10.052391730247788 0.27461104401651415 1.229801579465837 0.26345579873064306
Ni 8.719495832558989 2.525439040606366 5.728285675859176 0.9697126403248977 0.08688991711502454 0.12026566436199286
Ni 4.419862949751179 2.925571088093843 11.20118698171771 -1.5275394393078014 0.23664536340601824 -0.2965800920884376
Ni 1.5822900769059989 3.5538291900350827 12.532162934835949 -1.2660631329010323 1.77984950583427 -0.8328451057401657
Ni 3.2364080281569843 8.60964997219706 7.995838160791694 0.3633382714505936 -0.18296741426658814 -0.49815200883009053
Ni 5.508272906303017 8.020380258110503 3.472441497211933 0.9487447798239788 -0.0031305752091817054 0.29140497564540135
Ni 3.2254161867799485 8.678004352113495 3.208255491851213 0.19445921695627152 -0.10839899483139395 -0.31824009356037447
Ni 3.8273827473416278 4.5130215261743745 8.92467505776178 -0.7609506335927089 -0.5365612047359082 1.7807671325525332
Ni 5.5647103888849445 4.938873756950032 11.670118705665855 -0.8553674552123979 0.4674427526716917 -0.34533643555653426
Ni 7.824885099097809 8.974022258504956 2.4298626218472648 0.30017063765317337 0.36386689026055397 0.680040588210203
Ni 5.0884607467790985 0.7067672382849579 1.3542048337444776 -0.40405606088492996 -1.18086525877645 0.3695372011724539
Ni 6.215160764629489 5.848194693970247 0.5764386438058374 0.15675193221348488 -0.04577412091132117 -1.2944781937086158
Ni 7.93005126461605 9.19895596298783 11.363351104897992 0.1308807208736778 1.0424463205441983 -0.4579294138646178
Ni 0.42925498563099007 5.407342046001836 5.519385367721568 -0.29942218952292304 -1.198030457701827 0.23567245796978764
Ni 7.538135890633189 6.261431700855263 2.601742553333834 -0.08864109547817636 0.39771366360666993 -0.3010748946349976
P 8.846201291204672 1.5308043644493712 3.5456061681072293 -0.8550627794877854 0.9207282400063951 1.1666360025509455
P 1.842938196688186 3.3841630444232123 1.2819071760799112 -0.2968793684964113 -0.9808000084873109 0.9422545441139449
P 4.638366608412008 1.4408925530533863 8.304716158827246 0.14170969316838175 -1.5092673804714911 -2.071150608911956
P 8.975709125250935 1.9866846371386961 12.178459627237578 -1.6354288414926283 0.31251013305513275 0.32910171886522677
P 6.386622607099984 7.892894850324206 1.3563415316227199 -0.16261790407595866 -0.549721139156634 -0.40157288945175995
P 1.8226776573843093 3.3073380540726585 5.591872571165656 -0.6827191634836307 0.5443385346884819 0.38678930338468226
P 7.164032378419716 4.148295542000385 5.987493610484042 -0.6484129340025929 -0.13353538488770553 -0.5471032419178127
P 2.426612229149633 8.772323783071558 10.302866048332978 0.11936963491028474 -0.024213106911093785 -1.1367155608424295
