# total energy = -340860.1122847058 ev
CRYSTAL
PRIMVEC
9.36307982022919 0.00000000000000 0.00000000000000
0.00000000000000 9.36307982022919 0.00000000000000
0.00000000000000 0.00000000000000 13.70381375151918
PRIMCOORD
 96 1
Ni 5.354492658461818 9.170153753078415 10.714450546729456 -1.1822971061269703 -0.7182500094003887 1.3103467853097561
Ni 5.757470259305953 1.470499805882432 3.706594320732608 -0.5290247871495469 -0.10145033142770271 -0.026266647006012826
Ni 1.1933058219843249 8.042099235731344 9.100963400678083 -0.10687715887022885 2.340506060956485 2.1047490136926914
Ni 6.532826915499239 7.633166715996508 0.5428367359794568 -0.7980071721253741 -0.8333364435542873 -0.30107797995879115
Ni 8.428775714266187 4.414495603252679 8.484470123130267 -0.052327862869438906 -0.2962255369624963 0.9104823939086706
Ni 6.430254373914921 5.068141582307256 0.9609319658187578 0.6388900821138221 -1.3095913952009703 -0.6452180812143792
Ni 6.773907499772451 4.870412058511944 12.268600109482204 0.7476626582345511 0.08382567636740401 0.794829802838657
Ni 4.07726555028669 6.262271355333062 8.540600851523132 -1.1762562992495291 -0.4246359419188106 0.4024018131109585
Ni 1.8274672315238885 3.0182824742237377 1.1348933109913597 -0.3204802957448029 1.2560183470705208 -2.422955940022285
Ni 0.4432997049365926 5.7627978518355265 1.6203802455597613 0.11362193379323013 -1.5029344962749278 -0.1397512838904303
Ni 0.03385783364884123 2.0127906742969075 8.832272966051256 -2.047175586153597 -0.929139861108858 -0.7227406981818907
Ni 0.9159077229418511 1.0988978861746774 11.87147724257259 -0.8350629393270909 -0.942508826216596 0.029864648769916305
Ni 8.665268389331155 5.369801294289327 6.442875805777601 -1.8889139021638048 2.692082049664828 0.3791443852449148
Ni 1.9269874090227224 7.845877167818741 0.536601860996253 0.18215494566762178 1.4713628921162338 -0.5244667354652194
Ni 6.591758141125137 0.5096773880998707 8.894679766979399 0.6628998147648584 -0.022435446185380716 0.38453701701539583
Ni 2.975174853826275 3.111576203511383 12.178414922760144 1.4367051928330483 0.23457922490560892 0.9061806812095233
Ni 1.4545263913737283 2.8910943952751857 10.328043724899098 1.0848759504633185 0.5731467171694259 -0.2398114198388257
Ni 8.928633104044412 3.37417314566326 0.610004663096155 -0.526899256166112 -0.09599239363692501 -0.24773478845096047
Ni 7.425212708822823 0.33130228700733755 11.862665647968756 -1.0849278867471768 0.9024674940239941 0.15024575566385093
Ni 4.770994874893295 6.112724241304332 4.526548263354034 1.452914198492743 1.0257999702367688 0.2222721254034817
Ni 3.252219028444113 6.208124663595763 11.469406924182083 -0.47140302287102037 0.9548408654193877 0.10987249405312692
Ni 3.8140974602537874 2.0573214828569277 5.346405766251287 -3.8534480620660867 0.03147930155520385 -1.1531593082207496
Ni 7.132850535297459 7.114320999944162 11.588397626575906 0.016523451576319927 1.1047294948541362 1.0883698225491902
Ni 3.9795805364711536 4.164257926723012 1.3262784117672715 -1.1617894730919216 -0.5646859879965823 -0.6378755248063789
P 4.554745178824702 8.812952250436538 4.760060670049647 0.5045741103063504 0.1416176476752077 -0.08137747193722758
P 5.104479695852554 8.148810258683099 12.659980599417501 -0.5308793238597825 -0.17658465066869589 -0.2968153480276953
P 7.270019657543947 6.326726798168886 4.623474867688207 -0.3344624689565079 0.06580070054489312 0.6687205352116935
P 9.035081960755695 3.0591055030970953 6.557631587079812 -0.3618436891829381 -0.0692277239485711 1.368492797522869
P 1.9533632054301189 6.856274514680463 4.7681597342642 -0.6289391415486975 2.351334776140873 1.2772628582715937
P 2.8748962668460782 1.2302525357307168 10.956925293617173 1.8374967240340936 -0.5618076380075228 -0.5515152549425792
P 4.908388711060187 4.1006451610887025 12.986651907048516 0.4146569763292278 -1.1240356513819156 -0.631031762411668
P 8.178425680776318 6.30589394513145 0.29765512265887484 0.5229060758463188 -0.8346348506507367 -1.4537042984942061
Ni 4.612300031688126 2.0657108025520032 0.27293471879845327 0.685149113081362 1.0831967629886827 0.922623657256895
Ni 0.29143522860369797 5.377900358503881 10.366990392537083 1.923297264739681 -2.4345708985533943 0.7199312537575536
Ni 6.683741039210427 5.282181591491878 10.123172043666953 1.1561171052974928 -2.925154351007607 -1.0915232805765072
Ni 1.8142371994601147 9.350767566602972 4.606619451041919 0.7988630923677662 -1.7517350069862412 -0.9960767321407231
Ni 3.843694156186971 3.4893764821902757 8.670403102412381 -0.5692072729057036 -0.02891694014466633 -1.1396347913717535
Ni 2.5839760076433063 1.090723917319989 -0.04181551535514088 0.574806621370352 -1.5731826910682134 -0.48440329178543023
Ni 8.318347548547752 8.5901109460361 7.705819535387063 0.05673036281250875 1.3457156517273534 -0.7129321967319012
Ni 1.029976254170828 4.434766671489106 5.571272304859363 3.6462999367882363 -1.1643376934350722 -0.34896683322027
Ni 6.985925083673441 0.5276048774080857 0.46796486662491493 0.6009753093459199 0.9537787427034604 0.6520790700002705
Ni 5.1954045658959425 2.027228543682852 11.607706170186603 -0.47589988230010943 -0.042395948467707625 -1.136700648444094
Ni 4.273983861440185 6.072987329712926 -0.17920373367402226 0.29570900233739394 1.4398648215079526 0.2331566335264694
Ni 7.692931255743903 6.58797545679834 2.455380657768225 -1.3489786387493412 -1.4916668937809086 1.9616149293729574
Ni 4.713608557470174 0.477782056022556 6.871338774119533 0.5212639122572055 -0.02031120075352631 -1.187285560480497
Ni 3.5387011877189103 7.864041543051381 2.772254438469635 -0.03129521056885578 1.7620507870899524 0.43498823168741213
Ni 0.8981665589259709 1.580394276039908 2.6606231169690377 -1.1728357036037544 -0.6392302390620604 2.047471005906828
Ni 6.414018793165746 3.416840701299932 7.837622676475908 -1.939928445538459 0.2792464859059965 0.01709012271306734
Ni 0.9917936138622152 1.9671269330548518 5.202707768309066 0.13995337259890736 1.342409984392888 0.09955748528036401
Ni 5.977596270501512 7.184918623271024 9.537141546953878 -0.3272806064960879 2.8489293698055964 -0.6134369321480403
Ni 5.273108766955575 5.42886360303546 6.665164688457046 0.7209072445175778 -1.5242312008701748 0.3789479529633925
Ni 8.005648765225844 1.7622533792067017 4.562123285877961 -0.12996360837604715 -0.5133996790177804 -0.3228025161200763
Ni 8.325959732601431 2.609181419048599 11.406081605104292 0.9826458034467979 0.3207620886512798 0.9842141763751825
Ni 8.584708448866392 8.352513427529146 1.6194617274101106 1.608616606395791 2.4099363878341657 0.5888659276768955
Ni 4.793812700894297 9.24197793988748 0.9194778653522665 -1.3023509115884733 -0.8888100511415596 0.3376930600786636
Ni 6.790124354361593 2.7180365873242076 13.197608653983599 0.1574607853550514 -0.2670584284802368 1.0983693569640631
P 5.636658437848859 2.3094692277100277 5.931984026199548 3.7441638364162615 0.7596337145534983 0.9837878874710412
P 2.7754790832274296 5.032898949123926 9.860003953634049 -2.4988819019266386 -0.5554349017119595 -1.3149578017192063
P 9.008106927227223 9.34811781495821 3.724449714324693 -0.047586491529711596 -0.6581800406916858 0.13489729823223867
P 3.149028523578684 1.028421982888035 2.1633658545114858 0.7295978303130403 -1.096031452859506 -0.4454320527285555
P 0.9134883030655035 3.183119497919944 12.40345935988854 -2.145969196684743 2.039595459813494 1.7654556990064434
P 6.615240745807334 2.314272487758659 1.8158654390750406 0.441076346863021 0.1898677409308472 -0.9266939706715266
P 0.485915763633172 4.016349351697226 3.2728131229411197 0.6418764184356559 -1.363124334122104 -0.43815068857579376
P 3.279315782012805 4.034672899290152 6.648788661507619 -0.33232948177390503 -0.026698849447424986 -0.5189643175897514
Ni 1.0959953313694617 5.8900701985042305 12.935934911521379 -0.3308564967728044 -0.03399923976358016 -0.4066438762167641
Ni 4.428633854078085 1.1810776394823512 8.966007710547572 -1.6562437213554508 1.7299649622990014 2.1532135369519825
Ni 2.708673507307383 8.567948535636274 7.417051848280158 -0.5005341359090218 -0.5034831912350167 -0.8283503031936057
Ni 1.2942960030458004 7.472234096667319 2.858560501140724 -0.6673305968427024 2.032657080822448 -0.24608953953805357
Ni 2.228619031764743 1.6575554184585635 7.808775963252072 0.33947637723133145 -0.02549274495446577 -0.49017850370631066
Ni 0.09022451165812999 7.734746771099044 5.948414359013072 1.172310941448536 -0.2671479028702496 -1.1291441762530747
Ni 4.568714894209806 4.324675576651276 10.669063016347897 1.7076961235984716 -0.09695527177082656 1.6233875940573785
Ni 7.283268415767754 3.8228893923895857 5.462916188748651 -1.5490773133795774 0.2002655392254035 -0.2776277193556509
Ni 7.1736642010908 8.628265497104662 5.220878697697719 0.49619771331719703 0.1943039223253299 -0.789237396352544
Ni 8.624361092737647 -0.010169241206273737 9.98447580306972 0.7311374068860182 -0.24629497068064038 0.5023675895733347
Ni 5.853057943197721 7.842834166813272 6.993028852482205 -0.12589638028520897 -0.9873560644382736 0.6351049040397772
Ni 1.2285297290076207 6.2800237550449625 7.9569008254262465 0.5153277492784286 -1.6474351219248855 -1.447344160604133
Ni 2.733382675471784 5.383321581833623 3.5522345835752294 -0.8547611890869665 -1.2989267163982727 -1.3478802634788398
Ni 8.536928651540535 6.927855261409091 9.196355396197498 -1.8187891203222613 -0.24316876634683285 -1.1228082067327179
Ni 4.84240708618162 6.073371215993615 2.2290487971375152 0.7314816775993144 1.1216134150936685 -0.3572439856273976
Ni 2.563985831807384 8.500169199394477 11.850661243079184 0.2702895338230248 0.43648975593360306 0.1669998351937382
Ni 3.2365545955759645 6.492958920787598 6.286378477452381 -0.11414386773497116 -0.8264258324773832 0.8469959433192509
Ni 7.61460909140316 4.013072273691337 2.9545835682532737 0.2605201131410868 -0.26164522788446554 -0.22176896051481806
Ni 7.44459428445765 1.4418487810309468 7.042664412267397 0.5469618312439418 -0.011720116650405621 -1.55985589205232
Ni 9.134864304495002 8.627778616943788 13.06390106241933 0.5346555030727631 -0.9012302791827833 -0.5873294364277111
Ni 2.7477924556176774 2.893987587000385 3.11996084166645 1.6999501611044658 0.890914241968756 2.6479966293098394
Ni 5.870978878349924 8.215578382283079 2.995777375095297 0.7341844212424582 0.18708606442065198 0.2817461123993986
Ni 1.2933971473641852 3.901548627610933 8.259233742861527 1.8417922660856538 0.9217916482739028 -1.4070675724722734
Ni 0.1295382120327752 6.001837284665072 4.127835545457562 -2.382502717103245 -0.7660437318448999 -0.015544118382186134
P 2.598376424709183 6.067406934022897 1.3483153568948711 0.9163951598486799 -0.591906257165116 -0.007219400566574664
P 0.6419346385695319 1.019040176711176 0.7002937800064011 -2.2796591048724415 -1.1229056515425304 -1.6432241691673313
P 4.694545326555918 4.218788504741001 3.4006566174908492 0.017587374064460034 -0.5794682885120794 0.47446494962579583
P 0.9434520317353472 0.31344033925924025 6.619367055170749 -0.5621123137321352 -0.2645323196242734 1.1779843376842292
P 4.296136908759993 8.438475865163618 8.798053717513765 1.0019640441594357 -0.2945185815737186 -0.044893518078580746
P -0.0656848152420331 7.278287257198803 11.107914321968495 1.0123978378982499 2.111814662290221 1.8983974161742083
P 6.891975938784617 6.042182796457571 7.984280344011445 0.32453235432698946 -0.633964876898063 -0.9514554938869226
P 7.31374524122252 2.711210901991942 9.658036699823121 -0.8408216961877389 -0.7549116264874806 -1.242804676593724
