# total energy = -340863.70645803 ev
CRYSTAL
PRIMVEC
9.30889258350837 0.00000000000000 0.00000000000000

0.00000000000000 9.30889258350837 0.00000000000000

0.00000000000000 0.00000000000000 13.62450525324678

PRIMCOORD
 96 1
Ni 5.219943019739764 5.2339063589395645 3.976829751688419 1.1848350420574754 -0.8151757134848605 -1.3850555869775567
Ni 3.981711335072669 3.2397367255664777 13.717561157651863 0.10546330924183771 0.7253017740408476 0.494106120895491
Ni 1.1350426079805709 5.648645459852035 8.103311125806059 0.5812153531101731 -0.11139561556587266 1.285646968570231
Ni 5.97766827586333 2.977924115570221 4.91668908077706 -0.4065374325458869 3.093988668306923 2.16830128452304
Ni 9.039288646597154 4.128345014456172 9.676941287163078 0.6805298691417957 -1.5467823466978134 0.04149554814062531
Ni 2.1119736717554027 2.184415475523967 12.534898908553574 -0.7948367448171925 -1.211187049688443 -0.3224767573495414
Ni 7.259167694264208 2.865751957331825 0.41606468724717105 0.8799999090490974 -1.2207757218181428 0.46625387456991313
Ni 2.9637466718360237 3.2036740748597934 4.560421928208394 -0.697287805326425 -2.351357144738376 1.2424269815393312
Ni 8.454308514160719 1.5591743817281067 10.02432496333283 1.2974336767925139 -0.5427580775752394 -1.14164333716135
Ni 4.255448636745554 4.598332394135853 5.966852273319165 -0.8990859791462709 0.06813371955344395 0.547525931277528
Ni 4.182727566192995 4.861541338052089 9.591870108532934 -0.4799671103909476 0.5391184239401231 -0.21526921172308733
Ni 4.986550459461502 2.811471803415801 7.638088968350629 -1.4506323444371017 0.7577763496297852 -0.8496158974406013
Ni 2.904020815632078 2.724210242309849 9.069411292808244 -0.9890172541907805 -0.11144035276087905 1.0351148198797915
Ni 2.4776176720413745 1.9198101976877502 1.2988884301510282 0.23565471735797477 -0.6612939037303192 1.7319254284594818
Ni 8.280437014444805 1.9707298413030223 4.815417636007308 -1.3983942130679916 0.30480659376328795 -0.4725451068952636
Ni 7.12398395302454 6.483615908428897 3.13257368254369 0.0740516276997757 0.20040206480326775 -1.875303767579538
Ni 4.960578648549872 8.817085375464332 10.731682593184155 -0.40837114332051605 1.4015582126182702 -1.101481934451116
Ni 5.670204855576527 5.603860376591875 7.487905808142537 -0.11609507792407103 -2.1981610481969502 -0.14656316460594113
Ni 3.866476551103117 3.0572172644394877 11.359581375874377 0.9942893012229973 0.532985828679824 -0.6632957646516964
Ni 1.9579487314888049 -0.07689145452690059 13.658294229862951 -0.9849348565912908 0.25118032379739963 -0.6250189805586849
Ni 1.0268732736461177 1.729182690932076 5.634850611611912 1.0019694434760742 0.14711132379992728 0.5594915882798365
Ni 4.056768937717996 5.773012267658256 1.8643906352930226 0.010345090679749926 0.47903251439182015 -1.124290190594883
Ni 0.992085941253015 4.3414721151091245 6.01332505884394 0.46287955878104153 -0.8916086969326192 -0.42137449755871953
Ni 0.19730570645029888 5.986874770842399 10.954647331748008 1.2191538699440037 -1.0180128700921824 0.2637974983407779
P 8.926008730115575 1.2018897671764153 0.01554678186505771 0.09622764957618267 -0.03289392251454335 1.3597600456355614
P 1.9804948698500826 4.827601114903774 9.965658459129509 -0.7410852621273494 -0.6364668173843103 1.1283101103875535
P 6.270209540991947 4.551145616533327 1.5170069591232695 -0.49643348347708693 0.9458088371241065 0.5742890583039851
P 5.50914239235323 0.17273022945865027 7.506911774572025 -1.5414313667985453 0.4024082408688618 -0.24906687699882268
P 1.446769501169714 1.0359215174475882 3.6073058048834623 0.7210936494967711 -0.6228785371769143 0.12089687018808856
P 3.76341779891579 6.5011631713566445 4.796003009183906 0.45204390161811825 1.698762825664584 0.428031854974237
P 2.6675842474082585 3.6435564952247037 7.207063959484793 -0.2674600347940297 0.4714950683641944 -1.1141338188871717
P 3.256138994679843 6.551747694831122 8.029575385938312 0.9886719550362199 -0.03683722343300753 1.1616344355712962
Ni 6.581033471579503 2.813426670903773 2.901284001148917 1.0139129889911958 0.6387185895329645 -2.330838198849418
Ni 2.604246540797964 9.320156560154738 11.458277050006409 -0.11781925970402934 0.43428940584817466 -1.43801671255562
Ni 0.6627587244471638 3.1646325784571516 0.511673532526764 0.5979380651814927 0.9123287030887901 1.8179054321657273
Ni 2.7284178618553887 0.011333576983837952 6.055970027649411 0.6997126127178336 1.9012968492091902 -0.28545467159923743
Ni 4.4025477607690515 7.603848067964879 6.413545079656458 -1.1708860360765512 0.48978435359168554 1.904243847652656
Ni 8.244793263914115 7.8484857707453815 10.629716705011536 -2.7237973784902376 0.2693683075603361 -0.4788016293279367
Ni 7.308123161498708 9.290870783406357 0.9611189784649778 0.3930383696181876 0.772649667197192 1.7202209955383603
Ni 7.14429595711385 2.102134172065943 7.1948693099169665 -1.1531279407621817 -0.27684764665651673 0.7588281879330673
Ni 5.917160472664196 4.310287324229571 12.957981570082566 -0.6843561848664214 2.0000773471142135 -1.2600621781225914
Ni 8.900102081453545 6.0961890989912355 6.428927094118959 -1.6097134390043955 0.5570791221836019 -0.6620040424234664
Ni 0.0014903537372586905 0.33881390945819556 11.701379716364212 1.086388273342787 -0.0872717259344755 1.027649364740682
Ni 7.104007069076026 3.0449109081580636 10.77897269949676 -1.8444091348832106 1.6122855706069457 1.1698431966343337
Ni 4.926973545542353 8.34514312829668 1.6005663735627147 -0.8163383663343942 -0.9654718627706729 2.0204201724366233
Ni 3.048355198494014 0.22540925381309707 9.24524883068349 -0.008162995426766587 0.054497102606615826 -1.739645679921875
Ni 9.188007517967828 1.9242970840172862 2.479101509553673 -1.2520704181663662 -1.6305604576567339 -1.5674139069052362
Ni 2.5868761468334123 5.247339091249773 3.75150800146764 -1.0966305198960855 0.544194810021766 0.2844655682130907
Ni 0.4549125586795756 8.521183600034963 4.994062735950995 1.0875085029901592 0.2937127978429716 0.3721337582550366
Ni 1.9675741266438673 7.279060798177523 6.516287329488589 -0.9249772450907361 -1.0434071417955708 -0.771310122450162
Ni 3.959165196711391 8.044884791036973 12.792320513816133 -0.562027981548445 -0.7995799159291327 2.028115998418985
Ni 4.99083255014944 1.581394708841389 9.703658740387976 1.1500199912608196 0.5999957190414699 -0.31136162127298633
Ni 0.8568305215387889 8.332613358588059 9.516580714456891 0.504259407279409 0.32484422914045347 -1.5212991148250445
Ni 5.357807722105793 7.0656171951693745 9.140326438157631 -0.49576191133135905 1.4057758502440436 0.08711771685511449
Ni 6.193755604426641 6.928636837619334 0.4925679609443172 1.0485632320752134 -2.9490018470491663 0.5351650957193299
Ni 9.086363717486082 2.940111393017162 12.198415014963185 -0.6844939959958664 -1.2591188403727154 -2.815985310779408
P 1.1771094945431695 7.710872408484949 11.67284982171118 0.1875601758435931 0.38124471941736926 1.0524761939763745
P 6.6391395804362725 0.9465840732472656 11.210338413839072 0.09794694626013455 -0.5734215680973673 -0.6011383172863454
P 2.803307904430318 7.86602372478033 1.4077522078883515 1.5237370348425758 -0.05368437689733335 1.3424133268269978
P 7.7142887721425 7.367225321885062 5.040276734255933 0.1875732884697157 -0.3054347142655901 -0.1690664879147798
P 6.248789778659454 0.7355831237098025 3.1631608425054925 -0.5250210653067926 -1.1763331752340516 -1.5712173398117264
P 6.073652269522758 3.9852207876582186 9.17681264348671 0.6401355244851492 -0.22999803329282972 -0.6479357372558583
P 3.820900211954968 5.430510174872754 12.44627173287388 0.057221700626630484 -0.5372877984892875 0.43528699387475356
P 9.027028834779731 6.847733250295691 1.8993511130922027 -1.312260457392701 -1.1680866189545431 -0.8447002053065388
Ni 6.575960125003576 7.611732700166366 6.929396443271802 2.392873775924924 1.0409617655788717 -0.2942367886672416
Ni 5.956136806817238 0.8462304853075805 5.320777877437203 3.0196606470173095 -4.147167544777277 0.6593555490570258
Ni 6.2595508587361 8.541318735161076 12.641320032820213 0.9363487201524713 2.486131287129189 -0.8691909913590514
Ni 5.08666760152407 1.0943720553379526 0.9918802147221379 1.0319963288554677 2.513081847576104 1.2243917213041753
Ni 8.060691291011148 8.844127709047944 3.496838104916722 -0.876482125703826 0.6829227948540045 -1.0350942510545011
Ni 8.500927449302452 0.3204055739464588 6.872295694837419 0.6693478843830473 -1.7690750409265854 -0.055998883963122914
Ni 7.000026736501512 0.1281843847434472 8.890330536681525 0.561206256978098 -1.1879576468468573 1.1379669167510273
Ni 5.488625592622323 7.9602017932365845 4.379801481212577 0.5411583371882873 -0.057763946283345684 -1.20023183622852
Ni 4.068302655897031 3.3182851630117547 2.6022805026386324 0.7947601259429861 0.8123439004630204 -1.067177247631975
Ni 0.3452109805902641 6.250977368467423 3.8655586942730498 -0.13383183308220176 0.07725316535620888 0.6255864230263806
Ni 3.153164022527716 7.014092473522112 10.270887745144345 -1.0269266276420443 0.16172238884488277 -0.12257451500082761
Ni 0.05334274841107729 2.320437017115622 8.053159465846775 1.1736461153201916 0.8683317286825497 -0.8691174578086386
Ni 1.7719477444546643 4.465289698240155 12.334659969982038 0.3403081291040075 0.7140686243291896 -1.1114164199560084
Ni 0.6494823815359936 3.5972354446525663 3.721179628725674 0.7003924123936777 0.8256154207609459 1.0729290625140875
Ni 2.8666176843622124 8.34441703465829 3.7355804858870685 -0.9933940431022376 -2.2192749473574294 -0.23826901505237028
Ni 1.9626962668167371 6.404406539594829 0.1476278691345292 -0.3361912787221565 -0.36379104271729606 -0.44198317494800654
Ni 8.311761438716358 4.919451960160061 13.005421549569245 1.5604580444126932 -0.8643051240216598 2.2359030428324136
Ni 8.677545072394327 4.439206180614928 1.9455250831581026 -1.299593146337678 1.5257607501408237 0.1484315852732476
Ni 5.339916030144449 6.787877069592546 11.479491085808023 0.6630507385204258 -3.745803171791897 0.32102202718088585
Ni 8.49540727587213 7.888123036287214 13.134786301919716 1.0265486754773352 -1.5520726485624754 0.5306276128602927
Ni 7.714335316606499 4.631583759216976 4.422296576843969 0.5648489959370078 -0.4782413859490925 0.6232873425795589
Ni 3.795673112467329 0.9538543185239616 3.234743435468629 0.952731789496185 1.2968451512788954 0.4329298064964866
Ni 7.486583945364956 5.757894625751272 9.189701736457405 -0.12276220553160148 0.33770694403573454 0.6401416951327362
Ni 0.7543554369300141 8.63333714048776 1.9283855497349878 -0.07791908107498194 0.8606346171486082 1.2731946017394913
P 3.985732776762211 1.0545113763689224 12.9457189655973 -1.4132698446282435 0.1606219566918524 -1.327135831842637
P 1.3653073802780786 1.6684887098769436 10.510352496195962 0.16003317406791795 0.5939348575593706 -0.5985330184530144
P 4.327508775909324 1.849472203691956 5.570651832417631 -4.3172066810179714 1.243790180435445 0.8889684310962949
P 7.418293907785132 6.148421296491289 11.79244582195747 -1.876811719583632 1.784017778279347 -1.556066857323533
P 1.2380734334894978 0.5085848418957681 7.660351185481511 0.9397099233152204 -0.598752333552672 -0.2785630866857267
P 8.419437401732418 7.424288834748246 8.100313662324501 0.7526976495552973 0.9440928828742644 1.5118631662231252
P 1.913033323729447 4.3628546418704195 2.0031704018212784 -0.013726348447157003 -1.0192832521641735 -1.8848243054754634
P 8.114850429320773 3.7285466864874888 6.406460081346479 1.0983883831274568 0.9261676658544115 -0.8180939155729201
