# total energy = -340875.0721221765 ev
CRYSTAL
PRIMVEC
9.15320285459644 0.00000000000000 0.00000000000000
0.00000000000000 9.15320285459644 0.00000000000000
0.00000000000000 0.00000000000000 13.39663759762396
PRIMCOORD
 96 1
Ni 0.732515279183751 1.4925579012026893 1.1611625237054868 -0.7030943847058729 -0.27182756773410605 -0.002773191869762966
Ni 2.005549165815999 4.04264026932238 3.8087978992298654 -2.077538257605854 0.41102066512822116 0.6593444933134323
Ni 1.7094796601476592 3.70661703236602 6.291449535843092 -0.8480464960709525 2.9760470240924164 0.3311174637436749
Ni 7.829549198792297 0.8791166404211962 5.771807553897853 0.47622975483570235 1.1926581376463201 1.2027360907076126
Ni 2.241839102402538 1.767016694483626 7.229388320307664 0.3121463219578108 -2.215148583893882 1.3824286908776706
Ni 7.286059461635648 4.278316941304957 0.04113632512133351 -0.4952674881934438 0.5242029402808714 -0.8041785910434085
Ni 6.077717668159033 7.535896138727632 2.245785963555206 -0.5638928026713257 0.8374057285276546 -1.0175798963198217
Ni 4.595255749914118 6.073525501164781 8.531461658918005 0.7755766110359997 -0.06991935069895701 -1.3913013107769523
Ni 6.250859656943499 1.2007629413560001 10.498730298962466 -0.33934242275662846 0.8081766564592082 -1.098898747104972
Ni 6.378446154176881 2.662337250254005 5.93073187239373 -0.7823386123501817 -0.633168863359329 0.7220678404845823
Ni 4.097037755014179 4.315222655979252 4.39788889395282 1.4524133475969245 -1.7463274628174248 1.6894896278927742
Ni 9.226886328725966 5.978680011220573 0.06122028324096102 0.1411319662880408 -0.3361221160471179 -0.7596645677914337
Ni 2.6825566757786867 3.3145670395759894 0.1309475533912201 -0.22998312089449424 -0.6605948207807655 0.7303323944862196
Ni 7.4234307329233005 2.5295700400975942 1.7394866056875256 0.9868014774863844 -0.5577566078666008 -1.5107588774153529
Ni 6.687998327929358 8.79348216458215 4.158316618754624 0.23538269464351075 -1.5447241786172043 -0.36263738872882706
Ni 3.258558590148407 2.156421411593877 9.583324869752156 -1.3467155537467774 -1.818443306947068 -1.1569079766299042
Ni 0.6836884328646639 8.174441889498508 1.4723979714977948 -0.23109100924669232 -1.151390646356101 -0.20635905371765104
Ni 1.3251275111178173 7.22671924629997 7.0112244717095935 0.7815989059706797 1.3291600613615173 -0.1411975294186536
Ni 5.368197980983275 5.736522871482689 3.288566451008578 1.0273570303112434 -0.18622320219972444 -0.11887624021363397
Ni 8.303575278046363 0.5842480349922579 12.657706369525986 1.2228608864819457 2.1560196389422095 -0.8034170302870357
Ni 6.533876695070781 1.9181360767436981 3.9083215912499742 -0.019810864078340075 0.29274940548843775 -2.3633847653268716
Ni 4.729240336075411 7.410671167879658 4.962275393659426 0.3816784645206781 1.5001211951958486 -0.5360323288156317
Ni 3.416936462422546 5.875798009003541 6.043678736678188 -1.703261741976202 -0.33095342736198485 1.1397193806657597
Ni 0.1373383197566945 5.586007600623535 3.232246792677492 2.2345820100281446 -0.7709846207899432 -0.055163532546021125
P 6.389246933769061 2.468536482198735 8.697579479686334 1.5683089079156796 -1.2142731448129347 -1.0771083907027579
P 1.0895972903839484 2.7395445179320004 8.927572927898757 1.514266119237663 0.08152299637615638 0.41832311232690533
P 1.4333000646944092 5.950543065062641 11.49734292044626 -0.6692172723424539 -1.1240173965494706 0.11125471911263421
P 7.05849252755025 6.330108088900356 12.158989525060138 0.9431428602561693 -1.719321366542226 1.6115697754868437
P 6.975793338045722 2.5940177427319466 12.048815165977773 1.0861352767917165 0.32046204091235775 -0.09163411666822928
P 3.6446223881475177 2.6698337235472214 5.709205136997213 0.41894377663003984 -0.6497632773829003 0.35275561083874085
P 1.4167053075752383 6.296158858809344 5.0554092346343635 -0.5855625743352755 -0.5235167128471242 -0.5823618080097905
P 4.649964444509421 8.951100321003619 11.274208882595177 0.26830567062377664 0.2781036305508049 0.9969946159693023
Ni 0.07714502589729498 0.4799042662490633 8.031056963810801 1.5983627898782666 0.36270192341817536 -0.42678229883785207
Ni 8.885124033460881 2.7271693874162155 3.5295986620923276 0.772931974324301 0.9827990411952108 0.28942831153500476
Ni 8.562556004979525 2.950681452553023 7.555435481266128 -0.7631376139416987 -0.009035113619074763 0.48945422394577637
Ni 0.395984954778741 3.9657442105478884 1.2769148447229974 0.31214863595065595 0.23287638328188925 1.1411376011695251
Ni 7.019234439693591 4.270271275829087 4.287928719821692 0.30635182676322076 1.2149963961322043 -0.1448999179709053
Ni 5.976931749439127 0.85943450791521 12.740470546772128 -1.1202473879840773 -1.106106834817637 1.610078535653298
Ni 3.046341577568166 5.566209222438887 13.142356571553476 -1.318052124373814 0.47538386189563936 -1.022435167529594
Ni 3.9818355414996267 1.8622466189556908 3.1670988700102565 0.649318476535998 0.961571499275002 0.16055510800965897
Ni 2.864302675424719 6.208388794818317 3.3434655322272007 0.17705670520910796 1.7899850516063753 0.8312865030037941
Ni 0.6072720019296889 5.1162011479728555 9.529872909934824 0.4925310630988872 -1.2519297788234438 -0.4891665175020285
Ni 3.7638977770167488 8.060392979567526 7.213995378748199 1.0933202245759301 -1.3441017702730143 -2.5141120886128316
Ni 3.694836860048109 1.8054693004723943 11.97303030605285 0.8623731971062696 -0.9819495487107216 -0.8726902627615616
Ni 9.009909650562733 5.443446463209809 6.572591082666614 0.0878013731857004 0.005701164149835342 0.45064187906426906
Ni 8.603516588602409 7.116102787510571 8.401915460912853 -1.2137491539886645 0.44682610486260466 0.6585551646429174
Ni 8.63488461543495 1.9264288787017616 10.057458956802142 -0.6630615371537032 -0.2048251335716279 0.4509473261198298
Ni 6.302648479767695 4.228917104475301 7.400370153173694 -0.1462086094799998 0.9406699732356445 2.193128885089681
Ni 5.218689562458986 2.884101053609367 0.4950473253654208 -0.43660082759017066 -0.204405529535706 -1.454629895632269
Ni 4.981621603613688 3.4956448553997936 9.874809536015645 0.25577308537440463 1.7888954180866221 0.7380099656361354
Ni 2.2033590368046374 0.28155069499959823 2.848178392942021 -0.19541155356721185 0.08892623081876298 -0.3502590696691323
Ni 5.246268163231221 7.469709327514877 12.886091599963535 -0.2135468297153419 1.3609676927904175 -0.1626227891719651
Ni 0.42691728914637805 7.80424059237503 11.91289284673202 -1.1797136616705102 -0.28884492822770896 -0.27698365801374875
Ni 4.852662125923673 0.8689886212527669 5.1868428231072325 -0.940203060901555 -0.9644436786164744 0.8337897290416222
Ni 4.780663030777839 1.439652387607098 7.652186668084143 0.18549840821855795 -0.16038310120816893 -0.39022635409068923
Ni 3.4465013082553764 7.4601716899428006 1.1435956964230198 -0.16919092930778604 0.6934177808480574 1.2489755812911263
P 7.604261412264911 5.13714367653803 8.97588170292554 -0.14473151071384105 0.9223855731041598 -0.6527634976618049
P 5.733987434239439 3.608961509087237 2.3688873912969206 0.18524361189527452 0.6831716776400171 1.8873275315132916
P 2.121099201046232 2.725018384700823 2.241847340285278 0.08304251834447633 -1.407426498473589 -0.3698441908899115
P 4.152204109761693 8.58536578696572 3.1583511538608953 0.4345413739579807 0.36206069028975063 -0.14989659985454828
P 3.2305040228178727 9.22533028420845 8.659131450299089 -2.2817409271021347 2.2879398568239955 2.6604754785031406
P 6.141332429316362 8.510437666845736 6.450253032058787 -0.5206902991419226 0.49177413032820466 -0.7158539983643865
P 4.486003118378308 4.426479838981746 11.833584918955376 -0.7440024357741444 -0.5966144612740628 0.8349199859913233
P 1.5075508477891217 1.7828883485623037 12.43863086190471 0.7506263688485653 -0.8990157880299678 -0.19696861364168658
Ni 2.120302872381385 8.940876193203225 13.062726451029675 -0.4657550805566237 0.015469299280192713 0.13791654467453668
Ni 9.136882883192152 3.1232193299365703 12.500510175764855 -0.6458215191263329 -0.06087652377039838 -0.003528324868232633
Ni 7.961309556613845 4.540199233603135 11.061470137441416 -0.7744226999372147 0.3890739856538009 0.02562721364980103
Ni 2.295321267789916 8.36920374387342 5.040646033444341 1.451142965524933 -0.7307023762311287 -1.0062400458269702
Ni -0.06794971811907156 0.3776034924253384 3.7534301740153793 -0.13510555758830278 -0.8096442421436701 -0.597336684152068
Ni 3.7844375646479786 3.9191361006467202 7.675804677899144 -0.046927517789474016 -0.3972711767526126 -0.19669916203038385
Ni 2.1575197959591836 3.5360104808248036 11.102249487644025 -0.9260044008036697 0.9437720091997358 0.1381368882154589
Ni 1.5476327239197611 0.38631276512191376 10.76762852139404 0.3724039811972877 1.2805178748737818 -1.24790343127287
Ni 8.246495903862607 7.74368300103447 5.8508207485364725 0.8489947189168345 -0.42836532705425584 -0.8595334136646293
Ni 5.373323774688039 6.26294188496187 10.831476689228996 -0.8136513064205343 -1.2863254826944943 -0.7916336644988624
Ni 3.5549759175324276 0.9244185882479543 0.9003090514294788 0.5205473458061551 1.1075780200465246 0.3078667207458504
Ni 2.9338853249668797 7.603410164381798 11.290659934426554 1.6521525820052128 0.8131471130906059 1.143980984155591
Ni 5.11642997804896 5.623746256774854 0.763930902672123 1.4930025818731965 -0.7132882945197393 0.027468637733913982
Ni 3.2446548747242367 5.608323109645343 10.247315609665659 -1.224751161526123 -1.848854315138758 -0.3205851967537834
Ni 3.7448225018725947 4.319158533288267 2.093063855442091 -1.0126989140784366 -0.42548620573424784 -1.0179776459788727
Ni 7.404895496758756 5.7712135110202825 1.7611888501053712 0.6901596789220759 -0.5499643655156915 0.3404274282906911
Ni 1.6343867823728782 1.935655307370335 4.8090443674570515 0.7300979098779103 -1.3241734067802031 -0.6233547054823845
Ni 5.731488609808367 0.5722692381682872 1.7553216469540263 0.1294568439429577 0.8395076053620057 0.18178959190840305
Ni 6.862650595216119 7.914280399372643 10.803946600432894 2.007213958158995 2.3124843789325786 -0.03530741705204242
Ni 5.151486745708323 8.398805202518428 9.251209135175372 -1.2712166520775139 -0.8222673302243194 0.1288148394835846
Ni 6.858824556343635 6.440550636831914 7.093023901354875 -1.8213666512414504 0.540989672820907 0.8121181576054595
Ni 7.669844112076748 7.885054222052449 0.2137648192150182 -0.9331476967166703 -1.5651094271417754 0.9389902715403764
Ni 6.948553405786123 0.14737663753529057 8.25689760380206 0.3837302048433843 0.6951980126769317 -0.05416645874007446
Ni 1.4475790614433925 7.354433888375971 9.5334490663642 1.0044670130869475 0.5605609100846153 -0.4589365149728935
P 0.7921346672122781 0.2586255826550448 5.945802621206039 -1.027983351041333 0.5749197499094485 0.8864904018694475
P 5.517660633492344 5.518914622309402 5.683804998549504 0.45433835407924983 -1.2422994548225315 -0.17353455098846243
P 7.952192966381802 0.30376643410822457 1.7917870925618942 0.0873650569792302 0.09649375875337576 0.15807090813522454
P 1.6651598510075458 5.964007426740689 1.6298348944989876 -0.12088247201038538 0.3640959755522245 -1.4369260505946027
P 8.774425195844083 8.687204324035712 9.967835369194663 -0.33676643449933613 0.33276194132563336 0.2472938442587999
P 2.29075381947085 5.627874351347797 8.04564533882268 1.2189193853356943 -0.5349138989404724 0.637917690898224
P 7.694484534671788 6.590214659807955 3.8805507732138103 -2.5300308167256165 1.776229906803812 0.4087416392860573
P 8.783669930918746 3.6547641371205137 5.524572217111035 -0.38579351513031623 -1.7604003959707233 -1.2544636009888912
