# total energy = -340873.77264362853 ev
CRYSTAL
PRIMVEC
9.24134322453732 0.00000000000000 0.00000000000000
0.00000000000000 9.24134322453732 0.00000000000000
0.00000000000000 0.00000000000000 13.52563993839907
PRIMCOORD
 96 1
Ni 8.408097607941398 8.96996204101468 10.4199768643547 0.8107367038769004 -2.7281564267898823 -0.5324446114643733
Ni 2.135082997409804 4.472154035966382 0.050745140355083075 0.9381433501590489 -0.10147398557678652 0.1237793339422062
Ni 9.617003935553388 6.64595826192562 6.322330115073647 -0.8208290551158961 -0.059626453413381186 -1.1432266224880698
Ni 0.6939657394271579 0.8061501026378981 2.897949420296632 -1.9731704954210403 0.5085654908539307 0.5465411987667554
Ni 4.881249822464318 8.859832952560359 5.972300374464424 -0.45815901337692067 -0.28563979102685 -0.7281839806846491
Ni 5.798000322066328 4.70516526666935 12.101404166001732 -0.0501154285991524 0.8490553969514408 -1.6170174288649766
Ni 7.08429365871721 8.387276861420665 -0.022038755571525216 -1.2924768470078707 0.09599213652660887 -1.3743813950931618
Ni 7.606059903085003 6.642335655340566 11.609124275794482 -0.6049000983216227 0.025628242091065543 -0.27881582612648115
Ni 1.152506409273756 6.214516907257628 3.6905794376438803 -0.7502630719718756 0.13574961893020493 0.06387905804214805
Ni 4.0320350599122525 7.7225377944065 0.9958776535897953 0.9324853805423231 0.3219504525324262 -1.0342504149969671
Ni 3.2638391543274627 4.747093241354023 4.703662624244018 -0.8357016013523542 0.5344750116308409 -0.3468323033757704
Ni 1.8256458573741823 4.580702854711406 8.961655921630376 -1.5148860122098489 -0.5163646751833753 -0.1396942054002497
Ni 6.518945239208812 4.58480601114958 9.730385976859594 1.8757999904896663 -0.14812073890104813 0.6126995397613835
Ni 6.93442679394724 1.495776107237654 9.55113071616837 0.5192165428098736 1.8894571762617847 -0.026418084982212566
Ni 7.6403452868364115 6.027379704840912 3.957425998678123 0.4583569883203396 0.5785493762422358 -0.2757330734360993
Ni 3.1643006453284284 7.326342923196155 7.39514380014787 0.38093567281738266 -0.007942651885844386 -0.027007124716463167
Ni 4.665603075876956 5.082711107041326 0.5760046125013218 0.2567850715786868 -0.14047402098906775 1.1507905508782568
Ni 0.26828174165327073 4.56075079446362 5.239197546038017 -0.3802507309352161 -0.5120377656732472 0.03237713077912489
Ni 5.044895530138156 6.4260697387501455 5.510819109170468 0.3529026779395664 -0.18438692032193407 -0.04842569960155531
Ni 8.541829087258549 7.730762589969506 1.575453121153528 2.8995813876345093 -1.9665550469870516 0.9509060491413558
Ni 2.961924467761827 6.351418167336702 9.53974260878377 1.0774014964631444 -0.06526179732228761 0.1827954074650981
Ni 9.047635531696779 1.8582955233563188 6.14496840563058 0.9353380194997698 0.09500509002299123 0.7414871255514585
Ni 7.410180389878844 3.504049391483893 4.506540150360079 0.07267865861164902 -0.31807837117152965 -1.833590189890836
Ni 4.40057059053824 4.179979725269744 9.796729580620068 -1.9218178519806772 0.11321312839058567 0.8937812791039058
P 5.199327618512761 6.8360434528643585 9.395477846339976 -0.3619452477578089 0.1113904733595501 0.10244997633681065
P 5.384062071663879 2.825901135299029 8.382312411784207 0.19405195421552388 -0.11484552178768609 0.3853847097276718
P 7.829866755832068 3.9039223173392674 12.037941088956973 -0.08585144854818118 0.29011505318938424 0.8171919725839409
P -0.08432263720747311 7.577374773391103 8.11760244932768 0.17623652330065778 -0.09573682598269317 0.9225287835502436
P 6.068235683699396 0.8586215259268796 12.242543506131586 0.12672581816503983 -0.2953737304851623 0.07767225517149849
P 2.7807479317924573 9.343922240174921 0.09792312218508702 -0.2986799120402598 -1.7747384098599501 -0.223386441513583
P 2.2276165681652897 1.0015398246476086 10.87951097860919 0.08867297715737632 0.5473775786251218 -1.2026337608017932
P 2.2274317412987052 5.219603125777072 11.342196390938943 1.1241284682060382 0.07080740973086515 -1.1406897149988289
Ni 0.5551432040699393 0.23330510542083668 0.4222175698910965 0.5158859357747438 -0.7793584466759352 -0.8388496600630326
Ni 7.8575815444764 0.424761711709631 4.570922741066092 0.9781317176265284 -0.030325133346102616 -0.3275621422922488
Ni 8.252926212100455 4.942325860527137 7.91417645515888 0.5098667261638573 0.4582582579589463 -0.7136801306415193
Ni 2.795229116789346 7.3759596955307405 5.077944422152115 0.30153923586592585 -0.1051285516102383 -0.9294643343278122
Ni 7.093904655779599 7.654133371083609 6.700521001210004 0.2547271606083936 -0.5487572325814678 -0.15515630559159085
Ni 5.529853504025664 0.01795500595434265 8.219247060471444 -0.16948146396501135 -0.14140398900250487 -0.951195812467633
Ni 4.783809098401017 2.55853059009802 12.429887714638877 -0.6446125864198963 0.06677823396681402 -0.5037618988177002
Ni 0.4081106592990414 5.324732647490284 12.289951597410488 -1.9021399139357755 1.377092623376738 0.8893553821220682
Ni 1.6864250201194746 7.179100599931684 0.36742934182947945 -0.7913140763759146 0.2559330079910367 -0.8247183628679731
Ni 3.984017039973622 -0.15748542821057945 11.851517318245275 1.4821036755725057 1.5931444789021207 2.3881552874033325
Ni 6.284279808049915 8.0367434676 4.017885639140883 -0.3484508128157999 0.8661568325184179 0.7557642042957629
Ni 7.4372020777734855 5.738060969233003 0.2869122898049794 0.3544509962632928 -0.6550872606989749 0.023742337922262335
Ni 2.4056510474027237 8.425231058473774 2.674790385716946 -1.9141935026662 -2.0465045282285015 -0.10395895678216935
Ni 5.282693776685659 2.978771436650996 2.700826946412692 -0.8341496834842022 0.8098162489451601 -0.9509885815528331
Ni 1.4161619344564187 9.104931860337945 8.890362654382772 -1.5243453578505362 -0.9191842925580427 2.1362648249127854
Ni 3.6152042690477586 8.552909457910285 9.602825866617698 0.479626182111761 0.35124431640053705 -0.8023237972228568
Ni 3.900299710754213 6.812228511104957 11.615495257885646 0.02160318009207247 -1.8680362873838472 -0.4715940558359039
Ni 4.333053336174954 0.26174164297918134 3.1926595556028072 1.4591362681430549 2.232338465409607 -0.14164592980998186
Ni 6.257932738218306 6.91675734550177 2.0288731626614047 0.223574389154673 1.1854605914566165 -1.9536877041060805
Ni 3.815501144365285 4.326159294051355 7.528912244838337 -1.3221604901152326 0.4301681845909495 -0.8315153311851486
Ni 2.762163590357395 3.096164220962085 11.201515421438218 -0.14014929065979734 0.10097622000476156 0.06428040724562477
Ni 4.67824523355133 1.318379280689936 10.23892323825161 -1.2545638740121814 3.6933346695795355 -0.5418178251491572
Ni 7.477254059762327 1.9848095135333481 2.4495742281121764 0.7283104789601844 -0.3426450047673002 0.041722576549766854
Ni 8.826702736725103 4.193564499963698 10.231416495065284 0.8864718899266862 0.12135169833732004 -0.7968409197314148
P 9.222417058082327 7.835356113769625 12.360244027175536 -0.7505641481520622 0.15403144795852824 0.4069758056348862
P 3.7498321586678434 2.3300661003130285 4.361247750538073 -0.6483445426585028 1.9388804638899189 -0.6182382101914256
P 3.742355911914504 3.0573967856960045 0.7197158184796981 0.33143345232219695 -0.506402935984973 0.9601188259888754
P 7.326028717522962 5.206166212576384 5.866205132373307 -0.7068104001048795 0.31533166166432786 1.586552684617216
P 0.28686423481966744 3.2029756671612164 8.280301843444606 -0.16936833542591476 -1.314659039531865 -0.6433851417706984
P 2.0526040081965102 5.380356292988862 6.462537003661582 1.0807655278393709 -0.7417601767071871 0.20574018918672954
P 6.919409611037256 0.6432316886840699 6.606923751837326 -1.190298893385524 0.005590606713900049 -2.0565781104144194
P 0.708287049184451 8.311488604777727 4.256248531765801 0.3123903196478169 -0.03990429239410547 0.9492476876023265
Ni 5.158009572487816 3.8868073494935507 5.635741740026206 1.2861102813598948 0.4556550160081443 -0.7217549372298538
Ni 8.8132288581511 4.245500849473919 2.485146930989345 0.7083504908984898 -2.9005854034189915 1.0807706700456936
Ni 0.5634909094992243 6.641892070860763 10.149058567449602 -0.5425557317564462 0.12178210100651929 -0.4738975071581
Ni 0.6508715072143366 2.9107181843746157 12.435446382651405 -1.031442513234527 -1.084730683134706 0.07114293869341295
Ni 1.9851237192065416 2.979566192177309 5.741390625234522 0.6117716286304755 -0.38783419970942884 0.44732926975126835
Ni 6.0175746395686085 8.810271628285749 10.430310534465434 0.6481604516721546 -2.8548953575810443 1.1382703069240592
Ni 1.1556299833190324 8.84772679279908 6.460224819560612 -0.5283077064778644 0.5405183896114434 -0.2016667904483043
Ni 2.6256412253548196 1.2912466966753442 1.7533554491813543 0.8602780051401377 2.0404598646963183 -0.1848350636029462
Ni 7.064812906979213 2.832878349512591 6.658983935348157 -1.1146783785367318 0.34372126855061447 2.249325743996223
Ni 0.19946607855222973 1.7268189318114975 9.955696396166323 0.8292409333286751 1.2743557119271278 0.10807246472991065
Ni 1.9908625934139879 8.15623403684682 11.553939594104042 -2.142647845620994 0.06088397996956611 -0.46803204951625843
Ni 2.4870765234764862 0.6663932674700953 4.735515686431175 -0.21143312580644877 -0.16039235717954956 0.2753543499404419
Ni 5.397887121284394 1.057570089252673 0.8977133323438156 0.023750308342062324 -0.2730640112443684 0.026844116776037638
Ni 6.678691099997719 3.3295543467415505 0.27835388174778825 0.25570083737557253 -0.5317558129274649 1.171943273696472
Ni 2.5379131531305283 3.6765020993504787 2.5190829919629087 -0.04567307655708263 -1.3248850881352472 0.559944616656855
Ni 5.680515124321947 1.6251179484734253 4.596783716238583 2.159400639599301 -0.6711900797981086 1.0543327875691388
Ni 8.203022958122665 0.98907325249649 12.165339475690612 -0.016174295767017302 1.5906849616180347 1.2745454593404308
Ni 2.737821892028228 2.4609327631981213 8.75080543223088 -0.018307797170252344 -1.7017303929333403 0.030778418833437314
Ni 4.194211393996744 1.8876737537999109 6.558028728416753 -0.5455101863990799 -0.1633936058997186 1.3206931615410866
Ni 7.425216055475486 6.905150218280269 9.218102274881915 -0.5321952144577287 0.36463873542957204 0.003940472704986762
Ni 5.044350290881733 5.4103444520921835 3.146145102223841 -1.3225024468356839 -0.7436003152397194 1.3547453660297895
Ni 5.844706071252209 5.549260325017027 7.715957957956094 -0.006264235742156953 0.3797233976768364 -0.9045886541320551
Ni 8.337937329385957 0.31880971044011713 8.080637076010799 0.5908551901927823 0.24604583078431175 0.25788473240076876
Ni 2.8632084383190928 5.833006530597416 1.9771105504057744 0.5294047961967849 1.469524296245598 1.0528646876640448
P 6.868619188099861 4.8022270956561535 2.2448775492356075 -1.6641663186366373 -1.0363726035462926 -0.7208936176708229
P 0.35226337329189555 2.2210367317148845 1.1134238442001492 -0.3378229007883085 1.3920281616406478 -0.19721646798643455
P 2.842221347618433 0.4541704385862096 7.6017340302725955 2.2176230135763033 0.17025048092055195 -1.8419231352365633
P 0.4236786262714463 2.5934628678824736 4.159986078976975 -0.481673294448777 0.10066074564687179 0.4222299035804793
P 0.7067520620574674 5.642865891598702 1.6558768356104028 1.6675979700260053 1.8884475040503477 -2.1780923024715326
P 5.429122861737159 6.818216901582291 12.951977406023191 2.415513881921943 -0.0750805831849223 1.197498753568073
P 7.132320919999169 9.104016967348354 2.097962369524991 -1.5566175876206805 1.2378383337273842 1.0450521335981613
P 4.27974926785201 7.48066411545081 3.233250307907743 -0.18598614648825387 -2.5369571115318053 0.8668464023862749
