# total energy = -340894.4514475773 ev
CRYSTAL
PRIMVEC
9.04530789173714 0.00000000000000 0.00000000000000

0.00000000000000 9.04530789173714 0.00000000000000

0.00000000000000 0.00000000000000 13.23872241329723

PRIMCOORD
 96 1
Ni 6.400405700690687 1.9414035109751395 11.298150557121897 0.2500256413676662 0.9991211753940018 0.94048099715329
Ni 4.681616266007459 0.40890762266051384 5.992295874199731 -0.8244265426591671 0.2853315157578118 -0.2714125916838745
Ni 2.548795946187111 1.51125388690209 4.741938520827788 1.2829172283438937 -0.9031902311226316 0.049859860944920585
Ni 3.391547296726193 4.192247010164747 4.691393339473143 0.07717217560662838 -0.10190695934914708 0.4331167256963121
Ni 5.025229428015387 4.581339981022204 2.720253378300544 0.20444203920059628 0.10491283605500643 0.22249169761345552
Ni 7.58850691238231 6.117884549217706 2.505719475685101 -1.2615189651737757 -0.07158773954031543 0.6560568237010959
Ni 5.100965792274953 4.447849324896243 11.443869565193696 -0.26962233255267115 0.19703314833103486 0.1685422399801936
Ni 5.664108580531496 7.983054203990813 12.49444139071733 -0.27533789488020965 -0.4093391636607402 -0.4967880386030283
Ni 1.7196306483314001 6.211313536013007 0.6076095226050479 0.3192772765756372 0.6230564575156754 -1.7369593913389632
Ni 2.9105901773651963 1.372652631730786 0.47983369210182597 -0.4952906281218954 0.5401635773751858 0.28505255106481225
Ni 0.48916392735009323 0.1409195676231998 4.899426379196748 0.7366642502415184 -1.2376714691322168 0.8601101121037057
Ni 8.489473865498075 2.1737232027991795 1.3973734586173734 0.34697114294647985 0.5888872678331342 0.47684810514599174
Ni 7.088292332193818 0.675684510950622 5.062580218525004 -1.1053835834983672 -0.1772215129217464 -1.489896689254363
Ni 0.7191191756512082 7.3233708429715385 2.510736908057582 0.9957484022670269 -0.17407602531422925 0.731162860807315
Ni 7.7457324568179695 3.8964925730221442 3.8259382657414753 -0.30852440893450733 -0.550707157218987 -0.3207271216482864
Ni 7.347286637442133 3.7297151832911193 12.691936646568681 1.1607484334219171 0.3590779535123429 -0.23724468755291397
Ni 7.735674074272091 8.834362415940328 7.232300872514336 0.17934035903696208 0.18090384686934005 -0.3894470527225035
Ni 6.833657865423123 0.6985447179723824 0.38130405610003176 1.0113475422568647 0.5619611328662516 -0.36732476690216737
Ni 1.9049147383221972 6.449485542142067 9.180153688125458 0.2908858699171377 0.4431075183604368 -0.2195912361372089
Ni -0.01324775816249372 4.631125356501082 1.4307217003171424 0.6877523550321638 -0.563259539962701 -0.16171056177034085
Ni 6.298121357319474 2.0464738092241683 7.067876167405777 -0.03838194221230809 -0.06691604509625895 -0.17608662798635483
Ni 3.531206852938745 4.424412931752025 0.47937238139153837 -0.6766981541005315 0.24380742837209624 -0.7629262692618408
Ni 6.1172242417304314 5.728086044332752 4.814566012712337 -0.24051693054628254 -0.10751299268201484 -0.07979187261766259
Ni 5.424588823503753 3.078190690128303 9.016827987944348 -0.5461809872138594 -0.23654971836841843 1.3222998439065743
P -0.02954197607449439 5.559517683608846 12.502464578953116 1.0499176892205788 -1.2825575310116297 0.09812975169490197
P 4.185074080885178 6.3063073611000675 12.56427569147763 -1.6914115275058352 -0.6590696423854907 -1.0365551518707439
P 2.3443810296814473 8.229620255985498 1.315235729854464 0.5627121520996631 0.9211789543905683 0.03554087321908718
P 6.248978198711781 7.8955408486568475 5.821516840189662 0.9645987161371001 -1.1013752336699227 0.009220490157003474
P 4.822451712265841 1.1474154161058674 12.609922838525986 -0.1288904299165264 -0.7440158055105831 0.0897762375238841
P 4.135071618013223 6.310459157492656 8.25622341147622 -0.9228558278723591 -0.8504941862804964 -0.2075844414843199
P 4.68281024666938 0.8801229452572026 3.7946812992616765 -0.4532962859679806 0.07014766465967918 -0.5381321487674539
P 0.3672268431898249 5.540676306951413 3.698660831711525 -0.18585990532303476 -0.6353237049188025 0.021061448655989534
Ni 1.3820959333296141 0.8511010743952874 2.627012533912576 0.615903648520978 0.08699636078590178 -0.7554860109337118
Ni 2.078856012024747 6.382658806306684 4.809601043126517 -0.6771977194447691 0.36420241922310176 0.037518565770748295
Ni 5.951251884415399 5.664470392853291 9.346617205667325 -0.321348300172053 0.9461646778016285 -0.6572868394534551
Ni 8.68634499509433 2.2814166403812153 10.097001488575573 -0.2782887499784175 0.8432927834360509 0.4346694148954127
Ni 2.5588995552732134 5.364907881023803 6.904509763338467 -0.8855666045035974 -0.5237344852848852 0.6346053386955394
Ni 0.43733702584549117 9.064031832507226 9.088965224132867 1.427981182696489 0.8893396983927845 0.8897369338312031
Ni 1.4735711335872266 1.2226181071907867 11.384666214978516 -0.11122052344058911 -0.7808165192787004 -0.004149503391999305
Ni 4.056205577170138 6.748686241649761 1.7163074021557205 -0.1116223868646981 0.029429875225342864 -0.6955461400449698
Ni 5.6488129646276475 8.04384771936028 8.011955772255732 -0.9211514435867426 -0.3511209034487953 0.9696416778776461
Ni 5.363849579982555 2.721905051549534 4.862834490032094 -0.06578810213940282 0.42755980043382497 0.027802624034565022
Ni 0.6304751568116352 7.613815684291812 6.943670519987859 0.38370552225303595 -0.7913305314361468 0.023827698547217026
Ni 4.870002896657641 4.392962395680066 7.077077054749004 1.8907111032735437 2.145229747415557 -0.4752689335843299
Ni 8.372644666790736 7.174982564495703 9.092645759976318 -1.1274685883228648 -1.0181475958978334 1.5681016770008802
Ni 4.735761479963958 0.3508186543964591 10.454883624024259 -1.0116229074054384 -0.05577159844366524 -0.1326388412153651
Ni 8.11020409917733 7.2157316772377715 4.85825394603818 0.46706017252129245 -0.19556427709499222 -0.3927594049251881
Ni 7.241782164406952 6.342977039913907 7.179412051845269 0.10426568938931075 -1.1596302606570739 -1.1013798616556127
Ni 2.4675238534040944 5.023637453799493 2.498411771315663 -0.8827198790834219 0.45246864786036267 1.7282222685762818
Ni 2.4110811312042033 5.27285378105132 11.506846617925191 0.05481463384703463 -0.5815205430554178 -0.10418547097067862
Ni 1.14320934786501 3.1480295135426237 3.522506171130399 -0.5537246038890722 0.7169171495215781 0.42933463294606056
Ni 3.7940363687980785 2.549537661446789 2.6019778348368323 -0.8141765827963849 -0.317987097009304 0.15550417584931284
Ni 0.9919265708148206 3.5402250250594647 7.9438690250096995 0.3020285167975185 -0.3570904907686689 0.4959267190439975
Ni 3.5281676294356736 2.684783107333452 6.9542481032155115 -0.5740278342227985 -0.8473970354124116 -0.093297106192949
Ni 4.3090038464077285 6.951382549626903 6.057615661714841 -0.8488368531827317 0.018795535439948278 -0.030782532598495376
Ni 0.8497126196104021 7.23728664630866 11.360267401058326 -0.19275380422939062 0.3715562884850117 0.0026225252245116125
P 0.3387585451802547 5.694473679638073 7.9134994032491015 -0.3870878084617076 -1.2232668636711126 -0.3206273628456285
P 8.472143055284134 1.591051594473795 8.056715574584889 -0.013902983234337345 1.2988673239152468 -0.7030740729908989
P 1.6394078112815864 3.2964539732506393 10.347690391977103 1.3720666309170564 0.14530486671880782 0.1742539456529902
P 4.096665240054771 6.202431043512959 3.912916138839186 -0.03133249156469443 -0.5969957558728816 -0.4370901085217634
P 6.980508441531334 3.998867369473806 10.314315014353198 -0.07893209572052858 -0.48071221608708825 1.0523401826191425
P 6.4840657547975455 7.760630079167844 10.178817204372086 -1.5080990711950026 -0.23110000810775685 -0.4706460901003378
P 2.314875234839132 8.343600182658708 5.962694199092139 1.1960957025729595 1.0542703097623198 -1.3330028321463752
P 6.816399417673541 4.016406221772779 1.700937614725904 1.2171347826314458 -0.543157112785871 -0.05281123026376066
Ni 5.282079995257072 3.0172886310622986 0.4906907753480647 0.11221836857748416 -1.3601266849463607 -0.2559309511085076
Ni 1.5911872740944681 1.1991455328143894 7.12628533957462 -1.1460391522362006 -0.23186054042286522 -0.794371889365632
Ni 6.718701045481068 0.8792464549076563 9.322880508296018 0.819797271417272 -0.7281387292690105 -1.4792623494689685
Ni 2.645345564257887 1.6668693665057646 9.290577904206234 0.5626743568831922 -0.2361072315143611 -0.505161093158072
Ni 6.230046368973901 1.8796783288770533 2.6133369326795606 0.9911831514938477 0.26821105402744133 0.11629330997780615
Ni 3.874838105562763 7.082847056750816 10.39880452320777 1.4503325538084957 -1.0570879817167729 -0.17591513540549703
Ni 8.388401593404872 7.350072592319949 0.24105474580295566 -0.23781033024839687 0.09043881080854747 0.28803991582791033
Ni 7.580465633530435 3.954997625456262 8.186203681901002 0.6249498178836463 0.055511659914059236 -0.46545297593517254
Ni 3.1296132663633003 8.419879265400965 12.283813252115657 -0.29483868391729867 -0.22235440070464285 0.9503974849360535
Ni 0.10354435478186151 4.793289639129231 10.128920571604255 -0.4556557873390927 0.9134425049782591 0.4563466427585302
Ni 8.364404391161873 2.4017282826858235 5.974039728972801 1.5521672651588105 0.043227186119751355 -0.31147346426050226
Ni 3.4711279169048224 2.6231755142399487 11.563548035935165 0.3976581277783861 0.6139709502746393 -0.06961518919497688
Ni 0.8509038866799095 3.380394431906888 12.559629116734987 0.4702568250817192 0.4558100535287699 0.1355282469480182
Ni 3.2351901018628406 8.575286702919609 7.975760972114246 -0.7377649395048649 -1.0382585077150956 0.7892739060174342
Ni 5.761020010924066 7.877296462330375 3.4294643235194187 -0.10480767793570983 0.12243824653327946 0.8323329419904375
Ni 3.1320102729951866 8.211855270985405 3.505772351247419 0.15800123123955373 0.8362096513370243 0.4807983480429913
Ni 3.366166162352332 4.2564053801269 9.129502676666686 -0.5247385010693673 0.40161659820550183 0.5372911409233972
Ni 7.14594712567172 6.110603076241598 11.564593673545149 0.2788492504675778 -0.3963872314857625 -0.7042899476758709
Ni 0.6278565401326499 0.305817342342504 0.23876990099082546 0.7155053567757161 -1.1418423405460336 1.0057962734213324
Ni 4.831940240404895 0.03547931627513681 1.454830159849093 -1.0819119827389885 0.3841536655340481 0.4620058979268366
Ni 5.825693963444775 5.601922087723123 0.3981663193572493 1.4967679624528996 0.4075846428634787 0.8406370909807587
Ni 7.907951011294387 8.766911553849848 11.301063146312341 1.1898000993722349 0.3064312738509045 0.605128669392661
Ni -0.06073200727476125 4.697201331768743 5.884810478702725 0.9960618197423878 1.6779690288476843 -0.15254740721383403
Ni 8.101990959472603 8.839056930815607 2.542933682043241 -0.9375309133860306 0.5247331017527286 0.04054449708126566
P 8.598406510282256 1.564159893656443 3.7248867978567755 -0.9627454649784453 1.5881066593678972 -1.0086833651611402
P 1.9172073119551543 3.188272089034181 1.4538894478124278 -0.33157563432701603 -0.7320699460026167 -0.7569242860421351
P 4.612781471786117 1.190850985337258 8.190877392567778 0.5533250544578083 -0.09296851920893666 0.6805962036033569
P 8.508405695235956 1.5653629196264085 12.313918750881346 -1.3666248910761947 1.4561820706107373 0.04782071902770474
P 6.604359306486064 7.66522016991072 1.3837910240572198 -1.3196418374584369 0.5457948075190342 -0.5266609149030608
P 1.6979038184076598 3.198493287124866 5.822536246406316 0.01869243420318071 0.15335370516521332 0.3393473078526349
P 6.858089242452275 4.089890304329176 6.043463372747862 -0.8159213334016335 -0.3201735631376615 -0.12859398172203015
P 2.3162772575860844 8.539322558133268 10.178075489112405 -0.4018564821304499 0.7312199392974955 -0.044942883259277436
