# total energy = -340874.4522103888 ev
CRYSTAL
PRIMVEC
9.21494545239929 0.00000000000000 0.00000000000000

0.00000000000000 9.21494545239929 0.00000000000000

0.00000000000000 0.00000000000000 13.48700413054678

PRIMCOORD
 96 1
Ni 2.206094770390433 6.558221297548282 11.151500179356372 -1.1658577296240245 -0.601181511819455 -0.1816684929495065
Ni 3.413095953787745 8.383407088018332 2.2526127358814354 -1.8095398338098512 0.5191525223411575 0.45686214894236804
Ni 1.7927491829289315 8.086215886368144 13.257252488617254 -0.36077848114321737 -0.051812099575284966 -0.04962871877072098
Ni 2.3162410118503787 2.6247389514133386 7.933851372905459 0.44387267866123553 0.703208541686234 0.5842934778148647
Ni 9.015985439687444 8.611476984791834 8.295936984012133 1.1959221531095727 -0.2150583812638619 0.7072204910591046
Ni 7.99597392680843 6.502655177243464 2.2826884744305 0.09106847397274638 0.3699105253514727 -0.3414607546512119
Ni 8.553791427062455 5.16440552759383 5.856421198098448 -0.9580663143352209 -0.30858534407942984 0.23637745445661226
Ni 3.5081388998613563 3.7108308372120606 6.057201955788916 0.18008263651962536 1.1846170125093984 -0.602491231769814
Ni 5.480100339454977 0.6602821632917322 10.522304634115766 0.38883127351537555 -0.22203789790548858 -2.3563183453983934
Ni 5.673549686645526 6.85294289385159 10.676824523289778 -1.3853916301607367 0.18285351439654315 0.013454839953325217
Ni 0.7472067425347396 8.8050092664903 2.02515471147746 -0.4455220413392005 -0.13465921407950357 0.3578181129633128
Ni 6.839111260919992 8.155890087964282 4.219368652861425 1.2403826974157928 0.7221951100910659 1.026700113453535
Ni 4.8060270889910734 7.369071981459015 0.7839762173672901 1.3311997174993653 -1.3504565088464484 -1.0607736580984763
Ni 8.845849904167075 7.764964462476516 12.23917242827819 -0.7114882651965231 0.8465616839953097 -1.3871458938476822
Ni 2.730618673188188 5.546383441171817 13.453798978931262 0.4087372684106832 1.2989431714585047 0.9746738409849149
Ni 8.617457484307227 0.9374363878290201 13.24673270703517 -0.06412331284247022 -0.7783834843571755 -0.026612203270889652
Ni 1.9503063180817928 -0.0891223437028248 4.1883889281760585 -0.3174955020848661 0.4575746016283604 -0.1581992061829727
Ni 4.802912437471501 4.836123100419852 12.002529867869603 0.4583726720496235 0.9327468617338258 -0.45832639219272037
Ni 1.2821951372426357 4.840758217917915 2.104727607340835 0.09035653550738632 -1.058861528677428 -0.6585004001455821
Ni 6.218567627844262 5.131167219809506 8.757219638544562 -0.22844997207941947 0.42850159552180395 0.3844316017857831
Ni 0.6718994448619281 2.8370881514637856 10.254142353225815 0.5256759252819722 -0.21395897755209603 -0.13468543933174867
Ni 8.549561767158655 4.269440822763964 3.3942744279631034 -1.3443951331437167 -0.815938045572182 0.14337705356847566
Ni 0.2893492831793102 6.012438515887638 0.021158435958853958 0.16465601755190998 -0.8831474535391436 1.7463865981901343
Ni 0.5791989378897235 6.126298380313229 4.03110363391026 1.1722685182463746 2.372180766351947 0.6907212078525008
P 2.1224599266281583 2.0833609136176547 12.029530579163987 -0.08241311229059355 -1.9232358153741262 -0.37614313652474574
P 1.7511160599542779 6.947220999463294 1.6023370817172322 -0.1671409887572928 -0.5625427164013345 0.37225794253772665
P 6.843516004784951 5.781088098578729 4.41948869897215 1.1091664475795673 0.4263683512288851 0.12424573205566344
P 7.189325257965524 8.384494451566587 10.807662002980642 1.0744640111013755 1.256546708770165 -0.465107933890928
P 1.6852660606676744 4.809823646464636 9.683399049165562 -0.8279052452363872 -0.006685125329659455 -0.9457867256369196
P 5.939115195943123 9.163295555639817 6.097286046454575 0.254076157287956 1.0520239369303042 0.31437186885421986
P 3.77109657963221 7.397380293494901 12.3757019796958 0.959545984204541 -0.4613651790190441 -0.4947722937245801
P 7.4937778365311685 7.911638747201519 0.5116487811908085 0.315509839113405 0.024823229691266924 -0.14095327461833146
Ni 5.113787832928099 0.8484227804810206 4.255338270439837 -0.7305190565757289 0.3792680553069726 0.8759054272647496
Ni 0.7942306085240396 7.746000104999349 6.349775548337157 0.16179977905003748 -0.747624605907764 -1.3685552753296881
Ni 7.766171620313983 3.221812118748378 7.455170901600976 -0.3605380829976372 -1.5388620634094723 -2.567901109408829
Ni 1.9991916030265777 0.709368334044584 9.375841034025667 -0.22014813708194342 0.6197654454692294 -1.2960987600311744
Ni 3.481314194022663 2.4407072783441026 10.339096777158513 0.7729810823946817 -0.5832262128926149 -0.58415232425131
Ni 6.700398688955082 2.324764836275247 2.7560823316025 -0.6974127609400633 -0.0948078864105206 0.0518663498519881
Ni 2.4339250785855047 4.1444953791133825 11.6463786815517 0.11696693900606307 0.9445873060121798 -1.4557971764674928
Ni 3.1832660024573247 2.150261416671215 4.2807881064361615 -1.0943229548088316 -0.013337854759486706 -1.4149839991058728
Ni 1.519295680433835 3.9575886431030023 4.6866935470429185 -0.32182678247036833 0.02843408697097684 -0.30471943336612034
Ni 8.519401251112608 1.1813283457241412 3.7577220079886926 1.4688689220497864 0.18855467854637847 1.4798120513248514
Ni 7.509857916121866 0.27206573172927473 2.016023622155728 -0.42644137055866554 -1.7723719665103024 -1.1195668169772848
Ni 1.8781348663028006 1.2581809897278178 0.611422680193855 -0.0993422839457644 0.5212279168129476 -0.11109531071663448
Ni 3.6994503797366955 3.7954056053974012 2.5666986182889793 -0.08385755804660397 -1.961095309424061 -0.2640792912472549
Ni 7.868531232974996 1.0134504718081963 9.673769431301793 0.09928957633095803 0.6619163678056664 0.1739274155515069
Ni 0.4720521611327991 0.5041330717844057 11.108907780573471 0.35913323223031046 0.005385946902261692 1.1525491854405763
Ni 0.904138182900089 3.3891278809995478 13.2162929781458 -0.9967758150902769 0.9155418107094491 0.5206247360113099
Ni 6.054569245909797 4.485254842256303 2.7782147872821197 0.4062823791122874 0.8113550541871898 -0.8704652300857847
Ni 8.23796760596677 0.5819781653994968 6.288275003243568 0.12701121061594256 -0.10061420867965253 -0.7034620524579369
Ni 6.078362234736835 4.96335385051083 6.499656634034976 1.0582426641465066 -3.2398823176496654 -0.5522225654222489
Ni 6.33189302544105 1.4236076881875304 7.655965481709431 -1.2567058600558485 0.2622342676187161 0.9128632354360213
Ni 1.2908295410113944 1.6247607296690962 5.937922782018174 -0.40504130761633467 0.790219043539523 0.13654923201336486
Ni 5.518287072878386 6.772699149968614 2.971335160924596 -0.31389312944558845 0.858024947439903 -0.8994281929770381
Ni 5.679834279356618 7.077640120636439 6.42906554537908 0.4975200316730464 2.3037153744906966 0.47134311616736246
Ni 5.2127563457098125 2.1208473111964263 12.129442702346898 0.810619718683062 0.38576060500985176 1.1570982382638395
P 6.748279544859532 4.734684982291258 10.893237514228188 0.5616032353062006 0.06200163851377709 0.43908194214081153
P 4.875821084876427 7.162721710814611 8.500143858374132 -1.472173303832671 -0.3021892107450989 0.8938162461068992
P 8.311290925911285 4.466364204341731 1.1911874157264832 -0.3803481757450288 0.33680988614276186 -0.8032879609083391
P 1.2173679968870166 7.988454531423898 9.873161496731907 -0.28906295777578606 -0.019905223564359267 0.47499845353176257
P 4.540120626716482 3.403438691088002 8.02974393693796 0.7532128986288189 0.04998198834508166 0.662715209557878
P 4.74315351704418 5.043698958792373 0.944978820576863 -0.8899511067245383 1.5750266862554874 1.2172615380172973
P 5.434993182093107 8.994044654870567 2.6039223899260118 0.3704054627100202 -1.3779408303096463 -2.071361953591813
P 5.143155863676267 3.386759640051233 4.4080253069888675 -1.8588947300938954 0.3319592429186799 -0.4469970832228301
Ni 4.003958247974285 1.534546414945356 6.359904616237499 1.1232908027960913 -0.7254290436473313 0.9333235601729023
Ni 5.933650733365884 8.814786323479257 12.514537110433523 0.9744157022275217 -0.7411004316360011 1.1316062646403222
Ni 9.198754665247268 5.092805402424938 11.375127550989083 0.5142779678576757 -0.749739852478554 -0.1269405052790072
Ni 6.401336853404085 2.8628531385901974 9.66206276476195 -0.8618412358621996 0.4428966879012114 0.2115161724385583
Ni 6.508082780039408 2.2628864784233658 5.427412968069435 2.157307247405382 0.14497936505858905 0.5575727739905688
Ni 7.147830359170732 6.1381764448361 12.830172946644593 -0.8819043251606618 -1.110209801242417 -0.2489303514209584
Ni 8.002055790722391 6.489523880156505 9.989244005969688 0.21664526613500754 1.1557334967058288 -0.8431194910829803
Ni 2.615136978385541 7.616603842757188 8.189254640499549 -0.4582515730907269 0.22835484126245187 -0.16788352335027215
Ni 3.7774364620152467 0.13755793931578947 13.259545167013911 0.038247216406656716 1.33293675479513 -0.9075469654294307
Ni 4.648248795150432 5.7076449843449995 4.867648349868411 -1.29514668053055 -2.0462235066529724 -0.5176304292696763
Ni 1.3965986834423536 5.027434580295191 7.13099741854705 0.08232698033469048 0.15748469661445136 0.5534649224697823
Ni 9.046035376389602 2.37743746374827 1.5833340214697043 -0.5764678111228588 0.3217529918096394 1.1175487581059915
Ni 6.720266111074019 8.417788049022855 8.497918449078343 -0.8797787941772267 -1.1513163414747396 0.003962841302489949
Ni 6.252616850817113 3.865116666774837 0.16728627442613256 1.838121759212602 -0.6028475866679682 0.14371335386197187
Ni 3.5196944412978803 8.584532484663926 10.605815997610696 0.24547941675788043 -0.2977093205968744 -0.20945337637225864
Ni 8.65274150995352 4.446192689027097 8.880935808488898 1.674824569681432 1.7956561338492236 1.6221388092519415
Ni 3.93964714455682 5.2175941920050075 9.777619100621724 -0.797081317876995 -0.2753669483459322 -0.6123364999950099
Ni 4.25034745605226 0.14551873058135018 8.268180647201167 0.39421362087321143 -0.20067100219393827 0.5041617053592801
Ni 4.18613771703336 1.4143743129727004 1.662502381233348 0.5182189547832946 0.8406201216998942 0.9214198667567809
Ni 3.7598727762273563 3.3602298124629133 13.461365370536948 -1.0228375451743352 -1.6047175284517008 1.3884396729584412
Ni 3.3807607106451902 5.937474935675419 2.750472272889138 -0.859226681057488 1.8087026826205366 -0.22718730331691198
Ni 3.7007404720820816 5.636754409966069 7.299436482633237 1.3916239842236937 0.41500613213853044 0.30026036915350224
Ni 7.891227643308455 3.027376772408141 11.81147272048521 -0.44945737183786466 -0.3487058662493994 -0.08538119377998199
Ni 3.930321619888748 7.883652958251978 4.690739829534767 -0.4355181360489531 0.7317025353608688 0.49666591120286724
P 8.789629522744242 2.8343881724838003 5.065637900620184 -0.7718281997371611 0.7859029326626723 1.6824743729172056
P 1.7876993928912799 2.5057740072781507 2.495459718976794 1.4305360879078588 0.1440547963617906 0.4270154978945807
P 6.758747722747802 1.77564624440725 0.5830821158493338 -0.5464766640774071 0.03481119414191424 -1.1602995188099565
P 2.473033306541333 6.011738180043 5.384240949225642 -0.2982497664813767 -0.1087671768040901 -0.10192495707127608
P 0.24259541508800878 1.9084428214740348 8.226937316413725 -0.3568428935342371 -0.73689127865066 -0.47840825054425995
P 2.5737987336612616 9.173828238145356 6.326928934394914 0.3840024846681645 -1.7769613856531978 0.6072236042484769
P -0.10102713156713534 8.377445018393587 4.222106413117239 -0.2201746194445047 -0.9526806245432754 0.45114864349735845
P 7.889016056430652 6.560138006175711 7.54294417730834 0.5252480937159342 -0.3814681482820849 0.5525282695881258
