# total energy = -340895.16923531133 ev
CRYSTAL
PRIMVEC
9.03311313209957 0.00000000000000 0.00000000000000
0.00000000000000 9.03311313209957 0.00000000000000
0.00000000000000 0.00000000000000 13.22087414990279
PRIMCOORD
 96 1
Ni 6.5757902186715045 1.97424107894194 11.440181271771653 -0.2289783337790637 0.05634366889705135 0.3024440070683823
Ni 4.449711540688884 0.24953433106903372 5.938856376922593 0.12704797739114893 0.2519012611238242 0.04712112185751885
Ni 2.6562682215660427 1.7366160042578926 4.626274577060409 -0.10765157514240814 -0.12031297266016054 0.5900558342199387
Ni 3.580870584883728 4.427499115438064 4.9779101861327035 -0.41447339956351203 -0.26978894003752246 -0.07413107478745942
Ni 5.20284735007771 4.8027436690551095 2.7794247830248286 0.1096197546123725 -0.6698304804464206 -0.1636175489850666
Ni 7.303868172165343 6.343431448957457 2.6711981509904246 0.41022336603790643 -0.9764864687136215 0.7639955910666197
Ni 5.147573730675608 4.511434802884432 11.772818437254061 0.2814833456563152 -0.167899207079556 -0.5849863901168313
Ni 5.535130417524401 7.7671675128279345 12.26413217174763 -0.7106390298223504 0.569470039648787 0.6830701190651461
Ni 1.7179084269116345 6.282457935153864 0.5479070917277721 0.6746011623621866 0.7704678290545247 -1.3812102450895374
Ni 2.9117607940728316 1.5477516743904074 0.3166133260548266 -1.4422088962600967 0.26765029642796484 1.0318163516341778
Ni 0.6019395613822273 9.035371434376891 4.646277502833249 -0.49252026446560987 0.302105392782041 0.2182864012828563
Ni 8.76773835778832 2.294284278062133 1.2969626439039932 -0.5914367737278653 0.666302155578188 0.40134483260135395
Ni 6.849430315508875 0.6807336008201506 4.748078881479729 -0.8570612979750529 -0.5870628130298857 0.29752420116926176
Ni 0.72522439304783 7.4959753896558645 2.6701801191377332 0.3563595261399153 -0.8729036643239484 -0.22206926536405625
Ni 7.517356768496325 3.77763888876279 3.7297010605547474 0.2852613246415087 0.6099703137556786 -0.4885193708363329
Ni 7.47236283186585 3.8759191599010263 12.702219190280264 1.4105856129278609 0.357132656860514 -0.6664129701244393
Ni 8.058900935316949 8.71813753344824 7.09145180636599 -0.5493264748213765 1.059689423895362 -0.6154519056955401
Ni 7.0144833590969125 0.5077937461355326 0.18521404884111003 -0.7239601724112886 0.6232089239331395 1.165146819599929
Ni 1.5693317817203014 6.592185319049804 9.173277262996937 1.2531029731959387 -0.16196972896899844 0.1743830150316868
Ni -0.01769135211619809 4.816952756049637 1.502168778782157 -0.7882644909163133 -0.6096011033417179 -0.7107652709875695
Ni 6.183464048076297 1.9412702159222195 6.898004074883106 1.1219420020776805 0.2934646863879075 0.20636625280650264
Ni 3.5981509303513244 4.20339661114868 0.6773805092166107 0.198637002483045 0.7323836205882935 -0.7211774674598289
Ni 5.98869206220473 5.783902353843062 5.031771929948509 0.2769600038646649 -0.7020538592565007 -1.2585609109867164
Ni 5.487300083362917 2.705137363740478 9.488581690955446 -0.8994009392835284 0.6163692753034868 -0.6926582769742136
P 0.1312393911108538 5.598362209617017 12.511839104025185 -0.3038339454373735 -0.9123672696362094 -0.5024953734004507
P 3.9487983168443432 6.129753157250199 12.679042931855689 0.670365269903968 0.3084195079255269 0.3470089381629508
P 2.3144823190791457 8.35029109950603 1.3659015568886246 0.20553064427908474 -0.13078121918133606 0.46458317173570957
P 6.521663804640226 7.86743506886051 5.797551387821911 -1.1465641715017352 -0.46056736570809714 -0.5754159728195768
P 4.6922867613824675 0.9251082176544269 12.511574433809711 1.4439315353781585 -1.4651757894689152 -0.09715710336898752
P 3.939819402367192 6.055202874373005 8.104303168662076 -0.9899724190151983 1.1955915092430311 0.07337414201677686
P 4.576310621571456 1.028961919609969 3.9030401788408646 1.2370731734265856 -0.6796796053263585 -1.0703620731178598
P 0.1155922325018784 5.499810945084098 3.571235866391445 0.7169230630588492 0.1041510181883174 0.5175129298552055
Ni 1.4199421563449202 1.1242070647277596 2.5461952212025336 0.20459656250058958 0.42902275813259655 -0.14283635057365723
Ni 1.8154750821105397 6.374704086703833 4.8142753413101715 0.5769583776060321 0.7376566960617748 -1.017952706278208
Ni 5.697997447728666 5.7372824568444925 9.282745948090303 1.483892134931496 -0.059882278177929134 0.63275105909562
Ni 8.605946268049628 2.254475348383254 10.032012875114376 0.37065974481267133 0.3779408518551169 0.14024005060139075
Ni 2.177025436182957 5.386373110069948 6.84476380925244 0.5689257371095426 -0.8031192965409588 1.5237002680673695
Ni 0.5220172861111086 0.001428135189977492 9.064905197840718 0.10643287224395864 0.3256615828354263 0.2507766606010778
Ni 1.6490038397569964 1.2528927947493873 11.323652305435488 -1.120245073991232 0.34755529758472403 0.44159493837065233
Ni 4.00731482386948 6.750644190033898 1.625281981297794 0.290842418273712 0.04658401840712622 -0.10720857406771858
Ni 5.5824639304623025 7.910992740499165 7.831755175205277 0.11138764514607268 0.29580850402973574 0.9011832279949318
Ni 5.377321930687547 2.9215075231682506 4.635080055764964 0.027148021169701633 0.13597767578061098 0.2917515603515427
Ni 0.9399586556830353 7.442788419392818 6.989862705878679 -0.18491091114620412 0.3142224877605492 0.06435599767856659
Ni 5.122795901288459 4.413922346364464 7.287359254561276 0.45705703856199353 -0.2424447436966147 -0.5096690083307545
Ni 8.054357279399435 7.162671580422534 9.14187725835506 0.09003129095748366 -0.1141865480474485 -0.13091234544256164
Ni 4.4791594895777305 0.3146025550662815 10.422741991303587 0.13645692940987467 -0.11040471240751307 -0.701707017440043
Ni 8.464514815364762 6.918858823226565 5.058677057483917 -0.6515910746202584 0.92109050844182 -0.9149661407116372
Ni 7.2919534959124634 6.19777249931554 6.970269883443124 -0.32969615791611606 -0.8948560002253233 1.2857554691236373
Ni 2.206979239408544 5.238735908646847 2.5036899072465624 0.5475069051141345 -0.7332950766589694 1.6727599738429193
Ni 2.609296033154385 5.102236535745203 11.39950064667321 -1.6571094117898557 -0.3115680808568376 0.5590552720733661
Ni 1.008691613687708 3.4215535681498066 3.862597124618428 0.011551452283025267 -0.022778688457412384 -0.33533818669324184
Ni 4.00390030709648 2.5188023055566973 2.4618982092299215 -0.3746333847484386 0.44316048308555933 0.36380698355689606
Ni 1.1810253464795522 3.4450125630161668 8.207294208311213 -0.8537723428111361 0.3527044458858313 -0.43981162121798456
Ni 3.766175868167715 2.5061830464776427 6.749665903879094 -0.2732514446648262 0.6501029201105062 0.2704687397133665
Ni 4.188582305572695 6.92956306231653 6.052317698030951 -1.01686075876561 -0.38574517839088407 0.0786839842654645
Ni 0.588963494333507 7.370071858486312 11.289595662214406 0.5675422264984548 -0.1053182990235412 0.14261497859147051
P 0.11904017179355714 5.55529232608879 7.941184114600758 0.47080626982728596 0.13991917692686226 0.41957986755214194
P 8.679448709800717 1.7176464666301083 7.785745916656059 -1.0971118304078782 -0.30501331045745533 1.0434171690979
P 1.8008504719108336 3.2955958383013177 10.31445032085446 0.21176042723888044 -0.18091901637799165 0.9563824988748948
P 3.9513004891885792 6.273984875013453 3.932839515831483 -0.7660897545914871 -0.5724414635722852 -0.9774213218230652
P 6.955975885184931 4.076824629605577 10.41793005192534 -0.1627091782381843 0.20834574513037668 0.13169010414885063
P 6.283252849111599 7.8936130307868515 10.19560797423902 -1.1999783254568175 -0.9509590138664784 -0.8556507907807716
P 2.3398563339345966 8.503718526462182 5.7533677214415375 0.8646910466061689 -0.13344205384295083 0.2949644108618855
P 6.84747916306716 3.7802133260122757 1.5268255644530142 -0.3310033067633138 0.6900234104545278 1.1451852888763374
Ni 5.40416834298744 2.581166918786328 0.40923615842340477 -0.06730119634981957 0.5309286890404791 -0.06604212713173788
Ni 1.6300614014686803 1.1855690023970644 7.043261954300893 -0.4803409487905986 -0.03399821132231565 -1.1968876023466355
Ni 6.85105627587697 0.6784997119366499 9.076024056824549 0.05475215604021539 0.18219685464915072 -0.0018028575366936693
Ni 2.6404331742034204 1.6595183834706826 9.107450257494579 1.0341874229695156 -0.23324430814426927 0.5785249507622037
Ni 6.4035919825770025 1.7635708139156587 2.5762330323804723 0.12867420014066228 0.1685700078943355 -0.49024303839565897
Ni 3.7651280270416088 6.87204923085172 10.331504838493155 0.6228104029431403 0.740058620635048 0.08755557572348147
Ni 8.181498347071372 7.380414773050032 0.10025490967415682 -0.10221060663249494 -0.21294287758275585 0.9185266043693858
Ni 7.606432297328506 3.9829886501401357 8.28393565688404 -0.18761288345839947 -0.6574297927892226 -0.49393437120431705
Ni 2.825837821732124 8.23998775475704 12.479487009256657 1.1454776233057757 -0.45474535970968133 -0.6559089852693221
Ni 0.14038361155876156 4.844205658441553 10.206699733883383 -0.4121151837439806 -0.25581216614245617 0.6696659298440982
Ni 8.405275659287136 2.2570226862932707 5.596819353889957 0.6927999447584003 0.3371006779103033 1.294982129928228
Ni 3.7136302489387516 2.5335804786800566 11.593649347737006 0.1175598353950556 1.6537620925841776 -1.6313022209187646
Ni 1.3091419903723465 3.3507158947797655 12.659053555752582 -0.65761259822399 0.6583021680918468 0.20622664190484485
Ni 3.1322048875340003 8.371988637306954 8.10577104954994 -0.025571677821517248 -0.2894041431652887 0.09791095081587653
Ni 5.43945168297512 7.807762323351393 3.5394393080820157 0.08916071542707225 1.1717944068234334 0.8794473789797371
Ni 2.9142087677381316 8.499138738092046 3.4149250697158697 1.0129845636396555 -0.5382766447651182 1.3635274830977937
Ni 3.5324711645934097 4.318595903228268 9.363856077741447 0.13706011021151235 -0.3762290113703327 -0.6510560280523948
Ni 7.214648113522663 6.189127810025163 11.3101803204745 0.26893353401576264 -1.001524899739488 0.3861619542133285
Ni 0.7365221076721492 0.22221277701713035 0.28431181671997197 -0.9285927303561361 -0.691971535319834 -0.19983256545304295
Ni 4.445231116563464 0.14973649692057495 1.4152946196261131 1.254801186833968 -0.26139634509845305 0.4437286968842036
Ni 6.218178301935143 5.7999361296951175 0.5020676557058886 -0.6514555774836587 0.115501153093814 0.061516471347242446
Ni 7.789181209589319 8.86933378145484 11.299260189980103 1.1127245972444706 0.34561462891858535 -0.3490591358237601
Ni -0.08222752574855226 4.670209832828989 5.8605094765858965 0.5810472029634252 -0.3548160929121954 0.005837175507067366
Ni 7.876802407203372 8.815478360818243 2.631588853112295 0.657618511761261 0.3769131819215509 -0.01817641379871063
P 8.518469600246073 1.6405849782955226 3.5310972280823685 -0.059363943780613895 0.20468809377313135 -0.3579451254594803
P 2.024835545729188 3.0963795607569558 1.6946382241102367 -1.0596822248065105 0.6660039076114789 0.16875409888068357
P 4.613644478245567 1.1197447068286521 8.199850923070596 0.4634434017043115 -0.757571946928463 -0.07233773033246252
P 8.71046842037872 1.7334905471058861 12.387536240506893 -1.026955681107767 0.2129675601731042 -0.9005551074926297
P 6.3771520603691325 7.881391228686666 1.5260857524855307 -1.2232370388744418 -0.4830200382846584 -1.7123313083776381
P 1.8302713214602115 3.3339504367620663 6.061784400618531 0.18275221293198848 -0.3762742627859713 -1.065179500475656
P 6.871028489065081 3.951056595133365 6.000756688136001 -0.6290808093328843 0.05540650179476264 -0.06540449354773897
P 2.2628761436184157 8.54713166829034 10.309055745677645 0.3417052665618502 -0.9286948031516393 -1.1706546367920354
