# total energy = -381173.66996051854 ev
CRYSTAL
PRIMVEC
9.18664156194808 0.00000000000000 0.00000000000000
0.00000000000000 9.18664156194808 0.00000000000000
0.00000000000000 0.00000000000000 13.44557852588063
PRIMCOORD
 96 1
Ni 2.9890576268533993 1.7764852220795704 2.4949485882361753 -1.4830670679270392 0.7042773492703807 0.016818614219235552
Ni 1.456468556648098 5.394680822678024 1.4487205429944479 -0.6337761579260247 -1.1801119255501933 -0.6440844818305682
Ni 6.886205604251814 4.169522718703933 12.148228564038204 0.20812154493471252 0.22105470805661284 -0.92250975738685
Ni 3.5532276701281975 2.9728615774445952 4.535220878911479 -0.5723938981638014 -0.5475249028362635 0.15920964972535806
Ni 2.9630410574116905 2.2886129398291986 7.355041272745068 -1.580060392024653 -0.09990998352377632 1.2879154528894334
Ni 7.01506662810734 4.036059187330647 8.961652627531413 0.35018605033935174 -2.229940911711708 3.8347201466392797
Ni 4.780030182975899 5.397142842667564 12.577532275744183 0.9024695509065233 0.9824452574002177 1.1272384745899298
Ni 1.9809798674794434 6.807035125632942 7.273063356406779 0.4407433890036345 -0.40716092506249874 -0.050438616266526036
Ni 3.273099403183978 0.9110851957561726 9.367494574866917 0.7621364263706939 0.7627390929516993 -0.5412030743832937
Ni 0.02177785293732879 8.587580843366904 11.595911125951858 -0.278213673766108 0.3215550168662204 -0.08943788034785888
Ni 5.837504515050445 8.3478646134898 1.784389408643005 -0.4490449668907944 0.7992235610309784 -0.4107728107834732
Ni 3.2234639777978358 5.738454143680209 10.052707809866277 0.33865696665382966 -0.8300294906682415 0.006858674793046252
Ni 1.9197141536352496 8.20735492789272 9.930151578245157 -0.21141744207716495 -1.7175794441504548 0.37724588267062126
Ni 1.3517592139586212 1.052596225304225 10.589912303606383 -2.2850080278891807 1.7938586756291688 -0.5021732141743416
Ni 9.065515880515528 5.0259749559608675 13.04023494220379 1.0973679122827424 -2.4257049635223322 -1.2836888164025957
Ni 6.659819191556887 0.702007334786219 3.3657108573502246 0.19892316626489612 0.24752961441868981 -0.5624833239183087
Ni 4.375680146260921 0.5600112505536603 11.577974207931046 1.5664944804147602 -1.8227830719730025 -0.17010341381972638
Ni 7.976981512677417 1.2459750341841587 5.260945366708878 0.39668650789373616 2.372544577449269 0.7645887445659283
Ni 0.6416694717589788 0.6554779129764339 2.9990499370870674 -1.6208362883904344 -0.9916194677003181 -1.548764924345481
Ni 6.243058001834936 1.013268211963845 0.11512791310043792 1.3792186685808052 -0.23213153469606476 -1.0314476554408494
Ni 3.024462944165669 2.2198049931065995 11.55659597390993 0.10881114266814809 1.8275121020175558 1.1908125997971493
Ni 8.143379154731681 1.9311423359747575 12.350355811858583 0.4502166186013924 0.4518091598994929 -1.0943432665238055
Ni 4.080366360500619 -0.1131472731387033 3.455378911499126 0.7066638472246862 -0.20150249695629815 -0.7128329521498755
Ni 5.150720364311491 7.064261094689385 3.861597511146464 0.40077584747176137 1.1210333742204823 0.13700791681733826
P 0.24095458918527352 6.73160361020714 5.319312695080311 1.0349888358248884 1.3335954714250517 -1.7508510617193913
Ni 6.873151386322201 7.0632046308879035 6.7307896737479105 -0.7231047663895289 -1.3352857146432808 -0.24557351913358352
P 8.058007692930197 8.676645335152697 1.7917580139922968 -0.3198421479401718 0.0619684712829965 1.4052171495270962
Ni 0.4176780165688026 7.135972020205622 0.12613626591187854 0.26128141678714356 1.425357371920397 0.37632054264287446
P 0.9455167290427281 2.958135390716114 11.779833205812267 -0.9472306571722976 0.5122362548372985 -0.027541142843062243
P 4.0631597804990935 2.9600094656335254 0.7955925729781798 -1.3450129692333739 2.2593826140115922 -0.2565405596680485
P 3.595320862635934 7.636239783453397 11.198069824918182 0.7609305789880507 -0.758675721515603 0.9061251453812396
Ni 7.541442827214346 9.105826864523374 7.368755091552477 -0.4768241938865917 1.8909283614906724 0.7059346823681455
Ni 7.298603139141558 6.689216445163338 2.671824513872788 0.6254205868724777 0.8258450202732486 -0.4917314500157273
Ni 7.60266260784978 6.23947521155165 9.19996238255628 0.10024962625138219 -0.5307487118191891 -0.8700931914583467
Ni 7.814157474264689 1.955927895421696 1.5855564905548991 -0.4389410456875731 0.4440146035557386 0.1528626244614077
Ni 2.8372208119760813 4.502051590201651 13.056154473695859 -1.1174582552747143 -1.2032413124788053 -0.12473141344283036
Ni 0.6463803816494126 7.126785378453606 2.6483893907633957 -1.8642012299084734 1.8464261653132397 1.126005373513777
Ni 6.002459854349642 2.863751833355903 4.9847195851809145 -0.7896906818398788 -0.04078258123400073 1.2399391821204708
Ni 8.175348668028695 6.387839475846706 11.546296829841745 -1.3584333564043378 1.2324901820415934 -0.5862238620683582
Ni 5.157637905550759 5.792195997929502 8.377564107609894 -0.16112229336703865 -0.13491503884405154 -0.6734696198609047
Ni 3.2555437307958757 -0.1649911672020296 7.142668163378666 -1.2460522369967444 0.3084511324944107 -0.5310636719564467
Ni 1.1098290034192837 2.532582584837484 4.141090062481444 -0.25629733330899085 2.558628940078284 -1.455723385806764
Ni 2.418117028607366 8.963645210127424 1.2889023737629786 -1.1249105977877014 -0.7901241698328716 1.507191728889385
Ni 0.9457555817282804 4.948871471736199 3.950203589508832 -0.5835859102248788 0.6970417507538899 -0.9864343239549528
Ni 0.9441203594964217 1.9057596448139376 6.201302877743674 0.14984414935005805 -1.1851034652275139 2.347144649318926
Ni 5.879450721290149 1.9320885600752151 7.32645519960532 -0.2013834548799306 0.20877923312336946 -2.095263957020392
Ni 2.8217505072656865 6.929805406006881 0.13160048042597755 0.910728705591522 -0.5497069980892467 -0.28557988432319203
Ni 4.301902226350482 7.229850312269472 6.204502585065901 0.5298082022827908 -1.0113071759372327 0.24930881780629965
Ni 6.839785503478878 9.197298256448196 10.91485209035276 0.33075570952888195 -0.7959526035891905 0.40801401709141344
Ni 3.4711358394321836 5.350493075850827 4.341174201176174 0.32723869751455903 -0.16850290210182595 0.48400734189859224
Ni 1.6153331524657082 2.386165888593855 0.3575560396227348 0.14663592682540552 0.1578125122675153 0.6892057996492389
Ni 8.663177718344242 3.573282109072848 5.6915407202451895 -1.0077600820159225 0.24184104867434478 0.6032131975375031
Ni 5.724784420753211 4.9483570197980855 3.143858971024093 0.5517263425121208 -2.2189232204449656 1.418487127163125
Ni 7.640511571868085 3.3783415710950715 3.5550512185159726 0.7375479383980524 -0.7527094766298391 -0.6578259997863768
Ni 7.832402144784192 8.355443592935215 4.855750158952715 0.7194278317585739 -3.2284378232581497 -1.0163105426890948
Ni 5.724646621126929 6.080013484020158 10.582463774473847 0.014402291468259066 0.7474888516608481 0.7175352427215514
P 1.3089310901107234 0.31129946107298456 8.193077049281737 0.6248251193803239 0.6276651599322803 1.6155074199783532
Ni 2.3719909003704944 7.3482385645277 4.759694632793637 -1.079648640626108 0.8194028641923308 -0.3587645360369821
P 6.926268548932356 6.030525044902049 13.957452221329433 -0.4492192876851296 0.18100926209895277 -1.4093375994533728
Ni 4.556721295267898 3.2497469598503534 8.828811031804738 -0.862807970650843 1.2124774863650924 -0.537426638059997
P 2.5896040701922463 4.544650048005749 8.077835221823573 0.25531594323232804 1.7264155543848463 0.1230843647577106
P 5.946981724809217 2.096529447436299 11.625222025125838 0.5967034214434432 0.32832858814462806 -0.4705959535886928
P 7.946849327730805 2.410482929311441 7.61093701607582 0.4195497856451549 0.15685683322246535 -0.7071559563697564
Ni 3.8127778595479014 7.612225901913628 8.836259560937272 1.9608258578127586 0.6881231081080214 -0.025699975869265416
Ni 8.999059714081445 5.71941023532828 6.995358525556741 -1.1886937536819335 -0.36555173416214465 1.170687804022816
Ni 7.504834059832563 8.13919004609276 13.06525751700793 -0.633737077157973 -0.5564335181798029 1.2149591151363657
Ni 4.09221712836072 4.135109558700882 6.630472464480073 1.7904951584735744 1.3697660078083378 -1.1422107796290457
Ni 4.182062484695435 1.0113114572706656 0.6114307217680435 -1.136858771288513 -2.4361732100435076 -0.41503415716298836
Ni 5.147991931711142 2.5572211580163904 2.797111015422605 1.1223400088470479 -0.2394383527701231 -0.7056449190418685
Ni 5.978914491539225 3.8569104865245856 0.8355434406293463 0.4924199914423197 0.06717572651554882 0.5322630915811866
Ni 8.258239736557135 4.684452362187926 1.6058461075284014 -1.127575289104058 0.6451738582400051 1.4686051268654385
Ni 7.720269995559087 5.501815438790033 4.669138230387315 -0.8714833869376539 0.46222187059238456 0.5002698265040416
Ni 0.08679263528052021 0.5267298848144571 0.4480380302308645 1.1966880847413197 -0.8927461529711721 -0.9315602976248925
Ni 5.189938137950847 7.724008958752156 12.915890071433555 -0.7101289229551512 0.4892719327316412 -0.5446740636510298
Ni 4.934880216347878 6.155591985713993 1.455175077489414 -1.1051136176664322 0.7397043226194229 -0.6084407644850296
Ni 1.371271641039903 6.268707105606564 11.49223160580278 0.6418023706646109 0.33221943855860203 0.7332853064669564
Ni 3.286603766559441 4.387567660688029 2.2313746497290885 0.7889990550894929 -0.46216607765378465 0.16476888898069042
Ni 2.196673029175024 -0.270318770881417 12.40710996593836 0.273571032787774 0.19832178523547134 0.03819707989501163
Ni 4.742153659032338 3.9024854162563365 10.933703079227895 0.10586697243815961 -1.0738384617022345 0.2799867065061307
Ni 5.62885750757866 1.3763426672870158 9.396012666857702 0.6097530555385499 -1.2304394701601518 2.131351446771568
Ni 8.743597580241389 4.428687069170052 10.486892384335102 0.8483090057037196 -1.814847362065694 1.0589445753095377
Ni 1.8354175289187522 4.308874887440261 5.939046303663827 0.03590288454419623 -0.06813449088439233 0.4451695430957882
Ni 0.4950819039787626 8.770477694007786 6.465763327179831 0.22675021577949334 -1.2156227168622935 -1.6751855525652761
Ni 6.490950342871332 4.438259549875653 7.065382783647307 0.15788578870761194 0.3624988062684338 -4.701183197544207
Ni 0.7829076580469962 5.856511676835366 9.233778410845451 0.8693853667580446 0.439854558640778 -0.41992902336144455
Ni 8.239517360666527 1.542225857403166 9.597145001376335 0.1911054699926902 0.19092754965392925 -0.12191656970185456
Ni 0.6026427802680651 3.7283066886381153 7.893818519553119 -1.2519853146517277 -1.0955511707889778 1.0014709065731011
Ni 2.052801032696703 3.574549865634626 9.881478912914629 -0.06915804705290024 -0.2529299594986547 0.6999337275897043
P 2.7206239548594966 6.978816139753886 2.473085299530553 1.971801640097972 -0.024809345734195982 0.04372238058861502
Ni -0.2553583247882592 8.124858884959616 9.305591308085134 -0.8232734028913304 0.9909247556261386 -0.9076804056835013
P 4.0862641845054135 1.3293989279342149 5.930791187385464 1.2973614287936817 0.5300822818797839 -2.058937354675215
Ni 2.295824453604531 0.7014542989527477 4.530931635877463 0.6708820616393866 -1.1444838919339386 2.0964363800619377
P 5.462616038434181 5.523201940788726 5.40935832020522 0.6795029705391781 -0.17917683687590433 0.13623350054515893
P 6.475902623681531 8.00980538365737 8.976094028365582 -0.7185001777379819 0.4891109816737448 -0.07524821911103816
P 0.3191595517560093 3.1437331140320905 2.2078044829859413 1.710449775084209 -0.8132111335593221 0.1379545970013237
Ni 5.76871494161135 9.236617083146824 5.470266673685259 -0.9430978659508468 -0.14943431550614908 0.6041071701066822
