# total energy = -340862.9623427378 ev
CRYSTAL
PRIMVEC
9.29118637915100 0.00000000000000 0.00000000000000
0.00000000000000 9.29118637915100 0.00000000000000
0.00000000000000 0.00000000000000 13.59859043340004
PRIMCOORD
 96 1
Ni 7.207489292031796 4.150177908246216 8.66960429334928 -0.5468337903065098 0.07666129740848088 1.163165527503842
Ni 5.995212438281489 8.046399815054949 1.1840873938168446 -1.3515083471497304 -0.30480530821170737 3.209711707603556
Ni 3.0452142589229005 1.6312629103420946 3.1129758114083104 0.6078298703739081 -1.9516555041674002 -1.0886472445802928
Ni 8.793030273457422 3.528402414440273 7.182640013656039 -0.18853153861792693 1.4388258387204766 -0.516148445407511
Ni 1.0217889475025006 6.929032431713448 0.4508000083907885 -0.0682141950823922 0.22583695993660463 0.47447369137654416
Ni 0.6936363177885992 6.838703516264166 6.172727060776793 -1.6002072992861733 -0.2018213137482976 0.14520922168120798
Ni 7.194751075298514 4.498309376356599 5.269086699433124 -0.9969419083544959 0.3197858407809395 0.7947997209316698
Ni 5.355114724637448 1.9983391077881163 2.1754755789916294 -0.13204928726048223 2.0496821546255344 0.9582131243257304
Ni 4.110671783118636 6.086015204243825 8.19951485260257 0.6708766623227478 -0.25930552400769535 -1.097215188754962
Ni 6.716552286948006 6.416307594215694 8.899257338179 0.06743412238325805 0.7964745375309316 1.0693408309421972
Ni 0.7517313198077028 7.0892868169910885 9.44842313836793 -2.7700003594088614 0.38508183377527233 -0.19058045072715565
Ni 6.141855235291982 3.79433475531554 11.039974588360119 -1.8534344783102725 -0.3006576045919209 0.7895878377134272
Ni 2.86754819008715 7.405698174286427 10.00497264449263 1.105801387762076 1.016109225311566 0.6855468627404129
Ni 7.01565416373707 0.6169663756577695 2.9700950158240067 -0.7242748754382301 0.6989698210145381 -1.4837329836458124
Ni 6.291322553007739 0.5061726927564627 9.091052514371643 1.6554986156593103 0.6919262839041954 2.113511333266354
Ni 4.453089171512775 5.376837518745699 5.276511286589626 -0.0230126588450894 -1.8518470792184945 1.4895544754235959
Ni 8.132584861311638 4.699361361689555 3.0992815315810427 -0.7595766360633176 1.6294217160666002 0.8037366184099834
Ni 7.291267920977092 0.9865846417385292 0.5145189656167887 -0.5634413169562038 -0.7685667553770699 -0.17018620334151982
Ni 7.965297047830429 6.920976972991527 4.659040399503252 -0.4423662693190382 0.46250083528538416 -0.30859974225713305
Ni 2.7498660214921484 4.013913366590264 2.397757925546723 -0.6250729737250719 0.6583461339559049 -1.2907531794485447
Ni 4.499665889590048 5.719357110191675 0.9120683966454636 1.0460479218525276 0.12391560240975431 -1.9359157248346401
Ni 5.278295194403477 8.153192713036233 8.049862640274858 -1.4375752541428275 -0.23056624709147386 -0.17759817953487478
Ni 3.4325080782592368 3.096510899757655 6.376365712439834 0.37963932260346234 -0.7637441371774459 -2.04185108861689
Ni 1.0716826191711533 8.107963217005878 11.70282455957999 -0.17242563419499982 0.15595669000569917 1.3607100682536566
P 8.742662751275715 8.61984255652936 0.07829961624827525 2.0572026313722955 1.4582986027331077 0.6143123927744581
P 5.536906080292729 8.559775035609835 5.918106739502379 0.7796204420880702 -0.22116577971318038 -0.25245739073761037
P 7.263487273250972 7.768751287964753 10.66466732876675 0.36430320646702424 -0.19569488913558555 -0.22800285723967184
P 4.7214929680051485 4.423283045123011 9.361215132474236 0.3771836619741181 -2.7422298741638125 -0.7959325489845325
P 1.644168368432925 6.013348834388976 11.23497894038039 -0.12155481548706164 -1.0489756370222838 0.47893044159631715
P 7.678106472173435 2.8335703209452014 2.1296477305487125 -1.6829109462339917 -1.885618776352301 -0.9407725602517798
P 2.257981315382251 8.616051752424926 4.271657384776223 0.39507802575603573 0.7653747308023334 -1.0520522190650785
P 0.24409154869807811 8.849827296718217 7.922879064844198 1.2240304813100145 -2.562305874709239 1.3860444332533872
Ni 2.7295369053634686 3.505416018963877 8.392030095751329 1.2029680042127604 0.0488599589254965 2.081564862266744
Ni 4.376167438226969 2.0247632422807884 9.998187290969424 -0.09456568849272746 -0.2644945244078026 0.4612361096403476
Ni 6.167359542318136 6.614079790703394 6.527405098916549 -1.779051178302691 -3.1452217554502866 -1.2268517528088934
Ni 1.9564637300952639 8.324949587238603 2.132190728302104 -0.2647979145808343 0.6129993303899894 1.8543855293696323
Ni 4.362769547250024 2.4201589762716993 12.393184804997944 0.7036967941765623 -0.14415841181919045 0.07029396042955635
Ni 6.327781168953325 3.1083385802109498 0.19728998390676747 -0.44981115563285756 -0.961559415090144 -0.8181167983910557
Ni 0.3142873920544727 4.656519700597533 5.210096027032482 0.718540286947298 1.2235005769484735 -1.005341959492733
Ni 2.3876491146015657 1.0637758194337188 8.084715739187978 -1.7617628235358886 1.1930083218968874 0.24560051571677702
Ni 2.2985001798416542 4.752088845250004 13.009404169258662 0.13949777311872752 1.2537624611568083 1.0655047450255584
Ni 7.664764328315672 8.001430472247447 7.116604763627992 2.0219996011086017 2.345881723446102 0.21330437468723265
Ni 0.6538440241158794 0.806516801184651 3.9093912345970288 -0.0343674217362763 -1.0454555396841674 1.5964056661518957
Ni 7.359390900618537 7.209477605949317 13.158404140291939 0.5184015031077459 -1.9224362022909665 -2.121252153554037
Ni 0.7302092153285096 6.4260354665131025 3.3526512591484536 0.6681001280188753 -0.3619457619784412 -0.1316790484052571
Ni 1.9102307859196181 8.989687527561463 6.3604276110654565 -1.4271517448166582 1.914414617538071 -1.7546966607177266
Ni 9.014866643059051 1.34660882860792 7.1304486315584 -0.688924263853078 -1.1776297825582878 -0.6089971512091319
Ni 0.7173214104920872 4.78191355401283 8.81944790411952 -0.40956567784924947 -0.05374916869699775 0.48137530359238384
Ni 4.588266644344661 1.577113875242484 7.657311867599579 1.3664384860970016 -0.47634108360258604 -0.4760042690884576
Ni 3.044498837560054 7.096069383158335 5.5258551430333815 0.3864710008133151 0.533909626045674 -0.8422026356956658
Ni 8.28056558918252 2.47139057880074 10.125089103958617 -0.6599366183714763 -0.8432333909530253 -1.4823003649643438
Ni 8.00654991602574 7.978927218470638 2.2622338914572495 2.013425229176029 -0.5310127641138531 -0.2318695392839297
Ni 9.205029357778292 5.46166605176894 12.601990285490583 0.1954904864342633 0.5773445573008573 1.0385742391833017
Ni 0.15192855302768052 1.0503500548971818 1.6431045275751854 -0.041559311499025205 -0.6256401590824515 -0.8421087904302788
Ni 8.93156186462681 0.06148163950946175 10.206055290741137 -0.4982695082445612 -0.6563656131907663 -0.901175514685448
Ni 0.5716318892196209 3.4702117131999057 11.498261434857165 2.5189172233109587 1.5642056843805834 -1.5958276821612387
P 7.849723978577846 0.28614438805366277 4.71622207788641 1.4565924186752786 -1.5632721168227206 2.259032172650709
P 3.7062357246335718 7.908973875082689 0.908421605932252 0.37135291422495403 0.6172902444558594 0.6944472505538363
P 6.720919144617331 6.175405709853528 2.6196184522333326 -0.9598673720997019 1.4313554984853607 -0.14036963420071955
P 5.218097596872527 3.398316511827087 4.854914406582775 0.21580014452589283 -0.8946539115168464 0.4626728420868742
P 5.747462949446362 5.6166523342838 12.603907986390473 0.055375905667143344 0.0969249327535234 -0.3852463843775946
P 0.307139682256578 4.995211323192954 1.5328330093568914 1.2425789337361632 2.7877893079611664 -0.055912237786587576
P 8.115238216059241 5.760266204485358 7.2380944604631825 0.9257110379329669 -0.44787460073177704 -0.6077709921115146
P 2.527574383750525 5.1983724078683275 4.292231788229308 -1.3242243146227968 0.6193041895620947 0.35665417456219867
Ni 2.0810585414689386 2.489796419317612 12.778541411942676 1.7709416618216791 -1.5368275494779466 0.6269642772105137
Ni 3.4874096994678156 7.134200412679406 12.510906925695025 -1.0850438434997507 -4.163803610672061 0.8346767596322657
Ni 2.4035184611956173 5.1805333297298155 6.961553442807419 -0.9383739781126161 0.027273491003972382 -1.6685595626083265
Ni 2.1339997223195875 0.109506853566836 0.10350288883084278 -0.7193985211825352 0.7188303073838911 -0.10755387322227929
Ni 0.18902268613195047 2.9615471242159694 3.276593606209982 1.283085378490642 -0.2720749078582217 -0.46913376722086947
Ni 5.347783978464903 7.0153103898354425 4.094195722044143 1.7474872874534808 1.3200236462778878 0.16249474823453305
Ni 4.67013128886468 6.12578148259426 10.459424089189895 1.7849680580077583 0.5127677018607363 2.5796708483502475
Ni 4.056559912765147 0.5627941125918328 5.376569932573622 -2.0019989896169585 0.6374098980238699 -0.35626079577852193
Ni 0.04405323181559601 3.3149652774621923 0.38292510342970665 -0.6650484856767449 -0.6806792502354665 0.38661755369350836
Ni 4.604182446871366 9.12252362138767 3.1169468645314353 -0.2874243937310985 -0.5018333143364196 -0.7187585736056911
Ni 3.489974066950227 9.099964620491676 11.890839151973385 0.629573946919219 3.7239873614683865 -2.3090028481418816
Ni 7.971234116023403 4.986319657683288 10.777930609047859 0.8532650641574143 1.5328505671080699 -0.9382186834816745
Ni 3.5469383315685716 6.474888525290342 2.767408710780339 -1.8311697533748013 1.4278765387978247 1.063985737277871
Ni 0.09295646300010017 1.3323282749105794 12.629391852806261 -0.731848831130746 -2.046386257483082 -0.5619153672299807
Ni 2.2260010513443547 3.0569304451378296 4.464607455454606 0.06496792023095263 1.2201619994935438 1.236446338475864
Ni 6.181417107538746 1.5821775719015931 5.657149829014183 0.9764301615543892 -0.0889812524264145 0.09082884715811454
Ni 5.416408682178994 4.03492073933567 7.115340233141194 0.3424334029771264 -0.03539612011110678 0.7765430887143271
Ni 7.252867447046638 5.017296473575893 0.7574472577612513 0.8397426041909474 1.896030458603928 0.43381812263871095
Ni 5.453917202202524 8.412816338257308 12.722514628045255 1.2970387553469402 -0.9189912027106303 -1.9548215606002075
Ni 4.631061849504031 0.7810589500911483 0.4736665475609415 -0.8345014103966659 -0.7689915016193143 -0.01792650257143364
Ni 3.1160316826581838 4.002931184111243 10.946308278709092 -0.3290819213708848 0.3083745136202044 -1.0069740957795172
Ni 4.973377034846336 4.602714439399551 3.06320478340186 1.425057581291791 -0.4536621539478316 -0.4760135250598383
Ni 2.2681551646331215 7.38580574392468 7.715745068808391 0.5257430310744816 -0.049427144282876166 2.16813390570724
Ni 1.9383830811069587 0.8615875219880846 10.553702688033283 -0.6371638434513349 0.7964948492459057 -0.18433189871428257
P 1.1501188158614266 2.6871040564787876 9.519108627254482 -0.2368590220787211 -0.5833305996809631 0.0684849322452756
P 4.211360371549397 3.6223641838229708 0.8061247131130649 0.43832423803918064 -1.100506200801408 -0.795565652563417
P 8.022400680246731 3.0494324576077365 12.199132799597045 -2.974636002677503 -0.12353430781093563 0.6372713155634767
P 0.5502054839616917 2.5795864459481264 5.538461424917931 -0.48914723422831896 -1.2666552579590766 -0.09942790168103521
P 5.7207043322385935 0.6002413107842608 11.301408136717331 -0.9886249038483683 1.6570633890432689 -0.3423524132275459
P 3.7327341886184877 9.25539687996 9.224536203899024 0.6291407160365423 0.09068872203582447 0.46325802516638276
P 2.0028824980015187 2.21671915600041 1.33812411706829 -0.7487345511424912 -0.9517550274052127 -0.6695252905011759
P 6.947401107484199 2.16414962261098 7.8600529906437755 -0.10726025324126044 0.30328835734654863 -0.4725831592220506
