# total energy = -340855.373277305 ev
CRYSTAL
PRIMVEC
9.41670180453553 0.00000000000000 0.00000000000000

0.00000000000000 9.41670180453553 0.00000000000000

0.00000000000000 0.00000000000000 13.78229494574144

PRIMCOORD
 96 1
Ni 6.882346990180257 2.3192959233203303 6.618437337736861 -1.059111439904705 1.158984913763591 -1.2611906353000797
Ni 2.1696080355872773 2.0715990059241163 0.9304416794144682 -1.0097290328168353 0.6245965483092856 -1.1360311331808952
Ni 2.67002097230231 6.773838338296263 13.019526845481563 -0.2898160338917267 1.3098089105284154 -0.17074593249973175
Ni 4.583890227375355 4.999901268157363 13.138730045308337 0.35312302148048863 0.5848069271161734 0.7519985666057436
Ni 2.763867819883312 5.013320067856633 11.583646535738378 -0.2860115725439719 -0.30151018240020333 -0.8306187875128082
Ni 5.152169332113293 0.9075299028893493 10.540368288410592 2.961160079678255 -0.43724643159396953 0.3566153509044633
Ni 1.4896091837390635 0.9938480975864447 5.944909643189236 0.46899672742237297 -1.5906183700461574 0.40177035017454676
Ni 6.491101874457252 4.38252348157241 7.669653864465688 1.0633583881065172 0.4366581631906673 1.3429766555296356
Ni 5.100424557132598 7.819647794998899 13.15613775978137 -1.0984392909700502 -2.612852734418855 -0.06280845068578861
Ni 8.092986390697648 2.071034003831515 12.084770433419934 0.27886004910085527 -3.281188118376988 0.9138173718191746
Ni 3.4686514301936167 2.809284571426877 12.776834904955638 1.2655658815496398 0.18198833818277044 -0.6709237135105994
Ni 3.5250574724382684 8.566495811103337 5.247016233398199 -0.7025791356323513 -0.11716851349390789 0.17543948132065912
Ni 3.2858638365356967 2.86198043326345 8.502614791173576 -0.4191828892240394 -0.2145685861116369 0.6051379253640418
Ni 1.5175108704120024 0.18376504727811893 8.133014905618111 -0.04310942959496447 0.36320997340284544 0.43310952660746055
Ni 1.6569439701643498 4.323094678132344 13.83094612573889 0.6244723640265956 -2.218916535576746 -2.7625428746895517
Ni 5.868413068201852 3.252905381133981 3.619533355682366 0.5448465846731521 -0.3092183496777384 -1.3122671422609204
Ni 1.328875505095664 4.3003910107113335 4.333263774129005 0.688990341204323 -0.2605154851553965 1.4390718932930118
Ni 1.2846546746481038 9.025428177519924 2.0285053546512946 0.18479418306268175 -0.3339978706152635 2.9911329718912616
Ni 6.058668106183646 6.695208880409311 8.595699827599722 -0.2823112408742493 0.909487119874937 -1.7685430796825152
Ni 9.098228697151544 7.550782132533239 10.038802747426653 0.8556788158052296 -0.6743008575129484 -0.7517576542395311
Ni 2.716304060387863 6.947369314337071 3.5335325038272813 2.5321100678521486 0.653145820701888 0.10175577848326346
Ni 5.265207417439638 8.852405703362455 8.857178087704625 0.2592049938740891 -0.43613725769019074 0.38270767711614084
Ni 6.802305027061802 7.73368272660968 10.546900654271212 -0.4102040827641968 -0.12599742463944755 0.3190690172195731
Ni 8.690316019696814 3.6612041433519877 10.737358151336188 0.9849212297445361 -0.3584786293654471 -0.18578868576546714
P 8.663177085848888 2.7093262845442427 3.245702546123474 -2.1819828957751906 -0.6431748255321053 -1.6362767913152205
P 0.09232887529221415 5.450019601929376 11.91589601629231 0.8954098158462644 -0.5368332274503722 0.3983448694327656
P 6.329473609167235 0.46324804073390285 3.1824693952598953 2.052350702596633 -1.0216872336199758 2.585112073970477
P 2.286676469174174 3.4570877206983854 2.651492670345619 0.9534023332006483 0.9402879073058774 -0.9358789796049043
P 7.971068355815928 8.572993335168247 -0.14865864225436493 1.6102284309676012 -0.6528827968484885 1.0866145304209802
P 0.5797910223746808 7.854338923484592 7.425087058662482 -1.6430503625936281 -0.7556459335503438 -0.771842083694232
P 9.599008885226768 2.4332756788010093 13.883869871752811 -1.2118393385604613 0.15815369765701792 -0.49888194501757954
P 8.820982170312305 5.1359443553541055 6.352728153628532 1.8884631877796314 -1.9078197379293722 1.62891366608193
Ni 0.9261702635944058 1.6611438190526828 3.9504324812349814 0.1269505325813362 -0.22859369674613536 -1.6101122171047109
Ni 1.8341192097024341 3.2019139422767537 10.411958379484888 0.44308643531451436 0.8001185620414221 -1.6034687436462642
Ni 7.448949922043479 5.25792830714663 9.650114266172668 -0.4605910198571809 -0.22915008347023763 1.7986167591394444
Ni 0.326539192738046 4.2065535798318745 2.1784569100275615 -0.28509291738444453 0.3241513168384869 0.14605305773874203
Ni 7.935595641102138 5.812242443495784 4.72055952522473 -1.0755752418876832 1.59791361815599 -2.398271549901728
Ni 5.202068433591491 1.0907553731690345 1.6887441712762343 -1.2627114428199802 4.763654833715867 -2.7618795300739403
Ni 8.695156204290095 3.1732400860772603 5.227872079160572 -0.5445743048483718 0.8842748822753673 1.5270470730524153
Ni 4.307284036241064 4.400198630369274 7.120485013839819 -0.9236094182089319 -1.0709174314006975 -1.0063611447858667
Ni 8.247128378260705 6.430976235102978 7.923675038618414 1.2794781207553578 1.1630161464101711 -0.9287408258982263
Ni 3.9185343464270463 6.6480688724833135 7.538694854432199 -0.8607253770902016 1.098828813098985 -0.2900142659454618
Ni 8.535891531087458 8.19667369139145 5.69257029193215 1.7863081169754205 -0.3213840385059949 0.8595658095644616
Ni 6.484585516989256 8.067740213859933 4.676511962085566 -0.3330928423024908 -0.9309573739335709 -2.718287247305286
Ni 7.143641624605065 3.8672604065235188 12.865454541509928 -1.9164918117820737 1.6041760541259342 -0.4283622417304623
Ni 1.95261898192392 7.07186752544167 8.80273731107207 -0.12190011464162234 2.200454986437449 1.1989110605345674
Ni 0.4439409775595773 1.2784019848233212 10.123329885490204 -0.6930004908049807 -1.0921498584169127 -0.3285967542043502
Ni 3.0523013881560477 0.457645103315611 9.906905833919447 -1.1527936973512147 0.009223832591113148 0.022974349407986237
Ni 1.4718116178221368 6.155217547107589 6.015571629900362 -0.24058969276574693 0.5135922546445606 0.39607175712787274
Ni 8.209800573342875 8.557267443590858 3.081183353459649 0.5478681451082951 -1.6906839053111915 -0.10607163224979796
Ni 7.060087231810942 6.558855042061639 0.8661811664125101 0.010651823286891333 -1.40980399756683 1.201897653966717
Ni 3.0898834440155474 1.566976803619207 2.928076261396207 1.2246290341259618 -0.9000264886826694 2.424429182133702
Ni 8.675145713510481 0.9825668891375143 1.7839253654659284 0.22978745994392039 0.8858080310904423 -0.9503730594560212
Ni 8.875862706906934 4.8871551005788625 14.009426520110882 -0.6139274986312137 0.16661905481555175 -0.1585920707460172
Ni 5.157715769322325 1.4547297212225043 7.648677220107727 -1.3409118025808069 0.04397332025715653 0.6259692602870961
Ni 4.56981225856805 5.298504874096914 9.547905387621174 -0.2886886051555028 -1.4566222434719494 1.4258595083677958
P 7.599033311241352 0.8009431997903526 10.257445373881025 -0.5674015871555325 -0.6440870529337295 0.9839802059875054
P 6.059977027698171 5.30918341364707 11.460763288948465 -0.21044633641314722 0.7952051839002047 -0.1756773083630781
P 3.2225553520597714 9.658710773011592 1.2486734580509729 -0.5699930020317926 -0.8394291867155865 -2.2420713764266544
P 0.1543001881489844 2.7955550205766766 8.706964748025452 0.758603730627087 1.0606924112385796 -0.00975373695265417
P 4.098026094544794 6.6639642646884845 0.9746191930349289 0.4725412502405217 0.2811874116824512 0.4258908973718343
P 1.3439233941619337 8.66774418609741 4.338059700225032 -0.06226697636002179 -0.13097842279380667 -0.34255450193602294
P 8.323111743013976 5.958945236839595 2.498688796071873 0.04849871893133583 0.4674340109209434 -0.756922229159606
P 5.876454931319871 4.50342451268745 1.8116001096316727 -0.24969448328049254 0.7836753288837341 -0.23192019001620703
Ni 6.308653282054893 8.646575441027965 1.2450291945536975 1.532059695775658 0.2932219742494821 -0.5241024101472651
Ni 4.452028155663859 8.702840232749468 2.6971401310769965 -1.7252824692216675 -1.8812895528493276 2.2736818042430844
Ni 0.6386623570833811 6.529879851412758 3.588331115118484 -1.7227938984718587 0.9843008225517177 0.06288789777347234
Ni 6.240749447225814 3.2704581128107804 10.618334810508893 0.41871057757331115 -0.03567791301758372 -0.7068998744948922
Ni 6.276259828745777 4.406507820403316 5.444144521836481 0.10237644278639788 0.37040289160685885 0.3652234042884484
Ni 4.334837304956898 5.629897434810402 4.980645996841526 -1.633070111452465 0.24107460282196547 -0.5156560791521249
Ni 0.468663585791482 7.240859651338585 0.7475297852961766 -1.504794689412118 -0.1406102894566159 -0.30297931074656204
Ni 5.572992307383952 8.735092435535433 6.4329000672282834 -0.34689246718974454 1.4936271028310728 2.5037651981608686
Ni 3.8830616317132556 0.2575759789853401 12.407814146545089 -0.6838301371596223 0.2343146583903126 0.7416699309862259
Ni 3.9614556720616245 4.85460156334351 2.8334883194037435 -0.045989579356236925 -0.2952125223169496 -0.7112010729734074
Ni 0.5036701737788765 5.292996103694056 9.789522882501004 1.035923946044648 0.25379462149179516 -0.9482938083294893
Ni 7.756009725968957 6.468172206199202 12.66974629166438 0.11027949968355846 0.9652959993144408 -3.7134201274755014
Ni 9.201774747322194 9.030268362113205 11.783159133007436 -1.2310503642712733 0.8740496050029334 1.0892026028631308
Ni 2.1812753287994853 5.8281472524024975 1.3962567129890877 0.6847271950525949 1.1846653492488308 2.3560841179004
Ni 7.95911856155742 0.8614737573109907 4.72819552850623 -0.45807725229639173 0.8401118146049079 -0.3445270522813615
Ni 6.98820954893057 2.8187201063733114 1.1516786071440301 0.6065726009280392 -0.585004130728644 0.6994565308429697
Ni 1.4023916940445786 9.305179546969693 13.609795831663526 0.6214778001746458 0.19458005880485202 -1.4140694577114035
Ni 7.7959177071096635 9.012235378657694 8.433523510279882 -0.14246225506369012 -0.7311911429420891 0.19331944692487352
Ni 6.491478542518987 9.286882895870969 12.322915048770575 0.6208167695518791 2.354077886103649 -0.6127658742229447
Ni 4.822904945948602 1.4770567205817813 4.65022900640793 -0.323399783384443 -0.5856186243841914 1.0775400789235376
Ni 3.94076717877089 7.585699261855972 10.50718006549122 -0.323247831187611 0.08822637653826094 0.7269745337575803
Ni 1.4141060707645028 1.9062040600167596 12.109675725661777 -0.7085006433231088 -1.18324481475222 2.246364347375054
Ni 5.734469905449275 6.757867612478746 2.6612511981549907 -0.666336094139917 -1.5335779321923977 1.2449906285014496
Ni 1.2260639576453956 3.129151089451307 6.72690361446391 -0.7937278280237298 1.5927351592788441 1.2398427657519229
P 8.3073670180335 0.9563507920408347 6.906197611849247 1.6144792358241549 -0.8177046505543014 -0.5607120909504989
P 4.20609216145625 2.696623154162267 10.667262108387819 -2.6797857487959784 1.4234149034820454 -0.5754092879513575
P 5.614689461817895 6.583310215969711 6.2302309916018945 1.786389363835317 -0.26780096307321616 0.3445633048359356
P 5.544779869560083 1.8422834899405165 13.318864954141494 0.36494006872007473 0.12480546121387537 -0.16372322132499545
P 1.6771616283779172 8.400893697762028 10.99186240227809 1.1987508808076193 -0.03407920107189615 -0.12520963863082954
P 3.614393719980007 8.923680717344054 7.569098558705205 -1.1778922921910553 0.43547776972932095 -0.76249663792359
P 2.9708469198060916 2.7510987725905327 5.637867730996691 1.2807449032829232 -0.43474166289424476 -0.3248761108196534
P 2.5048708606350805 5.122139470891558 8.73293036086108 1.2059895646479037 -2.452009662855132 -0.005950304046163946
