# total energy = -340884.7067891055 ev
CRYSTAL
PRIMVEC
9.09876646147235 0.00000000000000 0.00000000000000
0.00000000000000 9.09876646147235 0.00000000000000
0.00000000000000 0.00000000000000 13.31696443377668
PRIMCOORD
 96 1
Ni 6.704298775275237 2.24859638363397 11.508467549334364 -0.9913003937980024 -0.7240977264304175 0.3558057105189743
Ni 5.130512415402712 0.41184293118760246 5.902864856459811 -1.7758437271089869 -0.3451389748337475 1.336707534691472
Ni 2.9422772492922835 1.6826712995927868 4.682976842656269 -1.1858989645456157 1.184887749672282 0.6382917864081911
Ni 3.325162445947112 4.368527108992331 4.640828626205515 1.8786140628996937 1.0209570403221706 -0.6970576915934898
Ni 3.71186002580097 2.837541347134689 2.672728108970999 -0.7338607193544523 0.25418748605483965 0.16691318901720287
Ni 5.034402143967505 4.901733028394585 2.1371465016134543 0.06052813929204415 0.1483580517228348 1.1913044518319031
Ni 5.442363541330033 4.2758106774932525 11.849035292479961 -0.525061945847057 0.365468430419719 -1.187191458104794
Ni 5.947163111454552 8.117628386424872 12.312466410450044 -0.45645051532624614 0.6505770315334474 0.7087029891419021
Ni 1.741331047764971 6.730430432906774 0.29250168890809236 3.1193857682237893 1.5748006862876105 1.355352660596485
Ni 3.2010552697304853 1.7255537865069337 0.6529384086449106 -0.5678690137102543 -1.8804675711686647 -0.8874231980963619
Ni 8.33369679651404 0.13663526792723307 6.285700919775082 -0.27219729236869894 0.5469302066750581 0.6415558018714435
Ni 8.80000858398487 2.88223448859921 1.5148318116629937 -1.9035969580972765 -1.1603332002613693 -0.18983971590638918
Ni 7.024593556593249 0.46393609951553877 4.293042831528199 0.06971160556352511 0.8354115809157613 0.21294853400971067
Ni 0.882635861201444 7.568445032899716 2.420904275833557 -0.20963669602765833 0.25370746109462755 -0.22527234568238624
Ni 8.019798448105139 4.0177514596152495 3.879577590258527 -0.5872677299518403 -1.1056386369319668 -1.044557967570562
Ni 7.999617383820061 4.1518672790751525 12.295846603406256 0.25050566632787824 0.65813658904826 0.2970254071559723
Ni 8.076165307097956 7.613820581858097 8.283218659254905 -0.9796640951106547 1.1118000285476723 0.8815222592308947
Ni 7.159127919316052 0.8755078874589143 0.2551621705974038 -0.20798656201874502 0.1439169852323457 -0.903388977396999
Ni 2.0967288705671288 6.556261842940596 8.924896434374471 -0.4352479131067021 0.04257155481362346 2.3496036523823793
Ni 0.45510210703835974 5.049187639667799 0.9237513676448232 -1.7791367960379618 0.1700944149586619 1.0374396113582263
Ni 6.633292000847484 1.9088120442913232 7.07960469936493 -0.47800124491382834 -0.6781425998565418 0.7566877445512968
Ni 3.52748261972665 4.082498282632662 0.3492015627579113 0.46382315364123344 1.5542370032036459 -0.7145738461003823
Ni 6.244747371376912 5.214603216179404 4.592354947225012 -1.3602945779827926 0.9024734075612652 -0.09146930895559086
Ni 5.151303097048973 2.822264518038815 9.34664519274294 0.714045484400738 -0.044735395234161666 -0.20682288072794705
P 0.2251153137044298 6.2899682413033515 12.39234084279134 -3.13961366523489 -2.0745611772554016 -2.60745701732458
P 3.8786859111332173 6.016195453533404 12.471257175011258 1.0340241579187741 -0.21390292750318002 0.5431967077745548
P 2.2628905459386854 8.657740269664988 1.1400226802288305 1.5831788830489766 0.29978008708297404 -0.5197017099764083
P 6.5275461355989775 7.99180154332372 5.987733601779502 2.06101043515416 -1.6316012402164224 -0.5012550732354464
P 4.912160214900761 0.9375187113642791 12.606997124306547 0.8816487575064299 -0.09710362442323277 0.7047301205370831
P 4.039197252455615 6.273927115814355 8.126770827089278 1.5051713560252464 -2.1989035827899293 0.6725417087299965
P 4.854410343387057 1.0380145882933582 3.893507801899851 0.7531311375482901 0.09567203418302879 -1.7167831735014045
P 0.4450616181120366 5.731622429827304 3.529661774323709 0.726362354094878 -1.7990273643143018 0.08531357376684018
Ni 0.706461903079977 0.11616941224804994 4.307678197579844 -1.2738445766186643 -0.42597317267299545 0.1454694173211301
Ni 1.9431234930825916 6.791010020828349 4.48153106034553 1.8422517222205756 0.5960279926429735 1.4260063183583056
Ni 6.144733729076827 5.860715730132399 9.307106502548708 -0.10390933449115654 -1.287832406257324 -0.4908819575312385
Ni 9.033956070413161 2.583312709988885 10.202273185090732 0.7279898623959721 0.0370303132804201 -0.7759262810659346
Ni 2.3538691130200675 5.746180456362979 6.808124800774352 0.08387864109252652 -2.2161019489460863 -1.5957592908171485
Ni 0.9797460870843203 9.01206443801014 8.784815463541575 -0.5453134970072415 -0.3261632050621931 -0.4428102988349923
Ni 1.550266048250826 0.9575814916837557 11.203069268668981 -1.1916795757831349 1.254455630569091 2.002166111322442
Ni 4.013338557821623 7.126790902873686 1.4242890755010236 0.6936553507801603 0.28956483711286907 -0.16545974440012795
Ni 5.4367314048140445 7.908447742640398 7.933795086592324 1.1142901419593778 0.809602076051825 1.0199355410361919
Ni 5.164896654326659 2.7086755159942135 5.159657584527133 0.5913426713521622 1.4201997389788574 -0.060390071052283084
Ni 0.7569454995990629 7.575924219032419 6.690376752523839 0.531910079117142 -0.3772759645776083 -0.7351668397603855
Ni 5.079259063230552 4.3736406158129855 7.0298262572561665 -1.1062199633567336 0.6828680303566691 1.0258501067484138
Ni 0.3999399247413714 7.3935849366730935 10.344511473480884 -0.03269569046080821 0.4989138266967794 0.7802336501920369
Ni 4.790136656232054 0.47168733876912705 10.370705912601855 0.3232933397135658 -0.5620344093063482 0.16195430235003075
Ni 8.272025356602288 7.252362980510465 4.7949326160989 -0.39579510642771837 0.12294475385605279 0.16107138552444517
Ni 7.096310034814616 5.863963989803172 7.037629359479287 -0.15257054714228563 0.4415347745566783 -1.4356379279107985
Ni 2.5206768008191447 5.360838592730255 2.3828041006363794 -0.40619547582543586 -0.3054606824075191 0.6603690779232047
Ni 1.969591805077765 5.944224209847663 11.437660947771477 2.217236833881478 -1.4448576467368535 -2.152671805515899
Ni 1.162731381871166 3.427232409495361 3.7043662816417315 0.8148874928204805 -0.09797779949806998 -0.3535842773876233
Ni 1.4190254390317187 1.2807969770754877 2.3399771161984 -0.8119512930102919 1.6600103874867345 -0.8004330079580473
Ni 1.1929938795322 3.4463944119229426 8.022992115176402 0.7509369581104487 0.13704416937191238 0.3960522167438469
Ni 3.5169189517217014 2.5435056061804 6.90211596947196 0.5035901491265262 -0.1835626246484258 1.4424037858797223
Ni 4.756525812467814 6.742076854135313 5.906566234706506 -0.5994321332285161 -0.24832177130268202 -0.49595345851687495
Ni 0.6500477305009207 0.22420270741597467 13.310119780049902 -0.3815555657895687 0.7090500880686756 0.15533679703351314
P 0.1800254660168114 5.817978823483609 7.866450565714952 0.2272191849961119 -0.1972131255523249 -1.4028743603265323
P 8.723842808903536 1.422856019763918 8.050917139701802 -0.23129926860275649 1.087601576924598 -0.4284923395504233
P 2.0402619251418805 3.434020089367619 10.344152072200785 -0.15418340015536025 -0.07767251228181461 -0.05876770495751169
P 4.2001362358074985 6.302151489760394 3.8276682170156033 -0.9809298491969559 -1.0765219220716684 -1.049238403765367
P 7.205558925198271 3.789099455339309 10.039419821249409 -2.0635625121520524 1.6041925091861664 1.814236210844256
P 6.581638302945593 8.101851125166835 9.949303817240265 -0.39074417426737224 0.060001577364612785 -0.09762144459991574
P 2.4367861729073197 8.84229055230442 5.306770082176759 0.99553834313875 -1.1715743203928275 1.9086491758092035
P 6.911377603978625 4.1382646230308815 1.3929147085633278 1.3479252577841625 1.0192354296453736 -0.07678136792611294
Ni 5.547809147281242 2.7603656089624433 0.47353802789247473 -0.3074787412788124 -0.16068906248436196 -0.5889065511068439
Ni 1.547481825675878 1.1863790762250528 6.961123290527683 0.5147122271816168 -0.2876899886876594 -1.3780431602154655
Ni 7.077775847281386 1.1944132871194282 9.459759239171817 -0.2890794128360183 -0.8771426421059603 -1.2212590892124644
Ni 2.7641961896946428 1.4525452951301097 9.382281421948955 1.1642698163116143 1.0554825849028662 -2.114057949798443
Ni 6.056775952501598 2.593557921163366 2.8312395413980584 1.6844212122309312 0.32298275045168245 0.3285029089389633
Ni 4.531677092624319 7.147326819055571 10.57052665520055 -1.0520180233930334 -0.8487280955190093 -0.872229263964743
Ni 8.243546217191874 7.562066797523773 0.21807286836779718 -0.7655850470409267 0.47815011178686684 0.9291303480271612
Ni 7.862953909716414 3.826240620538449 8.090255657031172 0.5113003732865904 -0.08481066598849264 -0.35411958106580305
Ni 3.4288974837803785 8.259860305678416 12.42729830401013 -0.8308653563059755 0.7780674957786535 0.25092732724632916
Ni 0.12971565593949522 5.142349910729532 9.803762676579833 -0.328362526706357 -1.5620760396320903 1.497260328708286
Ni 8.819334364210977 2.5958326128095655 6.051601483944824 0.22028440554949158 0.21336016762583254 -1.0533354566528763
Ni 3.740603029442343 2.385086981172505 11.64754947559625 -0.684633349787208 1.3912578591335265 -0.8421093046509109
Ni 1.3579636164811482 3.487721009751089 12.621219406355241 -0.46089415291989655 -0.6538253632674158 -2.3013432747140947
Ni 3.0182701478085048 7.967435046409634 7.297323625712578 0.30409594084950853 2.786564691525446 -0.7817644850142665
Ni 5.5613208156596645 7.903889260581415 3.406466294518879 0.1939074582178596 -0.5629499791420822 0.46169993665064357
Ni 3.12141376581376 9.171192766811648 3.029742782595275 1.071934302700986 -2.183823291418039 0.39670887649123937
Ni 3.7853234672066183 4.6161773378973265 9.907435842800323 -0.2743091965053792 1.2794056156462095 -0.29262496409543154
Ni 7.401382579636264 6.624939333122641 11.224057393550131 0.38476353120390505 -2.216473473352892 1.0197121121714763
Ni 8.29513622372767 0.17355442322170406 2.14403153828817 -0.560224609791119 -0.8617844144823352 0.150995746455998
Ni 5.223192451835451 0.5878667596604202 1.731804639150689 -0.006615448433988607 -0.6632073187029481 -0.5851504264985212
Ni 6.091751611253557 5.845002160240456 0.0492006704306295 0.499698527381604 0.9469313807643239 0.9838015143177958
Ni 8.099785705152087 8.973622149189374 11.292000613268783 0.24977084504438277 1.3245310472299383 0.7246116899523585
Ni 0.1551548974339282 5.051553318979846 5.644501739777875 0.20080881332338318 0.17791725343719034 0.994770868845106
Ni 7.852008093514905 6.304580860438535 2.6070359241054253 -2.8887313322938835 -0.20479710854716987 -1.8490954846152863
P 8.640270637822178 1.7560710496323417 3.5153594231290675 -0.3876153988304034 1.7248782918047132 0.6316367429855186
P 1.75278639489523 3.3668347969054806 1.361180030468874 1.7175416489339839 -0.39480214638682976 1.7507893552435203
P 4.7829577293966485 0.9357808469465828 8.191011758684574 -0.6334532273689671 1.1444340125326098 -0.5389492453521105
P 8.716145252372797 1.9193120209301786 12.24235222502426 0.40346470715783417 -0.4846945977736039 1.5219496039248497
P 6.453664150930428 7.811527680979144 1.3552540037921958 -0.567692378923074 0.010327864288569312 0.16245592457679764
P 1.919020860399465 3.545607362763566 5.832937195749015 -1.7590639365474867 -0.8304413813946794 1.6139195066659433
P 6.871379426071858 3.776388478420348 6.120490065511636 1.223987543887221 0.9497696215440674 -1.806573809202992
P 2.373931893339544 8.45921428155131 10.262558882851621 1.995385340955183 -1.9981721596717008 0.23655614612632161
