# total energy = -340891.714531078 ev
CRYSTAL
PRIMVEC
9.06287824297382 0.00000000000000 0.00000000000000
0.00000000000000 9.06287824297382 0.00000000000000
0.00000000000000 0.00000000000000 13.26443839836396
PRIMCOORD
 96 1
Ni 6.105615806897761 2.044530970752779 11.136689633718492 0.8194756264117953 -0.7078534966574132 1.287662713448679
Ni 4.427125428437924 0.3905892107866878 6.177142761428787 0.2275215467278791 -0.1170805817657919 -1.4355140007384246
Ni 2.5849866562314316 1.5194821784108217 4.765117318631596 0.4115467128350202 -0.2227511219224293 0.6750480200916181
Ni 3.4794202429648258 4.3315936281120955 5.193624706003355 -0.13260490265363611 -0.16230885747597207 -1.7330235466196668
Ni 5.1795165233292995 4.43468386895322 2.92812444873276 0.26223838138377414 0.40464998571518696 -1.3097250925653572
Ni 7.362908915635284 6.221484706164028 2.5302051819643316 -0.5400041689791861 -1.4020644628307273 -1.6914328676620738
Ni 4.888262802897541 4.69193366994446 11.224964787376937 -0.13787437858269158 -0.5727733929904072 0.9625783432729617
Ni 5.809386566270682 7.656509921550811 12.549286037849571 -0.7162314363084633 1.7240948766714694 0.002399353470111997
Ni 1.9267226155269512 6.713852759299559 0.349609593906572 0.5920643800095352 -0.9437488692712843 0.76404007115131
Ni 2.8952361696129043 1.6918943754887619 0.4141989150869266 -0.5077016001917385 -0.9705209951588059 0.6668690838252516
Ni 0.42306331636751593 -0.08050917322971904 4.705267882810355 0.8819143524629908 -0.41913378115365885 0.8494305209026726
Ni 8.510758705832375 2.405759174660083 1.2506509252199454 0.9028194780467742 0.60065186456823 0.5656300970774065
Ni 7.078642674384933 0.6184625980054063 4.687745713874773 -2.8599835707372296 -0.9996279398270912 0.7513976997969511
Ni 0.8999755368234466 7.5890549182470295 2.8241714218759797 0.29854338646239553 -1.0533056318562053 -1.0087077906411723
Ni 7.718554386500115 4.023029810097343 3.6702572716585906 0.4354852259284887 -0.30845807447294615 0.1466770644759861
Ni 7.590097149253337 3.759644440486373 12.365374860764666 0.4104218552019577 -0.0982307960491405 1.194791124828923
Ni 8.060288339150341 8.64513400261931 6.973513285922775 -0.9118281093032876 1.75388419211876 -0.2520480711143337
Ni 6.959212063940596 0.7636426583203212 0.5277114659911109 -1.0614033212626752 -0.15593869228357013 -1.7617453400343916
Ni 1.875472038651649 6.594630595056481 9.190106626650508 -0.2143958079791985 -0.34383362575876264 -0.21742816704761908
Ni 0.039494211124172014 4.931701178664707 1.212399234712856 0.180603799130418 -0.20382394600062317 0.4145075952355571
Ni 6.437036204024716 1.797105329855762 6.999405022982908 0.7778957460874796 0.5323906182979863 -0.4190918721721299
Ni 3.412545263873251 4.299619793414293 13.731744241470839 -1.0703980685621177 1.4958061127602627 -0.218989597997468
Ni 5.920162127923524 5.445512001895192 4.82520510815254 0.5619469917988644 1.580674371459568 0.18344769633711633
Ni 5.2030800069501275 2.9377682575485 9.133494450963635 0.7381413490076771 0.7724892303599277 -0.21364247475294174
P 0.33118023085158926 5.883457470744925 12.454074157128286 -1.83426201914688 -2.0905773501779996 -0.16585389451475308
P 4.007967306336645 6.201936077637056 12.59622902866142 -0.33848521696265577 -0.17775887348245514 0.3993468283347187
P 2.6656462732411916 8.453408811850604 1.4999426127621656 -1.1461132000072456 1.1906321083552267 -0.2511708107157029
P 6.2084704129026775 7.957488110415318 5.882950855847077 1.422000539633022 -0.06834043624761134 0.4510658539755651
P 4.929961106028093 0.981219709484569 12.653478324693886 -0.5058604332179416 0.2198717434921052 -0.7381842864304706
P 3.919830814716429 6.146534702493161 8.170695041655733 -0.9303891601349267 0.45573240621329897 -0.7897130504373818
P 4.810485181192175 1.0632115696067372 3.7619808505161614 -0.7416246795705872 -0.4908616458162644 0.3186900366135995
P 0.34949177648846785 5.638814133490828 3.6946500086453065 -0.21577854725933804 -0.3741867841293233 -0.4342305275857812
Ni 1.2720656003921207 1.0209604308989282 2.4510164701052104 0.6989567083884156 0.6659046630294532 0.08686497741436007
Ni 2.050023075012095 6.472073291593226 4.8846557773278905 -0.6159751251888618 0.1425033927142707 -0.1592685279877515
Ni 5.630992869504377 5.636367156345589 9.198105523051948 2.532614004071761 -1.5154642533108222 -0.31606596872719117
Ni 8.539968362643886 2.662030184793226 10.351607830454544 0.39972683738195675 -2.01502702644551 -0.171238298755118
Ni 2.3178311292411284 5.272184454107366 6.949743168676348 -0.9279530398896083 -0.41062574368264765 1.204746693379738
Ni 0.569365361017915 -0.11247575762486786 9.256283764111773 -0.431010992207219 0.5887165465832248 -0.6647916324709324
Ni 1.504628120851384 1.0355607278655263 11.26112385928093 -0.6167806518092925 1.3866275594503668 0.8519162634390037
Ni 4.015036351422894 6.635993571689352 1.7014829007467762 1.9945836709894937 1.2907048427091126 -0.4462311515910831
Ni 5.642412096182164 7.805476452426026 8.320702897249424 -0.6112304114150247 0.5651680698393234 -1.9853300136017098
Ni 5.223634614970144 2.7247996800077874 5.034517720580699 -0.41405456685853853 -0.2796830592227828 -0.2971781306837527
Ni 0.8193784536740651 7.309501373720845 7.0101898481785945 0.734334059446445 0.12101102716844965 -0.5169858537071419
Ni 5.051013971690941 4.58427573843222 6.936558493302663 0.5890975840717273 0.18385367352628337 0.9200304426084219
Ni 8.007279563881792 7.231370299761167 9.124315567805493 0.3714680996465796 -0.36516349758479044 0.03781732795808971
Ni 4.665125675886609 0.14286449490525271 10.212450052780412 0.3036058885869674 0.27455705085012716 0.910785012750754
Ni 7.871291074754663 7.133953420745672 4.4525803347632396 1.1654098434533284 0.6194592270827203 2.0893738167882017
Ni 7.4873694235448385 6.285450501316262 6.775289105113881 -1.0986575776284435 -0.5520788407555332 0.3197184778781139
Ni 2.490270514954016 5.248439712920224 2.6156146534993514 -1.9447173822866701 -0.8734351113473862 0.8681607503223241
Ni 2.1760786495052127 5.294297877197682 11.344516840390705 1.2874115166698215 -0.3221700247424 0.9257143803670767
Ni 1.0917143219096241 3.243939475687906 4.001084956543699 -0.0731100897221128 0.6291224612040972 -0.9972342427839341
Ni 3.5635056279779214 2.8476379326988304 2.877600714698377 -0.7206120818746622 -0.8082388771557114 -0.36420601876752756
Ni 0.9939530535181323 3.375088387794449 8.451118622500227 0.07160625148307667 -0.32939945261130366 -0.8461094269492395
Ni 3.6827368550993143 2.684614877555959 7.283808113695826 -0.8406761717488103 0.45338113237230304 -1.338002856464128
Ni 4.31059493905461 6.962474700134248 5.946156275508624 -0.6057773587202534 0.12604987514393776 1.1894020926028677
Ni 0.8903217588415593 7.499513680487881 11.30006795369134 -0.2704152607676117 0.7005497639071483 -0.5420474246614599
P 0.048018754467922566 5.628745275682082 8.123181995797827 0.9857619804782763 -1.109658042504005 -0.4077808180346848
P 8.525078053571187 1.5926286692968634 7.978772280139747 0.27597424291262795 0.3152144193601733 0.5421047602619566
P 1.8581256895553928 3.1990510393902274 10.627799953413435 -0.37299790602754473 0.2403888896088505 -1.0494302080611992
P 4.018933389098645 6.215167879977983 3.950627381521021 -0.443969609250416 -1.0968485494441627 -1.1481060620675583
P 6.77906923165936 3.948650767760366 10.282645670486863 0.535807100178703 1.0642626450883412 -0.22705077773904767
P 6.363780958598887 7.8334898092998655 10.336432947002729 -0.09349816646016156 -0.46320583177220875 0.906298180623994
P 2.324727979639379 8.562453363745147 5.840663465626005 -0.14119033032980202 -0.25792124206565903 0.32554485475190387
P 6.971274754978796 4.029473516579809 1.5385423177965774 -0.03317802941386544 0.2947150138552408 -0.2618478308135749
Ni 5.1874465418555396 3.056908855886736 0.717536171177012 1.215727617871274 -1.215815292489074 -0.5591984825194498
Ni 1.5575825188500385 1.0796153793581602 7.287150503218658 -0.2567151375726998 0.36918136049493194 -0.6439713532914715
Ni 6.96424196140581 0.6534534648945053 9.128295077673917 -0.18596789165580876 0.22014376620656925 0.653227838892733
Ni 3.0833362090553273 1.6966161350912436 9.450660753075654 -1.6134047718130535 0.13655797376411322 -0.2068521913039857
Ni 6.457101416615683 2.0531588309093287 2.687919202989864 0.5229608403436542 0.08510505730045989 -0.028441800280460696
Ni 4.104912915679723 6.833926834104312 10.445492905790408 -0.6731960544845438 1.014851184534749 0.35034854405914506
Ni 8.387476372103862 7.284768778797291 0.54717762232541 -0.7924816143214546 -0.181939487222706 -0.7420234576709027
Ni 7.595824888348861 3.9547953992584133 8.022359287111291 -0.12520038265944888 -0.2754638789351127 -0.07151549154148329
Ni 3.0486344479844987 8.348759755939179 12.294569311347571 1.553327346905183 0.45883392795675815 0.10827969564471028
Ni 9.179608188409597 4.9113278282110056 10.2155414005739 -0.5329752871568627 0.8521864863812549 0.23812091951028022
Ni 8.605619853162843 2.112248797527714 5.661607272454823 0.7231045092792128 1.5314264330670333 1.4998815683812168
Ni 3.7467660903997584 2.7334094144077055 11.718043370172419 -0.23537035334833656 -0.44656153834730833 -0.3460725423916104
Ni 1.344088294367015 3.236571355617239 12.833569498568721 -1.2901402284548944 0.2904932624644094 -1.021115677387222
Ni 3.1965224963401457 8.302457510624249 7.978784968169389 -0.01433981366143982 0.16046589072996237 0.1844799942563726
Ni 5.689285302830981 7.661612322042552 3.641990154191912 -1.4327891456080937 0.722009219332505 0.3557236923281293
Ni 3.048543819201342 8.478739556742996 3.7217625154145644 1.4693026671530955 -0.1739364144125714 -0.614703971785922
Ni 3.2093102176436035 4.2928135717992 9.113849755926516 0.019690793560708023 0.20308475384175348 0.7824118887902783
Ni 7.101327058809139 5.968947601896954 11.309777921518783 0.9210588838729363 0.17660881903841197 -0.04586153841880489
Ni 0.8920582063268481 -0.051297703842544035 0.12657850257193382 -0.34131188777817345 0.8096709816165476 0.43116397284531555
Ni 4.659570131479083 0.7212220437880086 1.5307953694123144 -0.038863252724100815 -1.601554557342687 1.292888737734309
Ni 6.0362575991476835 5.56357411771386 0.23590762884558947 -0.23418764589414506 -0.6944531640911072 1.0107798426788528
Ni 7.966115970571868 8.899365865131418 11.429369851197142 0.024728355984615476 -0.03981636066598949 -0.04025987596131131
Ni 0.041358445193712186 4.781837422836237 5.721085130265121 0.1345892800735166 -0.36119397141408116 0.6539986556204866
Ni 7.911765889312595 -0.3125723290937872 2.38365934588724 1.5075930780928617 0.9140271738371355 1.483929930147967
P 8.549892214399582 1.543516931704067 3.563902582048149 0.45729306583219953 1.322123209119394 -1.3751722664255737
P 1.6648235579597561 3.3070533602784637 1.734352147822169 0.7548751168225902 -0.5625751123011666 -0.045158341704193194
P 4.741063533293888 1.0740779607072655 8.16005703508876 1.1283602468991987 -1.2792333517344034 0.9948433739542544
P 8.615906220051166 1.6174972073951532 12.41514275074752 -0.00847589868149508 0.555479896017282 0.24577895027617028
P 6.2126846513194804 7.935247807028582 1.5802850290308754 -0.5026527249139214 -0.9852801557458516 -2.121509778090798
P 1.8478665113020165 3.0510451736164756 6.173880125235133 -0.8660239064849794 0.98104246351542 -0.17792856629110002
P 6.845962336507566 3.8907842897146003 5.825807595490905 1.7992595349297658 -0.739720777679655 1.305897748399467
P 2.5217821428577167 8.590448594862355 10.119347103843193 0.1639906160537692 -0.35671845214123077 0.01537699667670255
