# total energy = -340880.8994396232 ev
CRYSTAL
PRIMVEC
9.09208736404723 0.00000000000000 0.00000000000000

0.00000000000000 9.09208736404723 0.00000000000000

0.00000000000000 0.00000000000000 13.30718889955908

PRIMCOORD
 96 1
Ni 6.362724528374756 2.958501566086528 9.664013242599456 0.9806030619851563 -1.9284127315893755 -0.29950009394871
Ni 4.583775817373216 0.8550926273377295 6.344029378447784 -1.1214516927048235 -2.6686726696019525 -1.013437077796042
Ni 2.932689130213231 1.6593695786994618 4.882673641648206 -0.24740003081936104 1.2922919846905745 1.2889924880036963
Ni 3.3625539261461648 2.989687425560078 3.0139714815565513 1.3424572926910556 0.6049278662357646 -1.0270770371769795
Ni 5.47675517253202 3.3278767051455467 0.7288371753238652 0.5067040121651596 -0.6764459288804091 0.564607312239847
Ni 4.91630981865182 4.809786923727008 2.7328577800600646 1.143394772634818 -0.5375127700159 -0.16670698654366775
Ni 5.3160434372391725 4.833580916217468 12.128558070886886 0.03355829557141962 -0.693894977594792 -1.1421115350470201
Ni 5.602744226387699 7.776262250384469 12.619872648113677 0.355983116637103 2.5629041704148703 -2.3235894877068044
Ni 2.615638953623682 5.342210464517562 11.38966322858062 -0.4965337565003772 1.5373255721602879 0.3734725316711181
Ni 7.838233917489926 7.088600410861731 9.046759617997191 -0.08371486182115259 0.5156730484329893 0.3167223713642674
Ni 7.920517307646085 9.112362664774292 6.910197292080944 1.1288202172547526 -0.796515418071196 0.30005005291490905
Ni 8.774273398149234 2.8972118055293272 1.8576307253741788 0.39371328419802515 -0.7147800485739173 0.04241883128584307
Ni 1.523570162636214 1.5813049170551765 3.118525939578734 -0.006616991095885379 -0.3139946880204592 -1.6219580606997035
Ni 1.8019971523325744 7.463276236822522 -0.18239454510990902 1.4254882410713063 0.6227163005674372 0.6857276112926513
Ni 7.7468857162856235 3.9260996817990987 4.125441877654984 0.7639973908388327 1.260351684338552 1.2024378427409033
Ni 7.637580642643928 4.52298612161807 13.251418124758645 1.085878423585904 0.20581783650220037 -0.2389608989130723
Ni 5.193082048457748 0.6187629110957373 10.946733103183112 -0.2804423059863106 1.523943494426427 -1.881100062546341
Ni 0.6726298915729948 0.5411783116614239 1.049173232267275 -1.5146265879008753 -0.9110902026959986 -0.38796635441191896
Ni 2.05366612907539 6.574633807310624 9.315817211720523 -0.5543655799071807 1.244546084764863 -0.6252814901914521
Ni 0.13390098823290456 5.362840410624117 1.7472473301775087 0.7684932218266571 -0.7546799700926486 -0.7845633879156423
Ni 6.254474136861029 1.7738753262825189 7.217339821128707 3.3451396815282837 2.1696374868359602 0.21629173945033073
Ni 3.7677700733814907 4.8151057948034 0.6642606252040729 -2.4510318723228948 -1.5064430236488184 0.3016567352803966
Ni 5.89742786819447 5.523133909900701 4.794087616568704 0.14913555331880768 -0.1873866263802063 -0.14256587052108996
Ni 7.082954224642176 1.1489761654612136 1.0932934951481343 0.7484445307058981 0.39811012771414017 -0.8398547042887794
P 0.31561817283821314 6.048456530502088 12.702363337860506 0.04176628530350871 -1.4893721842094607 0.3542784752411705
P 4.046360720649432 6.507052322334852 12.891911537265981 -2.4418895437019947 0.13521225836949619 -1.0657991363375259
P 2.7139607857948094 9.126910004470409 1.6657540424085948 -1.567395652072791 0.0052944156297199145 -0.8012220795182459
P 5.967155085775418 8.250969220930681 6.369379027076999 0.39015487742280547 -0.41322667164060445 -0.020716663722061098
P 4.723803054035648 1.9009190622661667 12.606405448389998 0.35978192155790295 0.08742316391067524 0.4124098321662639
P 3.9182077500139556 5.779821718838677 8.614568156921612 0.2464386953473562 0.0458319707324501 -0.6292325044194002
P 4.879041352767832 1.3871343004612613 3.7570450471905286 -2.886532781980667 -3.1587740402134243 -0.8283585307237217
P 0.45928769967705996 6.140832137572429 3.907189958611609 -0.7345394905890318 0.7030049103158602 -0.6842898504048602
Ni 0.7921817476131425 8.895652763738706 4.791931882667486 -0.3950623420267519 -0.5836301331992529 -0.13889742053056725
Ni 2.244199910745276 6.7363638563822 5.114644611233749 0.20659790920133453 -0.3630737049352973 -1.4228788284729172
Ni 6.907676965478592 0.3191813618550307 9.254723840249218 0.3817149741855684 1.615775071817443 -1.1753397009725306
Ni 8.803049854485614 2.351395620131035 10.371170335732455 0.09327910847082 0.4402091137667193 0.07257632870582985
Ni 3.4882247569459914 4.454640901308252 5.0281215807649025 0.0073451275111615436 0.29359864086261045 -0.5042465517636024
Ni 1.3929986967762582 1.1775525958767723 6.919791262610533 -0.7194016065063288 0.6495215936857395 0.03710821770620706
Ni 1.626456222636998 1.2457614348769388 11.443237443846492 -1.1596004358604028 0.6920741223359694 0.5615204457844071
Ni 3.4490560448141974 7.096365053424534 1.6437975607635 1.025946266006646 0.7566257809651098 0.3954670336643382
Ni 5.375296570238917 7.5432502368019225 8.361292608351105 -0.5126540591010075 -0.06501008632279771 0.4476956519517515
Ni 6.560704729551592 0.5698192958968844 4.8253198456875355 0.947253282880117 0.36503648508862296 0.15006063623623836
Ni 1.1551860610939932 7.727010413425805 7.022149981547333 -1.334525953659121 -0.8045930528730079 0.5309178904072018
Ni 5.2027014768318045 4.153001812709276 7.387525511398651 -0.6287370528402204 1.0040417526240708 1.191470545096122
Ni 0.3848153217289844 8.938185548175227 9.192033898246267 -0.24017780203930894 0.8386899945567168 -0.563995389687461
Ni 6.896530066436442 2.547711969330128 12.1558106933901 0.09983516442178289 -1.356957800300076 -0.54373098301147
Ni 7.861718779011844 7.271424102492675 4.980893642441461 0.4194173738323486 1.2079981104375004 -0.8505587209698449
Ni 6.829375909564244 6.302716752128275 6.719145261434383 0.10454002609661997 -0.9130367848994081 2.3550027119107635
Ni 2.4892953083629097 5.273374271493 2.786592016062595 -0.37155397449216654 1.8428171078057425 1.3569958526268628
Ni 4.162693977781814 3.6459361034265143 9.803139453409461 -1.5202986985849882 0.33600950172865357 -0.9905318910630941
Ni 0.9828728223934929 3.967914191338124 4.176114807860212 0.6349516662913645 -0.7354167509876625 -0.6863788717234051
Ni 0.27827333342082 7.799683467295217 11.369835204574812 1.229737558997121 0.5725584487661236 -1.844040438689882
Ni 2.4551272442516563 5.193691218307522 7.051825645318679 -0.4975033195024981 1.1350237749623033 1.4446923248035828
Ni 5.2737561391600245 2.932234525847728 5.022639052116929 -0.682967532049011 1.4807803287753918 2.5407510313565984
Ni 4.318832393157694 6.59662756651369 6.333503468968914 0.20632460093528984 0.4371322746136085 0.4472264256248169
Ni 0.9919558176162557 7.547332584004145 2.2113483808765215 0.25160121338490216 0.11374046164896541 1.0115126070798193
P 0.18478030882007213 5.883717000530879 7.996861746371304 1.7099026443314873 0.5744741777315977 0.6590662999513811
P 8.19851696923887 1.8602046952916604 8.281210412532715 1.4668351794492092 -0.02389094768498466 -0.6608830414451456
P 1.8966185049685023 3.596920660737912 10.262916307383803 -1.3089432200940103 -0.18578225800756393 -0.591606209426194
P 4.197843987322555 6.501269754805646 3.819403128006663 -2.01694172696972 -0.7958975819815389 1.1337382233816604
P 7.359108192511018 4.3027484907061755 10.92742423736271 -0.03614585379293775 0.6405723549122516 0.429225361061706
P 6.186774454750227 7.839497717626026 10.384903933614318 -0.4453482347654975 -2.4175100864163652 0.4697590595096942
P 2.750210937900069 8.809096092546813 5.8487088275521755 -0.9079033203275848 -0.8921563419059731 1.1926241990845912
P 7.038121142116207 4.229857226741322 1.9779135852340564 -0.025670408182910633 1.0021496778076804 -0.022569143549767582
Ni 2.4330152879135585 1.9920672375496467 0.6308753898102164 1.0742087005574599 0.19465950589253572 -0.9370979396136699
Ni 0.8974972133431781 3.649782056358675 8.188672057099526 -0.7582329775512296 -0.42929092419231873 -0.04342593239411876
Ni 7.322967145453478 0.030630332938904357 11.642286874490992 2.010929716447685 1.531449315885169 0.6073459887589541
Ni 2.3032530178241997 1.7881499033593335 9.09439942787578 0.33045489045901155 0.7119310091608965 1.1246771416206565
Ni 6.410157947871407 2.5281457974388504 3.134268888756125 1.184678204764637 -1.196814583016855 -3.2362575764128847
Ni 4.001418533075742 7.275351884210627 10.8133949151547 -0.0003237018880058941 0.4979697176159553 -1.2789631287921521
Ni 7.477696287296297 6.3667523230531184 11.674476500403573 -1.5939096392029195 -0.6593059267660129 -1.4180621238105644
Ni 7.667957306346881 4.647793204123439 8.700240168018235 -0.11272050502488329 -0.5102521345277341 -1.4484690182371958
Ni 3.4751957958306567 0.14171745569337418 12.286833126780634 -0.9101921163617616 -0.9423458182761706 1.6410940101982057
Ni 0.19310593316990582 5.32328073873799 10.333817313436482 0.822534467842777 -0.8044914942981372 0.6408024686451868
Ni 8.69260826993016 2.0468288794182152 5.674650817296873 -0.5321535625865158 1.4462118467719027 0.6493701557095397
Ni 3.214943888667132 3.2031423593386577 11.833204342245363 1.1482927241570675 -1.4695723758747143 2.0508836311328036
Ni 1.179980183188562 3.8474804028288987 12.822873499903137 -1.6283508515999248 0.2871906804537377 0.17436270331671264
Ni 2.916123347134279 8.900980726902407 8.089440106988658 2.2329293049160706 -0.860842105173724 -0.6331184697373677
Ni 5.5138781650190465 7.977842918136094 3.303403533733024 0.838636258500646 0.8157218157963179 -0.7150759825477815
Ni 3.239892576245972 8.718811665557789 3.7596799340929876 0.299268180443562 -0.7481691655573244 -1.3291898861581881
Ni 3.4710679881918836 2.6263221562130172 7.101168403150444 -0.5933417040600619 0.8896577438538357 0.7774702285142868
Ni 5.683672895534657 5.414983531347384 9.759824749464274 0.632249436868853 1.426503826820014 0.32915416936971703
Ni 7.7407121890020845 8.568373988925323 2.931280765888901 1.401311900935419 0.46426564049529073 -0.7439039625230671
Ni 4.573401745752424 1.140193209119683 1.4306026606819884 0.6879963527221699 -0.7565108526538004 0.5714382191187514
Ni 5.903528658779528 6.155534042752817 0.7431599404634228 0.8679892577414664 -1.379189872225399 2.257386152406854
Ni 8.150074328050803 7.790836866342516 0.04213909705599454 0.7177116203984156 0.4731344037398304 2.641461399294483
Ni 9.00096641105128 5.406327864228196 5.964853878477239 0.23002374432444256 -1.1333008787339256 -0.1644269322602394
Ni 7.328977015165436 6.165053458166463 2.8931294583271043 -0.5315928049870393 0.26857640778666003 0.37342985135864076
P 8.676660748788292 1.2562627957200727 3.7491276575609174 -1.8199042077633105 0.5233094819323245 -1.2248216097527422
P 1.8151352184956295 3.7587598148572083 1.629931218406908 -0.9554543306336707 -0.8584936595462053 -0.3357055973349896
P 4.846164365054608 1.8229998740188424 8.716262244276045 -2.4985139770642584 -0.8272231315676979 0.5658746089880449
P 8.912718611619713 1.7120491325740237 12.782725569968047 -0.4301427306696528 0.34985437803154584 -0.26743355243146844
P 6.375480726870788 8.250978313017992 1.2038823715180123 -0.0751975683787608 0.3025676771304402 1.9615246836519964
P 1.775002745108968 3.4678493892841176 6.055449254852267 -0.8891766904523589 -1.5349588717003242 0.04946905326440513
P 6.846532678318352 3.9692870965219442 6.189506626986904 2.239159087875866 0.19617619964737829 -0.6582579451174727
P 2.369861649457793 8.844782535238847 10.077094954566727 -0.19442476417391033 -1.2941020413161195 2.05193649787735
