# total energy = -381169.55339175457 ev
CRYSTAL
PRIMVEC
9.19205535525200 0.00000000000000 0.00000000000000

0.00000000000000 9.19205535525200 0.00000000000000

0.00000000000000 0.00000000000000 13.45350215960401

PRIMCOORD
 96 1
Ni -0.04894677492009171 7.67452045202425 0.22179326235082514 -1.6302300709005084 0.18212306398842182 0.34524233318083125
Ni 3.7459555413642875 5.031547194456197 0.6147674117238277 -0.771508354503897 1.0539185828498558 -0.07198883163347602
Ni 0.9606800767054076 1.2949215891552892 1.6909576121270227 -1.9007468902429911 -0.9719605558188098 0.6998506809575946
Ni 1.2606352231292715 1.6859975791222936 4.2108657957997595 3.170653051039198 2.1592558864913203 -2.29804686335101
Ni 1.406448795319813 5.813046538468531 0.603693742782395 0.4192271121984135 -0.996558042652516 -0.6473929773785109
Ni 7.072808516350491 0.810328386845417 9.017169030369965 -2.2480473915044317 1.2068843085480312 1.139881617275237
Ni 2.542926928391867 8.440917249285713 6.3929558383307326 0.19745866590422767 0.02781753643290048 -0.3281678941970477
Ni 1.3452113233451937 8.647398386026314 3.659796569236923 0.45051203835462417 0.3301368449979605 0.8180594627905587
Ni 8.00894580557883 6.128830404006819 2.160767232002674 -0.36029202842510205 -0.5335902950330422 -1.288365910163291
Ni 3.9320486995939734 9.301532612704465 4.553216539377833 -0.5968741426933527 -0.774325255127402 -0.3521951103495805
Ni 1.7695165929862073 0.4165536094614585 8.321354348434877 -1.771792182747432 -1.3311814626669205 0.7573253781352957
Ni 7.85592566208416 4.205025163903532 6.37850684670706 -0.7516283277505185 0.06441898970601809 2.206413003793097
Ni 2.400404111975404 1.2873565276970018 13.403064426718737 1.1328727900575715 -1.1227850668042665 -1.5307476618324538
Ni 5.634086415101093 0.2270033192579423 1.8988671942511195 -0.5504361629457875 2.3771666496023127 -1.3706396686625426
Ni 7.256870230373273 6.4952900700548755 10.85273789386281 1.4260983638514795 -1.2033526412456887 0.8762142167544201
Ni 7.090585951174704 5.142761870742735 8.611384832821665 -0.5845364470636062 -0.6435206389072983 -1.5760049910083567
Ni 1.5439711336885134 2.6136597934240937 9.292158554775957 -0.020743917415570728 2.0440038732938346 -1.5577499014529108
Ni 0.5309101302272713 6.01761572772028 11.779926717320016 1.4518315069515253 2.5257090494218115 1.875745483102647
Ni 4.672294099712268 4.993547238115297 6.866707930696614 0.8790504006516344 0.674406015632245 0.4278336229205019
Ni 8.45822588929295 8.832701027505802 11.884945029172737 -0.008418305970682277 0.14454844816875753 -1.447183723766869
Ni 6.428546556994576 2.4114529623677026 0.5173932130044135 -0.7593791753405309 1.1424984860727936 0.6094298678711761
Ni 8.942840233329862 4.625708763782011 10.514113609476947 -1.1213452490339464 -0.9827800150318171 -1.0895934105436462
Ni 6.104664490794379 7.345840132991457 2.345134122259254 -0.27147429815974533 -1.2644410239165773 1.4308628751196584
Ni 2.5160953191613182 6.214344093856696 7.566491742082113 1.0506018597717972 1.9542497472571374 1.3682367156480049
P 4.928449102942037 8.878762416287673 9.186427858642535 0.6160872252866938 0.7820123393590145 -0.13745580298803425
Ni 0.5077268477194377 2.670944681647725 6.775721291159902 1.8767821518972774 0.9231232226011329 1.899153577613942
P 0.13365248311482536 4.290419357035356 8.373392411530451 0.7679363208819225 -0.17495739947791805 -0.9651371051390732
Ni 5.11383447291864 7.165170287350336 5.021829353661905 -0.5701570384134825 0.13542360304935386 -2.4674432238013826
P 6.063088824967119 4.573626578821309 10.250290593770261 -1.7507453893794624 -0.8898114958228804 1.2357955922657426
P 6.930699342419596 8.006482334775887 6.566775764410837 0.6310410183830487 3.403002358173023 0.5945156697635051
P 2.606738175832246 1.580638242020359 6.236451905902052 -0.2966130022089021 -0.32395102790222274 -0.2076237793626876
Ni 4.278340996456754 4.614595569003069 4.711981717394289 0.11305192022237304 -0.051048481936383054 -0.16083921490898104
Ni 7.4592241343134225 0.4111119127624229 0.31753495206052845 0.8098172773864246 -0.4287229675039907 0.45381873413035395
Ni 7.650005240712886 7.286137734241059 4.451818058876598 -0.15674087646989135 0.9678267361560945 -0.3402819038517623
Ni 8.095875071934874 2.317500965812226 2.4951806358854474 -0.7623277164458935 -1.212588043801028 1.1006576387776077
Ni 0.9255572336530178 6.767264600343833 2.633953093766088 -0.5647600357676273 -1.0366500255773952 1.543538385839219
Ni 6.968892331920428 5.048230774707463 4.045763614904393 0.4443465329738605 -0.6285578469498788 0.2509214137090582
Ni 0.5465871804303205 0.5897760519512976 5.9284739336692045 0.022209703327819814 -2.734732023124871 2.7409877742265953
Ni 7.446925164409183 2.0029672197858783 11.74810933733008 -0.38436141066948 0.0218111823378205 -0.022366026400025996
Ni 3.1246093757088724 0.7909781913705187 2.441703096940094 0.32092458237107313 -0.9283831854484914 -0.9109073972612312
Ni 1.3622717778610887 3.2841926466412303 11.58131306065493 -0.7556312782623245 -1.2579885834230142 0.7690645209490948
Ni 2.888061026295054 3.7833947823358614 7.5409433437623505 -1.4061679434761396 0.22359572931091168 0.28239531594762335
Ni 4.495144811226098 2.69671001247103 6.160169797124541 -1.7822473166424853 0.025421782507214285 -0.7065561180022283
Ni 1.8084909071820023 8.183089292003201 1.2252504065026883 1.950659715913034 1.5764814164241432 -0.4724085813173993
Ni 6.454615225640632 0.45254050570592486 3.9782544036430307 -0.2323397940521289 0.007301932978051941 1.391306710093591
Ni 1.547096432468365 3.29518634470212 0.6917674200151803 1.0231514768703283 1.978710451402663 -0.8652335493732001
Ni 8.23601714604551 8.564991610845818 2.48291108055796 0.3679839977527211 1.216939378791188 -0.2530842256883319
Ni 2.676395570401995 1.2971736426878293 10.80904162089287 -0.8314037453079487 0.2412972603557328 -0.455422588282364
Ni 3.2736861275077884 7.649655942613961 10.008867697465398 2.0239636668135077 -0.031842341321577414 0.139452778813405
Ni 2.9854508515083675 4.777745357366552 11.834103771668742 -0.48229730118602104 -0.49331473534244724 -0.12088761421670793
Ni 7.59237105439033 1.642041170989206 6.424922129615472 -0.8356491508478642 -0.836260559179618 0.4850434964725905
Ni 2.6069128248817086 6.270994730269122 5.165525995531859 0.16980799406649466 1.0842948811488682 -0.8482452423453197
Ni 1.6203479206349427 8.363897018472844 11.648189858516135 -0.9472630530721298 -0.16362114852949242 0.4290081028445773
Ni 8.53490601406213 8.890610975485403 7.982837611095264 1.5100345976548188 -0.5162219789579239 -0.7066576765770991
Ni 5.011471745823268 5.077296053360081 2.6415144784022817 -0.4884401808589653 0.8244687087510124 -0.20050259493687406
Ni 4.766144983660162 7.522750428041522 7.185583084410385 -0.6722300910268487 -0.20438393226915122 2.0077412914173745
P 9.309989303520533 5.851653170454932 4.554965787489026 0.08212000653020697 -0.3858482796276516 -0.22949666817637895
Ni 5.144692202342055 5.979036671899584 11.85600660088236 -1.3433008716382737 0.19940010590131466 -0.7706694035423696
P 6.164293353102898 3.3027973664365815 2.5911852183748674 -0.4707311936149764 -0.37711501351971183 0.4159420136892385
Ni 4.725038112649879 3.488035663529426 12.38043725137458 0.9519913117857346 -1.0987375389367593 -0.2212143735629287
P 4.764683446877819 1.1839091380839175 13.256555935152441 -0.06620744906500856 -0.4810045505165264 -0.6738522000113041
P 9.414778733197906 1.7369399492338728 12.857606030671258 -0.3639486513410829 -0.18238685917276978 -0.1008674623410392
P 8.187620975233985 5.82498701821861 13.395558194413953 0.14887484345825328 -0.5665873187843532 -0.12050940494168277
Ni 3.874488049713297 3.422588230257242 9.852954814188319 0.2839374636237626 1.4497185743735805 0.22068138387759412
Ni 8.496823329224116 3.571389220399112 0.6423022131798427 -0.13283270239372608 1.074561455911188 -1.3106411766217234
Ni 6.060128983181494 5.285284687159198 0.6334272838505879 0.08940599866865892 -0.3368656790813618 1.508429200840912
Ni 2.0466846344828595 5.119340514004318 9.784112754917903 -0.7634718573526658 0.5719601530604923 -1.2842205205363497
Ni 4.088681320795942 2.749895244059914 1.1213856975819414 0.14721365370574646 0.24148649354840349 0.9223650042788696
Ni 0.33538592332662137 4.367007561252187 2.821118964841683 -0.3414378718330765 -0.45548866563360907 0.025823645931323268
Ni 5.7257587819583255 2.862948331393424 7.950965997979443 1.4587842841202747 0.5008588662382923 1.3740443234687174
Ni 0.959108235260247 5.200965964489852 6.511131658046628 -2.2750198063282174 -0.9903948512645977 0.3159443555476623
Ni 0.06414859586749874 7.407454479230705 6.305777467277823 0.47622075597463787 -0.24715191936429692 -0.5937543661174484
Ni 1.8404332991231316 3.9388783966334726 4.890792010261397 1.2106538028927925 -1.0671499939384652 -0.7010701551869927
Ni 8.95523112378645 6.4351096844322635 8.627287088377969 1.4184760714195315 0.9242442235794534 0.24175131717401593
Ni 6.37093075478249 7.365685780243514 13.22016458847764 1.3921438612829056 1.752797901033117 0.04152640137856074
Ni 6.7520977092063195 7.435968234569233 8.87425279398945 -1.0606697855307603 1.1319963009898892 -1.4914979723032118
Ni 4.27051855745189 2.350812973983349 3.8107310353988035 0.02022018370161679 0.5552531247184567 -0.8644061683758985
Ni 0.07846062586817158 1.3863273864107104 10.410171687292229 0.288267201347368 -1.8012783651320072 0.7394940063808296
Ni 6.949708512645281 4.423097482295286 12.29078345984692 1.2712516190805074 -1.4663875503888293 -2.066196864451106
Ni 4.950813373328445 1.6510310010088964 10.730297879723464 1.587406805087395 -1.5421427910432732 0.11302132409475373
Ni 2.50279441523648 5.117474526791643 2.916396455762025 2.0371449413904723 0.30490480990404906 -0.6029308904103938
Ni 5.193529591804852 0.5332375586127371 6.45914782807694 1.3302946891865928 -0.24966105893939586 0.600595814519314
Ni 3.575645141972851 1.6764102655123376 8.24466962763808 1.790540666999529 -1.0345772022087667 0.540561841254869
Ni 7.9786028312485655 3.030197776391653 9.397943484035265 -2.0856703997946857 -2.1772911467264757 -0.9484357332239924
Ni 3.8632369741058317 8.87075613617811 11.960338266209037 1.871326528099345 -0.634484753957275 1.4453525840954011
Ni 6.658890269124866 6.079487451506105 6.28881261013637 -0.08497161704638914 -2.1929159977479262 0.5319476172232969
Ni 6.296925518086654 8.527010038615387 10.96764501873719 -1.221016377074039 1.2935723940648949 0.43210911036740424
Ni 4.236471184861978 7.7644830966077985 1.0677399440257906 -1.429871971961299 -0.6576015424803965 -0.7256247045979052
P 2.433320861771428 2.9382404558221404 2.5435188967489917 -0.4087825198263218 -0.2822359075516236 1.8909167915264466
Ni 4.32653494205311 5.824600951898746 9.038573650189855 1.468875864028322 -1.0439025933747506 0.8171372080866055
P 3.0373675794748416 6.7165520316131255 12.323892323597354 -0.2686116318999696 2.1215609430437077 1.4534124782854003
Ni 8.754136531413476 3.1531966674892784 4.763521571096133 -0.5752794472417124 -0.44156382802240085 -2.083994040533527
P 1.3477850988109537 7.607418448809792 9.531389145907307 -2.439569637319566 0.34614093373570065 -1.0842637708006164
P 8.515768155063157 0.8674744750350014 4.289662850889527 -1.2995628073203749 -0.42588832626867296 -1.3537403218040427
P 3.677263312594199 7.283517998499125 3.2332263771860403 -0.15387898154106402 0.08016468257604904 0.10054787421809133
Ni 6.298377862813761 2.900396764420233 4.8847914366040825 0.9004111257155976 0.028722564745673113 -0.9835850274316157
