# total energy = -340861.77306267526 ev
CRYSTAL
PRIMVEC
9.34599065056884 0.00000000000000 0.00000000000000

0.00000000000000 9.34599065056884 0.00000000000000

0.00000000000000 0.00000000000000 13.67880202432139

PRIMCOORD
 96 1
Ni 4.984357066467132 0.29649688412127273 6.568780077578864 -0.7505260958252752 -0.5177080765851471 -1.9523782412660378
Ni 0.2509164871454513 2.2586082049536316 4.161351923229129 0.6087343844660483 -0.22405647099741413 -0.6199073703637323
Ni 4.227219662365176 5.312541532287508 6.484409145920216 0.8793720456571114 -1.9357928261035307 0.3329966830442588
Ni 2.6236252203909256 0.38526230063906214 5.1586999820517265 -0.3795819870029656 0.26126599016817587 0.15544761157976453
Ni 5.995471769691081 7.358799481000082 6.510590069858778 0.2916813692352396 0.23973274408209036 -1.144002581422146
Ni 2.7626094491027238 7.444978861872349 3.5530279263297375 -0.6831824762732943 1.0562688282495873 0.48795707057495963
Ni 7.166617872836495 2.082838156578755 4.77924995307132 0.27012961120639284 -0.5773766960903735 1.9412399652610306
Ni -0.16524272437373558 0.8001981219667101 5.953602665649255 -0.01826717374030402 -0.3359357110679247 -0.5645484339774536
Ni 4.836858640165633 4.257005334942978 12.323807542780102 -0.64953084965712 -2.2712048034575014 1.2329681501192764
Ni 8.136488718800999 1.3683465083514488 8.706502564943042 2.8098275187081287 -2.156375222509415 -1.521276232006909
Ni 0.5498339828756511 7.6830679766886405 4.840599840270087 1.1139720964983266 0.07329058116403507 0.46402575657034284
Ni 8.703986624228282 3.0408769782308984 6.3620112470244905 -0.45279183552773633 -0.06298662813486572 0.12175561864395805
Ni 6.2780010706094895 6.323945961225266 1.8285141211992697 -0.8124040642769944 -0.21543761898015157 1.4963295893639006
Ni 6.2201961177090475 5.047461196133064 10.716027966139917 -0.6318635142843441 -0.7844996245572424 -2.8670947278607137
Ni 0.31326172236101607 0.8873980850308497 0.6253869722446362 0.7461235958822054 -1.6354386116846416 0.20856788844351176
Ni 3.8736888695818257 3.6344875818641356 1.994711071230424 0.30945694805110574 1.298077995244732 -0.5076607196514741
Ni 0.7538663073331368 2.803320584888387 12.859401039522462 -0.15407875625669593 0.5498666635955627 0.7275404335633793
Ni 6.708645633220089 5.937666816790639 8.308969913024598 0.7253958764165508 0.8443651905646232 0.22049832133251057
Ni 9.096873384135925 8.931841879153549 10.44418954406109 0.4594358232068152 0.36694398652398097 -0.20977913514279356
Ni 0.21614753229011993 6.315945793127807 12.514038642670398 0.3276739852797647 1.1635779324509121 -1.283077408070842
Ni 0.7709040485033075 0.00779455630056081 3.1305442828578056 -0.0464282095555523 0.08609004692154851 -0.15470019189077872
Ni 4.6289103455763305 6.222672805262583 4.243602249582505 0.29559741646019416 -3.05731650969687 -2.5060503946506194
Ni 6.586643069733855 1.760438859043808 7.035759983097523 0.42416722981250815 -0.13840145473075519 0.04887821375794163
Ni 8.109076927878284 0.9662165635741946 12.317624235287955 -0.24616204464720184 -0.6918087844897246 -1.1834834131255876
P 3.942194981911695 7.297396321653937 5.730227878698195 -2.017879151182325 2.9339547229080565 1.7711920872695883
P 8.104469354429632 8.677359896530083 2.378250905770933 0.8129226557846257 -0.1981202107476265 -1.4826199530872919
P 2.6635139089889996 5.801495731300026 2.184655249204138 0.2963147542421929 0.2858508785963916 -0.837178443008197
P 8.434971625960484 4.491178479627452 13.172755287192084 0.6125455306820224 -0.12448124510523721 0.04133562552399333
P 5.663520869591177 8.408971079643747 10.412317846343857 0.5602683185448609 0.1924362729889718 -1.7717191634176521
P 5.973676919219968 4.345923091110286 1.1743097210204017 -0.8587913932922823 -0.7576935601079919 -0.5264750241444998
P 4.805558917083404 9.278755710473112 1.4354535258633394 1.5205082434926331 -0.861526018614626 -1.7035905860705305
P 0.9074732732006395 5.640950301886316 5.083152600277203 0.6303193097256757 -1.111745521160653 0.549507223373615
Ni 6.748179174168978 3.223974283367933 2.9673016005084345 0.9478135262589613 2.6191935890352185 -2.110124933292624
Ni 1.4047117584299644 5.137893002804798 0.2889415851843742 1.0261254718969877 -0.9914132652267827 1.2330175152999734
Ni 5.735550420440605 2.0346595741694133 1.1850024690581376 -0.7237655399019793 1.394176061221586 -1.9591266157334648
Ni 4.385484670031478 2.833545519032288 6.862682514662924 -0.179162181587885 0.16544534622242474 -0.8530876580392857
Ni 8.341960325836766 6.739141601096265 0.9650473801291104 -2.9105746534212193 0.28520347482037983 -3.0210654977846354
Ni 3.6638433388666076 1.4160484452316195 13.793020656495823 -0.6303990139236756 -0.22537853224294735 0.9612030601919896
Ni 2.7749928868704017 3.8217999288375646 5.2221293521963865 -0.5911048443097433 -0.3760161240285782 0.3780334115689231
Ni 5.075835624104889 3.6023654115943184 4.491092496512386 -1.15316059377233 -0.8573991409304459 0.6688202940143514
Ni 1.1934269451364654 1.8118791922312023 10.780537732817363 1.1058299270071665 -0.832603679153321 -0.17777609987363577
Ni 0.3961316879023142 3.4053519262036445 8.798807308164696 -0.3790345991399278 -2.8634568739978103 3.640980324347536
Ni 7.231441664803748 6.1137639748423975 12.227194297814373 1.0218579548698854 -1.0472416850503126 1.9513667692823877
Ni 2.3965924126532476 8.495673835999025 1.2618489435494218 -0.3258356465194453 -0.29133658430131115 -1.4498142194111805
Ni 1.4876293885241798 4.245453690353657 3.2828306602297816 -0.16847076331230987 1.2987361976540213 -0.5413629969999257
Ni 1.7930470208335643 2.3468437037948724 1.915373890199452 -1.8634730934931973 -1.0917577651848165 -3.0485220513336917
Ni 9.142706122862485 4.183050509995331 11.029971011227923 -0.49879015663472154 2.3640866764899027 0.3475570973569369
Ni 1.0961445272317443 4.355231697915273 7.142796811566867 2.389784852586955 1.1279460421799155 -4.202307166063898
Ni 8.010859910896757 2.417592853909075 0.36130478790422094 -0.907971711671675 2.143210917213315 1.656039832874761
Ni 6.7102718356137325 1.0163484580540605 2.8599227087769794 0.07306663807868706 -2.958108437336125 0.45123554678420996
Ni 3.6262537639974757 1.8908621602120648 11.473259764748631 0.2333908610244626 0.7544472852565524 -0.8584340099528635
Ni 0.208584756560607 8.545749654534282 7.74670202403112 0.6512488607894913 -1.2245537008033363 1.1699702091305013
Ni 1.6300529418386236 6.142213170740367 10.458525359300214 -0.6536171039113517 2.4594645764712806 1.3741068012755366
Ni 2.1188108750450123 6.339824799540197 7.202914897182403 -0.42278834718711056 1.8226624872347383 -1.432695814563339
Ni 8.590638448193268 4.511431241621835 4.149136713295277 -0.5916486326283552 -0.3562579675650445 0.03720643384696818
Ni 7.82763176188897 6.954622764244623 10.19753295950772 -0.4048854987647608 0.5404397138547079 0.4387911503732701
P 8.37992374033662 4.716902848657601 7.777862491850905 -1.2701596715679093 -0.7777890453062862 -0.9520676735496247
P 2.8553777534664726 3.488577973993206 13.214940285721868 0.33270974793145924 -0.16791849035326564 0.7545118199459007
P 5.742802909276618 1.861824166895707 12.425577905451645 0.6999987764996848 1.8720554358455694 0.37836251277356775
P 6.486145631004922 5.24066151729037 4.297509924332667 1.459228827856861 -0.08643868851021887 0.41334571371697204
P 2.3844052406916996 7.745293583222375 8.908593727118003 -2.32236384282982 0.9001576149438949 -0.4511828391694036
P 1.4651242427546947 1.8012434547371516 6.662233443065912 1.385150460684208 1.2669187960331083 0.9644873873702162
P 2.7506746188919133 2.8233583890951044 9.442217089006457 -0.1513374460661329 -1.8064064303871923 0.9021381357090335
P 8.547749696558647 2.2801507136740065 10.575970817687946 -1.8342057119876476 -0.8486864436477964 0.05542527084784003
Ni 2.19122361151593 4.182854244189202 11.287966151781102 0.8560066314582935 -1.3343549752988955 0.3477519869765624
Ni 0.656149300857701 6.844125115393867 2.0685088835331675 3.836311659496116 0.43667718935406086 2.7812317093483068
Ni 4.162601482194819 9.161865403937005 8.5394710179363 -0.23981604782451602 -0.5432591855813741 2.2131747479969626
Ni 2.5236324651634674 -0.35664768070449737 10.906984314913812 -1.2000361752779463 1.1600472935898343 0.0991507367602486
Ni 5.784420606166783 8.09927298356259 3.8191895936160463 -0.5250920277540441 1.6902041374612955 -0.6679857139281979
Ni 5.115341127081472 9.2558486871006 12.294357391270873 -1.0709197453935428 -0.3547649279592858 -0.27233227528466647
Ni 3.399912559576635 9.860487559840148 2.7926642862146465 -0.5851864219427793 -0.9984730002870418 1.056476059164387
Ni 2.862256402671764 7.258451578123438 12.639732872510015 -1.2169077542223043 0.5370869953323911 0.923489861911932
Ni 6.509080692349737 1.3638978167458529 10.282874939607169 -1.1090947138013674 -1.3863375390137738 1.9636828676455793
Ni 0.15889305824591662 6.066454569574486 8.837313724728174 0.08127951290678259 0.8902627244276861 -0.8026035332468049
Ni 5.839393723864503 7.3605284892921725 -0.26892527675642325 0.09606232764291198 1.6844518083585505 1.6860749457842705
Ni 4.217023186437223 6.916678041726305 8.107220814111747 1.0992859552410619 -0.6579398996564217 0.28504432353469616
Ni 6.952688144155634 3.2212172160913557 8.910467598267 -0.9016920493105504 2.78098642610672 0.1439352400647908
Ni 7.936166752678433 8.836260431568613 4.530898005792624 -1.0626135395206924 1.8227272790344027 0.12207443543595752
Ni 6.873331336544049 -0.08046056912129265 0.5579706024383229 1.029677450914304 0.09565892155690622 0.2773695805982578
Ni 2.7935540245357657 4.848756086413371 9.02671022764288 1.2188903318699718 0.3026548375276078 -1.2490681410049327
Ni 8.146629118784343 6.23529923879023 6.05088695275213 0.3479129380344589 -0.2138463632336317 0.04001819226415043
Ni 6.4958093854590935 4.227331814254392 6.529234386841979 -0.08254963786845784 0.09159632145175838 -0.7565170233013875
Ni 4.263295186729881 5.841599377685765 0.5105200727098129 -1.3572987285792626 -1.3637655672505287 1.423739890921632
Ni 7.9016239707996885 6.822797564461157 3.5435482878936955 0.23266143905760575 -1.4545774451277789 -0.2631580649845662
Ni 3.7955844247331605 7.212487995526125 10.469823727539719 1.536830377691424 -0.6062172744711495 -0.9835089227780416
Ni 4.696911774404724 1.9071522221207908 8.891932629375784 -0.16676972146080313 1.0569632832134508 0.6418242250414817
Ni 6.9923618749660434 8.477813647641264 8.485918490835324 -1.3382196004606242 0.29122705530664045 2.1527121718355313
Ni 1.8017107542755546 0.6915388295000313 8.731534866616212 0.43266858241530004 0.7091848138743271 -0.5405590130413916
P 4.809680499012119 1.082555456654987 4.416720840376484 1.5963365034768573 -0.14450371097375114 1.1108363790828224
P 1.972162933903406 9.644314793374953 12.895416749546252 0.024765379870137993 -0.3358292673970475 0.21217848861290553
P 8.088721359985453 8.062533893853352 12.362463495195868 0.5234092407349825 0.7756951388917351 0.17049602127245475
P 5.073143978763689 4.789652040796169 8.806617752649561 -1.1461689929458454 -1.04051825028355 -0.25776671876566576
P 4.709014832449361 6.322422564730072 12.090200765136172 0.2962484197806317 -1.4022524104718173 -0.7003685011342777
P 9.071368175329894 3.156169120345668 2.2225177270036967 -0.2979535753971965 -0.19551594035556005 0.5980707341046152
P 7.767630501158035 8.786436954784094 6.660372656303991 -0.9535766539949835 -0.5278855313387812 -1.0601961883284514
P 2.950276943725339 2.3664609384170268 3.5084896073245546 0.7091323633698366 2.329419978345653 3.6210010530121317
