# total energy = -340885.2202250611 ev
CRYSTAL
PRIMVEC
9.16491455228971 0.00000000000000 0.00000000000000

0.00000000000000 9.16491455228971 0.00000000000000

0.00000000000000 0.00000000000000 13.41377885103976

PRIMCOORD
 96 1
Ni 6.569071443337147 1.9106280066568468 11.881334364735276 0.6503893410026734 0.3651879230648227 -0.8950177226141682
Ni 4.763684147185502 1.0258655133405326 5.904973507271098 -0.7693159748382686 -0.619656687805507 0.513283208044574
Ni 2.487476875411349 1.8454013118327135 4.402415141247034 1.10161383204329 0.5046239897076793 2.846171090334169
Ni 3.5998500144993875 4.380966492392613 4.643488129582643 -0.4473392970535974 0.31056123685887804 0.07067268392521377
Ni 3.3203934487304565 3.0483971231732503 2.561790582729248 1.4288959812012747 0.3402579925923624 -0.19064498541650393
Ni 5.237290256744576 4.560626306729762 2.5930713516071813 -1.006467074236112 0.866986784618881 0.22531836842897324
Ni 5.083814602462583 3.1087939081797193 0.4510558380099968 0.9221145788309603 -0.6170601307229244 -0.35054214812718987
Ni 5.810170717622325 8.329752287704032 12.069261848230898 0.41956495515380643 -1.2041625387414938 1.0347276117437019
Ni 1.9758272067381855 6.770406279911064 0.19513843803933822 0.6252706915581747 -0.09853187222932708 0.6150711253173535
Ni 1.1568413031019058 0.07640330777032314 0.33553117720801756 -1.202081230732433 0.8195170211726919 -1.0807657849496872
Ni 8.108053011633245 0.4878300564983818 7.0110998407961 0.8208776489656443 -1.0463040037273916 -1.715302218080504
Ni 8.565812984428103 2.446143112076118 1.3955295807457568 0.6592064250736712 0.8940751561952408 -1.5275196418134596
Ni 6.681662415082894 1.2297390311658594 4.499866591118398 2.107235527559971 -0.6531967285444815 0.8917002282051611
Ni 0.7527822289514952 7.75743088659645 2.348524860765131 0.5798961200781174 0.07778229838680152 0.2881998384445424
Ni 8.023167575710648 4.218170120303096 3.817709191493132 -1.2020969144617168 -0.8570628406369498 0.686128960496128
Ni 7.926642698671478 3.9656675673875834 12.442218869331542 -0.24149214997535828 -0.2414258155137971 0.8166389282939484
Ni 8.448877843320737 8.055428073923512 8.89179248798912 -0.834027298973725 -2.6016712638807387 0.13558609676914712
Ni 7.2831099137247035 0.45259462711509335 0.19170709413851544 -0.22707957409445406 0.26542243553871064 0.3439876348381237
Ni 2.2638712971734387 6.734241528221302 9.318833501150488 1.313135403798487 0.328658203569905 0.38387547217199697
Ni 0.18525224502166324 5.228116177565292 1.2237378453051257 0.10846738617548415 -2.0972447348958463 -0.918910984291998
Ni 6.718184598428991 2.395424476533508 7.188067919813613 -0.8880806291747029 0.4199321086852381 -0.10004445221911158
Ni 3.4260007558062595 4.707411573598291 0.4385484795125266 0.3096562085461054 0.0826465684576383 0.14437875536011263
Ni 6.237154908315252 5.8074670679141445 4.659155550518691 -0.11781411749770676 -0.03936924582624187 0.4359675648815459
Ni 5.960988546767463 2.7097718709093623 9.817705446355365 -0.5115076042013901 0.7764225039760628 -1.003638603648381
P 0.25793734707466853 5.647585138560905 12.5911111499896 0.5977922836322479 1.85521316747725 -2.272211390345145
P 4.421310444987221 6.282796181355042 12.54660449333582 1.1792202669738596 1.001108638137676 0.4924783554840808
P 2.8513148068183014 8.728930128516895 1.3700566180375655 -0.3348409353418491 0.257187449223428 0.8885519123841665
P 6.805370427832107 8.415370916767833 5.868742768198629 -1.0396674722474804 -0.03910853596568749 -1.926570279063998
P 4.914566130730494 1.0917429170774824 12.802955393751214 -0.8048987570388847 -0.2832957162747057 -0.08036420018136482
P 4.235134376607645 6.1208888059492335 7.975444034149846 0.8509230462877991 0.7005394794945032 1.4777549116855067
P 4.715311729694736 1.6482090165065846 3.68948654197697 -0.4023105389487329 0.23871098768579535 0.2063017181171544
P 0.4033341294320477 5.75184520323975 3.1611182367015602 0.29338086842484956 1.4314136054168058 3.205580973264634
Ni 0.728135025018582 0.06790284978951887 4.744131719092512 -0.5084317934895437 0.534521291487744 -0.821314993613379
Ni 2.0971065172071697 6.831701226515505 4.4279284295779915 -0.21824834895606926 0.24130908743027474 1.061260625037224
Ni 6.678912940803388 6.026041108220561 8.995253372144054 -0.425704492392641 0.2320536302702778 0.450761692471585
Ni 0.05774629180102585 2.4922609606576884 10.115947336893303 -0.18822274912825648 0.4871201764959611 -0.09946569689750612
Ni 2.4527510152611955 6.020010594634179 6.882059680927499 -0.39988701710890484 -0.029169422475104605 -0.8770236000295928
Ni 1.0922653171905885 9.047585032597308 8.414369191638665 2.2900594742701594 1.3162865478329588 0.2059862437592646
Ni 1.731142325690733 1.0709293967816265 11.609410442000764 -0.40959884508003014 0.7793188516872513 -0.6215065965300522
Ni 4.2276008170818 7.123732054656039 1.4947379446817246 1.719375359708613 0.009259056704422765 -0.43049317203053605
Ni 5.963527228018872 8.114266823504927 7.9126533735373545 0.20963592469670994 0.47009921645793235 0.47261195557745705
Ni 5.723855555074385 3.432709473048253 4.960536424192399 0.4045682246346581 -0.47145547337551064 0.1104453358374614
Ni 0.5220857565467398 7.6188115583380505 6.457070692070067 0.8370264908113649 0.2939349411561067 -0.014973076370064533
Ni 5.7456130615395375 5.0079382772624985 6.938839990764992 -0.04538716988554764 -0.56246995418187 0.18058245897417932
Ni 1.2065243033325688 7.474711611349172 11.416453253556499 -0.6205879413705248 0.47880445754141415 -0.11567315989530401
Ni 4.661367044330841 0.37942836706317457 10.409038545614303 0.518687666889597 0.7938368427977683 -0.40069640038407767
Ni 8.159605654373973 7.216627625646263 4.449136041187243 0.7912716531737534 0.3359557656725827 -0.5744242983302688
Ni 7.581015451909116 6.657485371251775 6.809464395034291 0.10696740459118997 -1.3475236514703695 0.06577113285853833
Ni 2.7551840210925267 5.616222801946013 2.536491753392092 -1.3722126695766175 -0.8721457031120011 -0.30459859151753993
Ni 2.8649247045018535 5.327766290368834 11.620905993963376 -1.583069611164622 -0.7263386999457943 -1.573630063018277
Ni 1.0574386429835199 3.6291594103189153 3.5462545123689884 1.1630308016981907 0.15172054043716451 -0.5778788325377726
Ni 1.610880320705166 1.2124448379477704 2.482877004941737 -0.572699088109046 -0.482869114529091 -1.7612576017646957
Ni 1.4692182409107817 4.131653329641326 8.089219112818633 0.4817226596294736 -0.5708386378615394 -0.3235810461573137
Ni 3.961323398025965 3.2476698540375377 6.848834117242529 0.09201284016388671 0.4417890566593295 0.3526162570473992
Ni 4.515617412774258 7.525815173290912 6.04474486525261 -0.030546762438605456 -0.5850460397101731 -0.9167209186192148
Ni 8.70877648204812 7.5886681553204065 0.09954838225519977 -1.1179868740846746 -0.9188971003349271 -0.022247498544290718
P 0.567309109496045 6.346739788182073 8.259319005085942 -1.55376186333944 -1.092404654740196 -1.3014235146781974
P 9.394953613070022 1.9079426867771967 7.909957972252013 0.36370799608518656 0.44523562044703324 1.683216650399869
P 2.1583189795832256 3.534687474075109 10.060843289874882 -0.49839549229946417 0.9156279426653521 2.3303746289494383
P 4.330449484963832 6.2942431592720505 3.861652205919614 -0.3196410876729592 1.268305906188622 -0.45789418975130813
P 7.385756953492906 4.471506680416726 10.392700252954054 -0.4050935010105088 -0.5773643547951992 -1.1453894344673434
P 6.7517281846389565 8.267495025101764 10.108502677035828 -0.9679550342038428 -1.2186661316743077 1.0237358886188885
P 2.6179577598024117 8.661568008669011 5.725147807985753 -0.5397138914322769 0.7131360852125912 0.7973194020297301
P 6.874602190190053 4.0847656282614935 1.1357216746695982 0.7672331241673109 0.9747900548478051 -0.3490614498166053
Ni 3.0861107453737997 1.9037543209580834 0.3690106090181285 -0.9013583201202153 -1.6155819819700306 -0.6451445476639663
Ni 2.2187249295039595 1.57490803221497 6.909517764065494 -0.28276555480284854 -0.6271301133644167 -0.9088949948168928
Ni 7.276758628139047 0.9098505296253748 9.097908660335095 -0.06118531326006881 0.8699085862513664 0.8292018525606235
Ni 2.9469140275167054 1.8464186173161303 9.156942622590357 0.7935835891363816 -1.201441283155589 -0.11250478946965141
Ni 6.407649808387384 2.544024396426511 2.5190133453972763 0.37883122487987014 -1.1869263773688656 0.44037957790631255
Ni 4.510411741471728 6.63680015975563 10.22646337204945 0.9623934809556652 0.7640410995925744 0.19918387612545052
Ni 7.465280914570468 6.484231831985873 11.335232866848482 0.9572985829312609 0.22642497122959068 -0.5463943887762461
Ni 8.238093980139586 4.211956308431414 8.318219159592934 -0.20301739093892776 -0.028324043755673798 -0.04989842749233987
Ni 3.2864191115500345 8.519392693675787 12.359750221300631 0.8149173176171514 -0.24332303253650997 0.30654311683842045
Ni 0.6399804641776528 5.243082482560067 10.334310584171623 -0.8512292646743082 -0.8725136279743813 0.12993326935874397
Ni 9.232001437438 2.499180470927777 5.80555068434133 -0.27716080702156143 -0.057446672153243 -0.9958589597029625
Ni 3.738689300700146 2.8370633651361987 11.5174057006771 -0.12984765162347314 -0.32299714862938567 -0.0061809319997312906
Ni 1.097076897179723 3.523588762900172 12.458422437752095 0.8382289957598983 -0.3949947220136101 -0.19020815498940144
Ni 3.6451980102826966 8.5059752591918 8.267944105900751 -0.1869829631838844 0.4271761918421611 -1.2212955988773546
Ni 5.801738996498509 8.192315233385822 3.730412466627408 0.504071459638319 -0.755486525154344 -0.35205935610266464
Ni 3.47940471122852 8.921961552766705 3.658446810344207 -0.1804832143921537 -0.6940775259192433 -0.3922837508403502
Ni 4.095378598980384 4.224631384859935 9.341703628207414 -0.12706803199580696 0.7505237818324301 -0.46077511084352907
Ni 5.586189377899549 4.320817160071298 11.686567105723672 -0.18671454001384616 1.166508990054778 -0.09772146051288975
Ni 7.9114381059058125 9.331349108070796 2.4589602446757457 -0.09600447782178305 -0.6682052861381718 0.3458051476628367
Ni 4.854875044122432 0.639295845082056 1.6231072328261267 0.3173155248635761 -0.7728486705818755 -0.03972842893787352
Ni 6.530752936795106 6.045259933434304 -0.012022534532850702 -0.899250015527961 0.19631401077682317 0.8487972581940479
Ni 8.524149284179332 9.33822279376956 11.24066561549632 -0.3737715509687756 -1.741441081259401 -0.8135214657108892
Ni 0.25570843992541614 5.178066580764029 5.845872641141702 0.5957657401205224 -0.2662305332623028 -0.20475931333069894
Ni 7.252233317565858 5.912707778419347 2.3812005295942 0.18871537249395887 1.446955666916463 -0.26526714090776893
P 8.896400606881569 1.7872682606497037 3.400326164984238 -0.5458056061523117 0.2534886602156021 2.2489128248285204
P 1.7989443614233367 3.406836920078107 1.1532734019785342 -1.3854679919246269 0.39971783852089227 0.5823461242805067
P 5.165327349935654 1.1080839592120098 8.256221264064367 -0.48677924821677454 0.9530794026435908 -0.16389291413364032
P 8.74435467922492 1.7359722355083975 12.516463839792454 0.9815836807308708 1.3596883118573615 0.7860086050026012
P 6.617049769514516 7.859986277222001 1.312405641344896 -0.10944826203151474 -0.39585038514568593 0.42101351467487486
P 1.967083878529358 3.6645726390389446 5.846851453985208 0.7734829617317648 -0.026337609453264316 0.1927437769270616
P 7.632641413963963 4.0253219943385865 6.08352436698218 -1.548730214452804 0.9670458921260121 -0.5076064693747709
P 2.612339667357955 8.8662113792926 10.106034565624258 -1.1798944102227487 -0.4757882964229096 0.9568553247462552
