# total energy = -340863.94331734395 ev
CRYSTAL
PRIMVEC
9.32690861893200 0.00000000000000 0.00000000000000

0.00000000000000 9.32690861893200 0.00000000000000

0.00000000000000 0.00000000000000 13.65087354217813

PRIMCOORD
 96 1
Ni 4.877227064943896 1.2826831104306764 2.971904716498649 -1.6253776279042136 -1.1444476393793643 -1.9918313050553376
Ni 1.0001523939706431 5.421778625769164 4.7837714403918845 0.24019657109238635 0.9529246222332814 1.191214206110942
Ni 6.500127821760174 7.449821639999641 12.599824407659163 -1.3939989122137733 0.6432195627271116 -0.8317048214881354
Ni 1.6265009435505164 3.054991616717879 0.9946439217290846 0.5082831837268214 -1.3631451600577105 -1.1595641833058288
Ni 6.05580322115805 3.399676852341046 2.9111856085748915 -1.2734010613233424 0.6770596512050082 1.646394853585829
Ni 4.5729086899056695 5.337043660793612 2.662056417328997 2.0443214045342533 -0.21654396467045284 -1.158059059515212
Ni 3.998641598159971 5.102089505295637 9.294306428781429 -0.350730352878596 1.0358987492336675 1.304638164960753
Ni 6.896698650136119 1.7207027207935621 6.471551106384434 -0.4198202656977222 -1.1124242923952326 0.6610892439186808
Ni 1.1565366711027367 8.91928542281341 11.002276053902493 -0.9571042075322678 -2.0567442036786385 0.952303957930147
Ni 2.555097294450997 1.7933033776311724 11.906073087425597 0.17431282391538366 2.223954098000654 -0.2645803992533895
Ni 7.126345794619116 7.878057323201343 8.49384687951222 -0.1048110203698195 0.06314012299359448 0.18560485188943518
Ni 4.110163444743644 7.576854135648183 8.30767618695405 0.03621475935766021 0.3467716253411641 -0.2550413494147027
Ni 4.524809822059888 0.7279017962113314 6.7814805496592365 0.784856493676029 -0.14691591995966954 1.142244975301091
Ni 9.282335341544652 2.514198800073695 2.4433012367533693 -1.7715854660532653 -1.575366071872777 -0.1591991082023968
Ni 3.6144102699120007 8.859677149708428 4.895148719891669 -0.3376331533750056 -0.8195080223116273 -1.1694392763276957
Ni 1.754913821677472 7.05039677758049 12.90567239571401 2.597895341778074 0.5399774295063088 0.28682455536357054
Ni 5.56367821378656 6.024679327033294 4.919515268708249 -1.5069454172065337 0.5108334609525008 -1.6392579854307316
Ni 5.344048169180695 3.301231331667745 8.52924343048401 -0.10359437435389901 -0.9113632538517272 0.9702343171563227
Ni 5.147063858747712 1.7678502439582744 10.555988139032088 0.9395109199305369 -0.7377029759186778 0.04966419999434672
Ni 0.30871694515187215 0.2515131490937487 7.25901547384842 0.03965052451208655 -1.3205252685046547 -0.22868959889405133
Ni 1.05474279022842 1.003547388714848 9.299070613713681 0.35264556762343785 0.7891762040973054 -0.33648746980633665
Ni 8.094618814865331 9.06313433473613 2.803834755534099 -0.4078666928802718 0.8410464106040354 0.7521543754573176
Ni 7.576686251292701 4.537904801787536 12.526096127567229 1.1291079236985007 -0.27479282101001706 0.16606601052555917
Ni 7.09018536982988 3.6512702128490813 1.0053195013560539 0.728573502813584 -0.2621969866228775 -0.9378361033312751
P 9.200081334266788 6.9457954972061575 12.23927783120634 -1.290747780131906 -0.12522069437442307 -1.466986360315093
P 5.597852007035918 8.273145173103858 6.471483019951377 -1.0816602717394983 -1.425077893006765 -1.0368629129191498
P 5.312775044517731 1.7397855758667573 4.862072703788995 -0.9648535124603834 0.9121135017541904 3.0874593518288376
P 6.6792137945169765 1.3309685164492155 1.746656709460317 1.6195077993869977 0.7421353006584186 0.7657493405329329
P 3.657677799083336 3.241287289851799 2.2320682079942284 0.26015527360250035 0.17968154442646475 -0.2737551237741221
P 2.234680675103711 9.030741981036616 2.9413124561662545 -0.16835017857404552 -1.0876388579204366 1.4042023351093367
P 3.3151097717209774 6.3511211293606795 5.202511397909315 0.581580963979708 -0.15298243786872362 0.36195784616329923
P 2.5802706208647574 -0.03578921382544695 7.899446722780697 -0.3216596607648847 -0.2036645376046234 0.19554447960065033
Ni 1.0188714996069594 3.080127635497088 5.087202826418644 -0.8884904630186119 -0.5487695738766419 0.498451028127748
Ni 8.185406943546894 6.532883924896566 4.511600121355995 -0.7177280754586478 0.09532750635941646 -0.7413796534393167
Ni 6.274948266514743 7.1433580759746915 1.5688130809340848 -0.027608762856204064 -0.3061075719628986 1.0457280766192636
Ni 0.06040945455697835 5.0133626234230535 1.7117106481757383 -1.3678556781595024 -0.2745974171697593 -0.2389832675105755
Ni 3.3276917714735386 0.10683694037484288 10.527635269463659 -0.02883826438793098 -0.8254148747143656 -0.7976227922027618
Ni 0.12548049805119177 7.288307563116688 9.10472302035264 0.5606262161049119 -0.492670416890229 -0.48491751241768744
Ni 3.4502193702499633 1.7453537403235986 8.811898194828927 -0.5441161342650307 1.5305849110023446 -0.2416091351691968
Ni 2.6959709225182205 6.317814738614647 3.209961934500463 -1.6663478996689882 1.1826670878718795 0.21681624449523307
Ni 8.032007277178938 8.263389226668588 10.936096973662096 -0.1283129601465016 0.5753534950127575 -0.3399867412088467
Ni 4.304079202234749 5.847113640384472 11.802709487827517 -1.0796275575801857 0.31968119688227525 0.33634657335309814
Ni 4.085297906314935 7.9917336856803765 2.1996879792759434 0.09005443088593523 1.205415951532621 2.0365810984672024
Ni 3.9054564539584593 5.320992051027743 7.063767833803819 0.4462036407872574 -0.2784746407369785 -1.4310091708895356
Ni 0.27733096489438974 0.7790953323431757 12.85173768113348 -0.7477444193150801 1.6592575684811102 0.6131381699606989
Ni 3.2599411071276494 4.178697569415118 13.59224292898724 -0.3254150140422589 3.3179757195189827 -0.9109991856440892
Ni 0.8212277767332757 0.42420739136098207 1.4415045087898597 -0.6036456570892313 -0.012419713820591514 0.7629206128348861
Ni 0.3790604900991047 7.400081236233585 2.273212000068708 0.5006197536442927 0.1053463240479992 -0.09034316577094764
Ni 6.525916724144036 3.920444796139605 5.670696096188978 -0.2583848119656389 0.05913305871673042 -0.0935400754416905
Ni 4.432809195255393 3.049917778418848 6.4817892539962845 -1.1992530172550184 -0.37758346851569813 -0.9706194684098832
Ni 8.12267415604821 8.874525588260006 0.5056238422431596 -1.455535952386306 -0.17098401665246682 -0.39526005985985474
Ni 5.463162119395639 8.627437124624088 10.031754315983676 1.1037365348132475 0.3807562098167249 1.1046338498165365
Ni 7.367586286539053 4.190384185938439 8.28509760652336 1.0848160437596608 1.3094641255944865 -1.929982390069341
Ni 0.9497964142344846 7.927769746241484 4.696610546479609 -0.010279013328504878 1.0190765354700062 0.17049345016929346
Ni 0.5946323967566084 3.034117995186202 7.403469702141743 -3.6638610856004514 -5.518593713896857 0.5043751069216669
Ni 0.8144331237905472 5.0653041776276595 7.56737519839946 0.29128773334124675 4.995208898641907 0.9754089193787265
P 0.11373512200345244 0.7992591761275065 5.2297860768392 -0.7137824605473384 0.725882329134666 -0.9227285582658753
P 8.338181707036112 5.306563323364873 9.863083702102843 0.704551943088006 -0.21092713270430768 0.5076285808619581
P 5.757677913455406 5.5392044055206435 13.422631230024841 0.6816105038004843 -1.1610754777440326 -0.21892789152159714
P 5.7400687099470025 6.0485468862377445 8.533543135366095 1.2414399350357135 -0.18869017568297825 0.35504646375544663
P 1.896626871522109 6.114889187379307 1.2496434692716898 0.034627617376198426 -0.6375327967549794 -1.2935690516307852
P 8.8368728580887 1.3607027011869213 10.999423885241017 -0.3081055762295339 0.5512046656806959 -1.9208827417609173
P 5.980908144795509 0.19371243088279808 12.210692721612826 0.3268823426164048 0.5377943058120609 -1.6633201685862582
P 3.684744487950595 3.518632245109145 10.616352824427604 0.2657595071631552 -1.6793849353586046 0.9069049609700575
Ni 3.1110276838145343 0.6057071680732807 1.197880991712932 0.8581097938442254 0.632587279824246 -0.26334832661850127
Ni 7.353539962130338 3.2879125061327876 10.388861128530833 0.5131955334267743 -1.0738063229127184 0.6135657444164208
Ni 8.19847394254863 1.953437072035712 8.37688557981091 0.032925032862794905 -0.9585147147265493 1.871302873950261
Ni 0.7874485117193017 4.721075960527751 12.84148554315867 -0.251320963140322 0.28944348104365636 0.4640039021934719
Ni 4.115992762642347 8.501878280540339 12.728293247237946 -1.0136101130387964 -0.8713617737581251 -1.5432033710973037
Ni 7.281797380887417 2.0211597556556877 12.673511649353092 -0.4700459946224937 -0.9372146676971924 -0.5444516632275785
Ni 4.282841831266192 2.3623847081741842 0.1887244001432356 1.5032481708606047 -2.218678451424011 0.730824760741606
Ni 0.8778001410766116 3.1314909213661424 10.341137202412297 -1.3286478976117893 -0.48183913060267985 -0.025343620971111196
Ni 8.317084239697124 3.9479125420782952 3.9882392969560927 0.14766411097960377 1.4126764340186186 -0.10933359083052138
Ni 4.090110591172104 6.618887349446877 0.5131777055490153 -1.1746089934540933 -1.0859249605531232 -0.4946157135420578
Ni 2.2251579013843896 7.123622337296841 6.904570561026528 -1.7991829160555592 0.7545542431480617 -0.21791924775142468
Ni 5.389889925136098 3.545922779783715 12.07172644636206 -0.42957014599563437 1.1454195163743306 0.5431997930983484
Ni 3.528854536976312 4.051683727583852 4.395308493694888 0.3952975979660095 0.27583900288634433 1.0439990097432987
Ni 6.903945658147787 6.109293042196551 6.66142178359927 1.1173389560880305 0.3183197977583744 1.2742083877159862
Ni 7.226031794141261 1.809103160863818 4.097310031949719 2.3522436611083877 -1.5464686721121366 -0.6137125544069302
Ni 5.446933298365649 9.295057244926781 0.6594721329166012 1.2836574489440278 0.7663044417054544 1.1993532902783086
Ni 2.37391276725066 1.8502348279570686 3.7556961473410206 0.89643285779414 -1.1651357638563353 -1.5934509543989461
Ni 7.5899770961017445 8.501094820214753 6.209563838890295 1.7415511244747037 1.1872727049646907 -1.6767744943189509
Ni 2.136971980212806 4.9611599157765855 10.863010384884449 -0.10894663980474785 1.2904567312540485 0.09886817252282327
Ni 5.927399669939732 8.427850606681126 3.8470616116672725 0.38738811331094575 -0.2849563918065802 0.7185307738656013
Ni 8.026420458904822 6.475262283331464 0.2103245878578068 1.379169817620741 -1.0393409421459971 1.8112262203733387
Ni 1.5715654516731365 4.02067175636275 3.0637066801491564 1.1501593450521612 0.605618464544886 -0.40717095236482775
Ni 6.3902288572795 5.601759981755208 10.892537512250394 0.12467922004865625 0.7887072348806868 -2.2111913990183463
Ni 2.3115717099147677 1.3140308503627434 6.103783637264129 -0.6923659425447755 0.27450305768374017 0.5616034924165166
P 2.439807376777602 3.4827049930358576 7.437432707255884 5.2417581514251985 0.49685231618206044 -0.15948372932235114
P 2.2163253189042744 0.036709779708010176 12.98170815300297 0.17601669398036782 -1.3948154945777977 0.2177369565372895
P 8.962543625076107 2.9265787385909237 0.05912327385580845 0.6366233975668326 0.5165161131595749 0.3982242846945013
P 2.2782000308082706 6.510517997982822 9.081216412512477 -0.360277887357715 -0.27401403386246354 0.6716780751781207
P 9.08044507716812 7.0022232944656055 6.708175711219463 0.66607024207304 0.28938023190588874 0.14994210838050304
P 6.305046200689327 0.9536577544105858 8.593961916831711 -1.198440548656052 -0.05665374393830242 0.46009659671926567
P 8.632259136389896 4.308201695852712 6.155916393095812 -0.8661923137420438 -0.16980208052922371 -0.5790893079061059
P 7.169100343815365 5.401110196227521 2.7027226716812147 -0.46427412513572297 0.10549981890672798 0.04788011151073045
