# total energy = -340874.42896928196 ev
CRYSTAL
PRIMVEC
9.20672962171104 0.00000000000000 0.00000000000000

0.00000000000000 9.20672962171104 0.00000000000000

0.00000000000000 0.00000000000000 13.47497943186559

PRIMCOORD
 96 1
Ni 8.319605708598333 9.072099316015487 8.51783027352479 1.333642265502587 -0.3335960071911545 0.38398243006350646
Ni 4.500571526577574 3.7423697469827357 5.20696059558475 2.4547129207189076 1.5567492281025384 -0.2933441016496432
Ni 4.627256122004881 6.085012815433517 5.4986003188719375 0.5607727689851053 0.9016640242860923 0.41104560482888564
Ni 8.66252875553735 4.050850419539954 3.446697476253894 -0.7334727398874141 0.20253865153029638 -0.40139779732647646
Ni 1.832442956517668 4.939042010387566 6.5088326308784294 0.21247108015265986 0.18362870199967082 1.6030571100301425
Ni 5.654229950604761 7.146382984768601 13.155797504419215 -0.5994933254837547 -2.370343713143208 0.7529192786478001
Ni 3.704198647226805 2.7821999463203952 2.0274718656975566 0.617165031731905 -1.1072175513833125 0.7735665225845064
Ni 3.346756588151968 0.48803399042506096 3.254894605027329 -0.5572909810840918 -0.48724744610244475 -1.0845481348102548
Ni 4.002597951179888 8.799294719568792 5.658615115779327 0.2341403375959774 -0.21736568924079985 0.2878224005004656
Ni 1.598205349187615 0.6093593487158679 4.834863264780176 0.37194735327584333 -0.14219408900396802 0.7826263187939295
Ni 4.9178297060369465 4.036451094885281 0.514242786777017 0.22994763967086848 1.086588305168735 -0.6690408946655897
Ni 8.355484332753871 3.7153019627853316 11.056894308628468 -0.5063857095937925 0.8953838477043353 -1.11210367583102
Ni 2.6530203272476816 5.103759604631021 4.47033754816742 -0.14934509822645248 0.9783610600285151 -1.232347485816142
Ni 0.026689387622399644 1.4234524199866188 12.927302134165327 -0.7880354056246428 -1.2044322474631128 0.0297692608426326
Ni 8.164628833974215 8.267081317834322 2.4775096842237443 -1.3202910410066615 0.34572184392041105 -0.5934054674184619
Ni 1.006221860715203 1.4505202041840228 2.6158711744461423 2.241619890711533 1.5480455296809532 -2.581450823068806
Ni 2.70077563222453 6.239041396937792 10.40752159361997 -0.6135634304235756 -0.10543039912137327 0.37720165969624714
Ni 7.37857669818987 3.271684917286106 13.54289259728419 1.241164312776824 -1.109288317869412 0.10561217611487618
Ni 7.865078688856276 4.882558726016452 8.814172794148046 0.06615782677399573 -1.2640975245342294 -0.8211471005769471
Ni 1.679795384411219 8.176910610885553 9.085059628877625 -1.294682082189306 1.0330602513436078 -0.44276144787492777
Ni 8.410918049982635 8.279620883166588 11.512941359381067 0.7120803902545673 0.3397545705933826 -0.6208910744332404
Ni 3.031499762816079 0.8502184357720346 12.542092579464855 1.695871363049402 1.5440747179586634 0.5943806868475376
Ni 5.17757916030952 1.2031445941159777 9.707145439530933 -1.086375932047613 1.4130047638923149 -0.4453196955204073
Ni 7.0987381605435775 6.138853768490121 10.899250244520685 -1.722332385454408 -0.05001566979649451 0.06283390460708534
P 6.342792029631856 4.757807543746102 12.544545252155395 0.34005693232514983 1.7460135311214318 -0.9724850608637123
P 6.430182304326332 9.16374309965527 5.3207972002476085 0.8541628933813353 -0.6700094292264461 1.8512724376619474
P 2.183265377212255 9.329915357131101 1.1921950309370755 1.4302147000126981 0.7177219048110607 -0.35045318795780933
P 5.424973183836202 1.156696644702405 2.2629882877299976 0.4167015175630824 1.5130510158836394 0.10555535473501176
P 3.828489493031211 2.5275694335491 11.116979265509116 -0.010170769885414741 -0.5289563958054567 0.10697460368004157
P 0.3948674137559413 6.093123943963418 3.298621045254251 -0.6948455144335195 0.26439373716388015 1.559440401781456
P 7.231563644426553 0.9066243836168701 12.440532227675744 -1.5092519538525233 1.623177020708469 0.47121970321562073
P 9.123426831968048 4.046302295256446 6.939277608741183 -0.13214056142270791 -0.4234295803155353 0.4566214936864717
Ni 1.8121329116402964 3.9399645716237863 2.6253706777573265 -1.4477966747605193 -0.757367801337457 1.1650128651252258
Ni 7.8355066742841455 1.3976367509765775 10.492871657097389 0.4015435788757214 -0.19013179322551127 -1.2818556198485989
Ni 2.478755354700584 1.5314105279793948 9.29881318414618 1.8410430466244554 -1.0092472080844102 -0.670143383701149
Ni 1.8608825433835803 2.436312332540709 0.24926575159720402 0.7000915933238072 0.5249968969370765 2.094324218814941
Ni 6.226455797958931 4.485785519291509 6.9785700881281505 -0.0995212327257899 0.42870445556122944 -1.238883744272763
Ni 3.5023134867231724 2.784805450717628 6.998904070501751 -0.20665653035341186 -1.4914450075780896 1.5915395963088461
Ni 2.77092170290481 4.309458239376991 12.438106254500228 -0.7220269599443179 -1.1565603634824986 -0.32533042474825263
Ni 1.8194154345315026 7.34772494824242 5.548875505663354 0.6133358877938018 -0.7637392520814394 -0.178034495741345
Ni 6.236850195359907 3.3117157763644443 2.555650878644509 -0.17123161388689864 -0.9864428085953851 0.5302051806108933
Ni 0.9836285469667575 2.9500846554495332 5.005254045629902 -0.9059672796471365 1.2634233812853404 -0.05928321114134951
Ni 7.448529427554454 5.080917709190966 1.5105720168391212 -0.7647687217872184 1.08417455352092 1.2271104057869187
Ni 0.3973062763525034 2.7288101230004136 8.884875871952115 -1.4008935824510775 0.7272115894690508 0.010626369365594603
Ni 6.215536616986782 2.8749485374784394 11.497754859369634 -1.8753842431084866 -1.2975943707400945 -0.7023315383979195
Ni 0.13410337791243188 6.798635611666508 7.463009771427133 0.4893529224812217 0.36948217956480234 -1.2525766683788233
Ni -0.14504833772667478 6.7076639192670005 9.715015351752681 1.088665242302422 -0.14690794953986958 1.383714756678946
Ni -0.5819002785224129 5.485378534897144 5.345604732397235 1.4149464609997178 -0.8345176083465821 -0.21433127328985024
Ni 1.1861397650640713 8.126522181323516 3.0050552741935608 1.2324544437076517 -0.16092097598950997 0.02291598536622505
Ni 5.413363498165139 7.686744341950249 7.446353877416411 -0.9697933729641621 1.6034049802878643 0.6012640442309322
Ni 2.9125856469338776 3.903515130250479 9.469339303916895 0.424836745075707 -0.24271162420475623 -0.589906453126268
Ni 4.925443671183632 5.338917884892958 2.6932169074537584 -0.5426693745161751 0.16077236622678762 0.508218649037473
Ni 8.92237948383243 8.147145254997728 4.922935758117179 -1.5337178002043714 -0.29720898392168815 0.4831287959483808
Ni 5.268781020941997 1.6331172667646752 0.06456955473185534 0.7600615461195362 1.5274414802773566 -0.18197496844633176
Ni 7.517211628273038 1.3856956230500357 1.416435971572727 0.45153019520649335 -0.6961878873940268 0.8613357569806909
Ni 7.350533000684668 2.298717762870571 4.602419128321433 0.6100009098832979 0.29158623841827197 0.1874341917886901
P 6.383007023296571 4.514105418676277 4.531662651487314 1.476602029027986 0.5104791629368758 -0.24999478812973072
P 4.155015355053367 0.5668730549281941 7.751131603441591 -0.23686442139535982 -0.14768673668742308 0.8098638143536441
P 8.798300392802357 0.7557159626787506 3.759801768275037 -2.774703935532118 -0.34773553191633017 1.814002497566895
P 3.0684647810312415 2.45312382027692 4.864494202419945 -2.3748508569849425 -2.7193218592173873 -1.7611372741367477
P 6.08370545987024 7.012204111675754 1.895781571539594 0.3135241761419439 0.4855273780875445 -1.0401040455642667
P 4.589572978902849 7.126109766808504 11.372572802167161 -0.7455168155361419 -0.49967795855631364 -1.8532344464843244
P 3.401914103501168 7.327773965808484 4.042143615623123 0.2467433710719686 -0.3542134263311899 0.705515849663172
P 1.0071425336470876 4.504217391387837 10.126217344666117 -1.3452484822829478 1.290089834832933 0.4748729836974918
Ni 5.15270257769 1.4358907112963781 4.392411791212716 -0.5801462884157105 1.457538841748948 0.11823192176141573
Ni 8.062139523196834 6.1957789758685395 13.076241235702145 -0.29940342046984564 0.20509689917577578 -0.6617081084496024
Ni 6.404909832346103 8.586536411739605 9.751868968543084 -0.052893762675237946 -0.8946775656659303 1.2488174584467073
Ni 5.3053869767137245 9.164746633151024 11.856459161034083 -0.16849210346854854 -0.04981640930149485 -0.3347319205678106
Ni 7.187334516778823 6.9213613134867105 6.321044814307813 -0.6230687988108495 0.6906312192418558 0.14461786795411222
Ni 5.058121847397507 5.866951431516673 9.111079687278544 0.0677529391752575 1.2024743524057935 -0.085167277996963
Ni 1.3055418376001715 2.5392067394081206 11.30940174961884 1.2151465485568234 -0.19833618341317455 -0.8375581949451189
Ni 1.4067698264608717 1.7738052974859448 7.001261913880307 -0.3204070193047063 -0.35999789422345096 0.3637036252098123
Ni 0.3822293364199629 4.1755647748930285 12.84482180821659 0.49442056681211627 0.4595260689277764 0.8583761601317347
Ni 7.346178217716855 8.4177402364079 0.09088606981684176 0.6518065330651742 0.5621413671978577 2.2207546172267496
Ni 4.591092089240458 4.658577415147592 11.090541221597121 1.224267279911169 0.7555361474453569 0.67749519608053
Ni 3.8788963360518873 8.256281824343317 9.651952017937388 0.967152078686573 0.5837576599160527 -0.3333080436370905
Ni 5.442631690669747 3.4860912296633675 9.047195113208012 -0.20518688778642083 -0.16703171687293814 0.08996264250307733
Ni 3.164095078466084 7.217928478305344 1.9502872504530198 0.03495954679432044 -0.8320172105222315 -0.7526184595779297
Ni 4.606835596375682 8.909830711770844 1.0111189200398967 -0.8028161634782431 -1.728434641697404 -0.3086925590812555
Ni 5.853647707650942 1.8661672060125973 6.698425887068471 0.08834001929798979 -0.2179328745981795 0.9446274152214957
Ni 0.6521798467778159 5.556528139073178 1.23075373399733 0.4752601918335815 1.1652805169643157 0.33322705388751
Ni 5.523328673149423 8.445526145492176 3.515284847660493 -0.4330509054553832 -0.41930373107261987 -0.8231553892562274
Ni 3.1246902769814278 7.026318027721543 7.519644966832008 -0.06057776158305696 -1.0649951523789918 0.40998296789232613
Ni 7.070768116872927 6.630060397838457 3.7817800725049833 0.3135601715862019 -1.8632964587060168 0.8285354226212183
Ni 0.512775234123593 8.171064337768088 0.5972046246691288 -0.026759784592347464 -0.19155181350148948 -0.35938674300201334
Ni 8.220080964661618 0.9479800910441898 6.455862634415387 -0.39070200817552714 0.4815601659096803 -0.6656652933251374
Ni 3.2091436050231925 6.502537990043136 12.990189619450629 -0.830830389302982 0.7512722299626804 0.17729376092057852
Ni 1.7440767685153944 8.516832264066629 11.876899941467782 -1.3928874243171496 -1.89357839751901 -1.516457213351711
P 7.211492974511472 2.357217320962512 8.512130387403495 0.29187445908265214 -0.36575716530473135 -0.41939371968326483
P 0.8764714244247211 8.926071382289287 6.73937557773283 -0.4532479492285485 -1.189198461232494 1.4255964845143962
P 2.8808684644304567 4.79218547102267 1.0915544314069174 1.720148490429212 0.6415961681910757 -0.4504886413158564
P 0.8794507220322992 6.549630410509027 12.633897480867716 0.9220446448249733 -0.02406192604521017 -0.9985169661510997
P 9.18407155799128 3.204586274010364 1.5514010993494027 -0.5862045787946485 -0.4756296593578583 -1.7311204160596831
P 7.067020978040157 6.964430393240267 8.706466950538607 1.2846239266223554 -1.3102879070473628 -1.5042197907452548
P 0.6851721612918967 0.7181985407044573 10.126352683587104 -0.12886034800953938 -1.4101606095753005 0.5830058693516926
P 3.9623645440565363 4.726136394889275 7.618012424893344 0.3619051385484929 1.6526701450715795 -0.6092087529993057
