# total energy = -340887.1288587368 ev
CRYSTAL
PRIMVEC
9.11288526376956 0.00000000000000 0.00000000000000

0.00000000000000 9.11288526376956 0.00000000000000

0.00000000000000 0.00000000000000 13.33762872808905

PRIMCOORD
 96 1
Ni 6.5360163062445 2.2639049157924886 11.511359921786138 0.5764156177286847 0.0680892394687537 -1.0142922267074856
Ni 4.904053515930704 0.43141855806480595 5.5975358653238265 0.13197549659975336 0.46475826386099317 0.1685602377023226
Ni 2.8961022020520963 1.8460973628125468 4.616513743204927 1.6808103549512217 0.44513637586500754 -0.23319134341914677
Ni 3.4739958064017524 4.606909673668949 4.825967026662371 0.43280176555905464 0.20693755192894037 -1.4641450342115556
Ni 3.7691986041515393 2.822260494632002 2.566319650757167 -0.487941643955992 1.5304411863356286 -0.8599298777720997
Ni 5.310479075504785 4.799100419008918 2.3091166723053003 0.2250715425254898 0.3436533914271565 0.6828608312678175
Ni 5.688527111086988 3.438902086140765 0.10016336454858958 0.8642087076531116 -0.35390952193752595 0.819533476232924
Ni 5.984896358120963 8.018217943930651 12.390376965291338 -0.519527389182073 0.08804382821380967 -0.1158636786395553
Ni 1.9984830263296158 6.6054018128835965 0.2790939508774559 0.5176952210693406 0.321178350253092 -0.28393720651344645
Ni 0.7056143332371773 0.28224792038727875 0.30348549895602234 -0.5982162585435439 -0.6958071070158404 -0.14136542245508557
Ni 8.677890578563895 8.979882475663056 6.597737876571083 0.047928962470794874 1.0939007796697484 0.8629025872471784
Ni 8.980392797224889 2.3843408043848573 1.0071031990825317 -0.6113800496190115 0.5108951674283716 1.0007085744857795
Ni 7.507859930558449 0.735252169229078 4.926012834994039 -1.3537894298744233 0.35709511875435923 -2.3523912424298454
Ni 1.0845153348584435 7.863153092213962 2.671834101396967 0.664958754176416 -0.3528157746527149 -0.7626527038854801
Ni 7.695977216288797 3.913728960770408 3.8348614972547717 0.31020565329167227 0.5992770957078905 -1.1235656537240328
Ni 8.025435348876561 4.028733569883278 12.853312436241788 -0.6563640705288696 -0.16903126380147018 -2.4424754981124517
Ni 8.569255876088894 7.94854993785554 8.616188145295883 -0.3611530908738167 -2.1657944589407863 0.2957264858388907
Ni 6.8470208466410165 0.9383902233588499 0.17425476501858 1.1502555043103933 0.9348430821412222 0.021593152789743456
Ni 1.7064332868011483 7.163438440746966 9.529241814398272 0.30740083685302544 -0.3727423383733129 -0.8237732253458846
Ni 0.33300122228848467 4.850834267339645 1.06760637668024 0.518867387000571 1.4821854366530345 1.830201475924261
Ni 6.860471464949304 1.8589465307086757 6.825210978892218 -0.39044181253560495 0.9522515074256567 1.4429809985394308
Ni 3.751792993739053 4.509757206335168 0.5181549978061925 -0.8676141337902348 0.5512267771678829 -0.764207964187742
Ni 6.024947487839748 5.797553667618397 4.9457923519575475 1.2994062271378524 -0.51037991835485 -0.29653458356248286
Ni 5.403694776504431 2.8762361126807763 9.278548169725275 0.7148546105655946 -0.6283524158072921 -0.1885950448660107
P 0.45478946301970824 5.905113049659539 12.123050482856627 0.0552550638185629 -0.5743785326939979 -0.3144975957988067
P 4.271974697176521 6.27979843066467 12.561125092149329 -0.6160193481632359 1.1787818938848602 0.7796888334321604
P 2.6452882672966664 8.70509254038655 1.0958663444551942 -0.4936692904683885 -0.35871028576027897 0.7668101776972793
P 6.704823388590523 8.000101528485612 5.773379006203609 0.33839060036632046 -0.003059098541297957 -1.1965998959028876
P 4.816287320180621 1.4724599635861768 12.757495006565302 0.8316449147844774 -0.055730975013716925 -0.9583157113418658
P 4.038857985154626 6.534640260604561 8.220980547197074 0.5371132205846363 0.7149726242006977 -0.6163021695109773
P 4.811904022479884 1.3022677227151813 3.527202296953765 0.8263921510259704 -0.5678227338533511 1.1593129865269711
P 0.46353418749710207 5.827252559940017 3.4518578747917763 0.023397295878017768 -0.528519051157722 -0.6452432780253596
Ni 0.9080880580480641 0.7342625099145251 4.444404151323049 -1.7309124138139351 -1.4747670327017763 0.25795415218612344
Ni 2.017510730277926 6.656324614446412 4.710170507840157 0.8311286372696912 0.015029897749928954 -0.6802169658870673
Ni 6.006284299292746 5.8860397812860645 9.200309495276896 0.08730052228988192 0.20755641645986192 -1.551178161772664
Ni 9.003393719047462 2.783084201876358 10.34487783121243 -0.8066643335797398 -0.5921520546273351 0.1911337521274644
Ni 2.728816971506537 5.555907295205879 6.880828738823888 -1.725564005017828 -0.25024752757048513 0.9344661584177778
Ni 0.6353448767499078 0.4558219528939149 9.632035157567303 0.7471844330465519 -0.10326733003178346 -0.4848329231236811
Ni 1.8090990495797215 1.5422646629367778 11.227682189737227 -0.05164754897296266 0.8829983295557889 0.9897029674038954
Ni 4.353407437828867 7.153423380096011 1.251795097672983 0.3486819549899995 -0.439112795378747 0.289866684624004
Ni 5.7891424747332 8.07093598384491 7.709602801989712 -1.147029541173928 0.8321246826343733 0.6627874575567102
Ni 5.269935849994233 3.172085925267887 5.0051053867699835 1.133001859436268 -1.0711292903011875 -0.3570915192099334
Ni 1.3099589976827932 7.550417103661231 6.835841159282881 0.3690384071591644 0.039919976123389316 0.469282891204224
Ni 5.36161147342335 4.675247198529282 7.093204524511323 1.3291168668284077 0.7723614465328118 0.014085788669104773
Ni 1.116574464403537 8.015875932477242 11.81307114202629 1.6256193116013746 -0.45055034779172726 -0.49265241916809993
Ni 4.957327441831959 0.33312789139043947 10.5715243948611 0.728451632523739 0.8004353219508924 -1.1219461158427386
Ni 8.857696913144405 7.457857530383938 4.8229533955820525 -1.292243647951142 0.20204602816459397 -0.669315488483215
Ni 7.307494927344132 6.38896168047157 7.006976583754763 1.4111245161504664 -1.1747630025334541 0.014240054858781928
Ni 2.620027349985979 5.380730306221988 2.345969179377602 -0.6934195806202703 0.2876275108808401 1.6250528975749432
Ni 2.808791650553649 5.3480241618395725 11.12423545271135 -1.5686860887494403 0.5733241232875546 1.077634181299241
Ni 1.3046279599386548 3.4747066114343044 3.6444532322271996 -0.28993070509272 0.6323461103477174 -0.304952632422849
Ni 1.657624674565924 1.3167025326070028 2.2390814169633715 0.7282755119571909 0.10655628519570035 0.477118842308875
Ni 1.1475400477447044 3.4219703457499793 8.202921542927742 0.37997202335253266 0.48363221794736055 -0.7183793358894015
Ni 3.63855628432253 3.303502840324678 6.895593435153894 -0.2925691711568316 -2.4411652639414605 0.5494630003992408
Ni 4.162273787152691 7.080574977144483 5.825662361501808 0.47390264936442256 1.0886948099887765 0.26866382529414373
Ni 8.429090591400696 7.244488440227937 0.14418406698762526 0.048393046591406974 0.35123428909820803 0.39030400140616006
P 0.5551305288264358 5.880043502934537 7.9772090499949275 -0.6125339607177966 -0.012237165496140215 -0.0912798186526041
P 8.954976960868644 1.612452103458753 7.930634005881221 -0.20381417580861028 0.29616922980326416 -0.13425889331729138
P 2.2394641581347456 3.528071666185886 10.1633664758423 -1.0936791505772456 -1.201633344561737 0.7632813386084144
P 4.416833117656568 6.336188963247115 3.736109718597749 -1.5691568577382717 -0.06803858873647638 -2.0180233900696725
P 7.04334884178584 4.040407175610187 10.239657726759187 0.8417928018517566 0.16956142527332735 0.07934475777791496
P 6.5946212698898945 7.940512373256684 9.747272145248509 0.05589064052003278 -0.25728669380545366 1.7072883466370918
P 2.5204781938885947 8.819942230453865 5.347202179609622 0.9876034045623894 -0.5610280795290209 1.0344784718473732
P 7.342570421835054 4.2517896568290565 1.597354786825053 -0.8728640693352645 0.17135296995611132 -0.9198661491164158
Ni 2.7328448666909977 1.8263679667167176 13.288412599859813 0.7422641129267991 -1.0832024194156376 1.9907020765469008
Ni 1.8280629633328025 1.5112899667105777 6.662652601813129 -0.944094168425845 -0.21367204243929655 1.2835726025397056
Ni 7.373271731510274 0.8039223143931059 9.264823253577504 -1.2554473050583992 1.0588563864711054 0.19114686475358691
Ni 3.0596693755043076 1.7098141671482856 9.11072072252027 0.038904647484997515 -0.032584875914556784 -0.24331377656512937
Ni 6.419353152055677 2.3108362737109736 2.384274280324118 0.6741951851730196 -0.20237075849386438 0.17956661611515523
Ni 4.1929659839428775 7.050374876146064 10.350453094275446 0.2476183174777542 1.316272663875888 -0.004308654677682901
Ni 7.467553640058749 6.165094546757881 11.06301600235007 0.8042480108287632 -0.18835850337517238 0.7344911538495995
Ni 7.850969164925222 4.224040921904438 8.2167257411753 -0.10024731225853703 -0.2977751408378033 -0.9130033605583115
Ni 3.5224672418907663 8.814839014835545 12.334225190296749 0.04873371776027736 -1.315311328403883 1.6754539757353146
Ni 0.27229209348903705 5.086356781010179 9.957192919708131 0.7048447917380763 0.25855399055365147 0.9516465268518064
Ni 8.900354327982548 2.603642382697157 5.599189853957265 0.5518073322617013 0.5076663760784289 0.6491876073850883
Ni 3.9359097229400377 3.2663587209313287 11.752024836480633 -0.02366134817268183 -0.9324396149060522 -1.121540652874204
Ni 1.4548903212431012 3.6946916561240575 12.579770966214767 -0.8237734824562007 0.9787940338008756 -2.00641203108299
Ni 3.3231319946851468 8.8567765117561 7.562648417952142 0.15744073075039336 -0.8994266503151414 0.3804857297641576
Ni 5.907646431698634 8.084012973866857 3.7005785798551916 0.46445898745301945 -0.007998701934760419 -0.5681052980907764
Ni 3.5693621482691205 8.442076452572316 3.309572021756466 -1.1273737146162133 0.08803688623527418 0.5021968683234255
Ni 3.7670297375137536 4.524082661606596 9.02623972182448 -0.06015558644397381 0.29645590780574754 -0.002647722035492214
Ni 5.4056540467864655 5.058790303786213 11.315937747413567 -0.34791756602014917 -1.6631579319767806 -0.2975753661221714
Ni 8.09771875295606 8.957109375966299 2.728838842430616 0.23515669467563374 0.8848302405582052 -0.5715508334372156
Ni 4.8174173179246775 0.46192029555780817 1.457869323360296 -0.5497877307285112 0.3814126124538012 -0.32298326467231475
Ni 6.395413603074732 5.925662605408312 0.025532481284662397 -0.17217340897487768 -0.7764199328729016 1.4523030472713052
Ni 8.14067689300028 8.38108391304835 11.307108273105367 -1.0673952771800521 2.0195976765353283 -0.5402144852177793
Ni 0.10232585216685297 5.107854076802354 5.729364682784097 0.3166159276933902 0.740608322490931 0.3137517187717177
Ni 7.623292845267857 6.280217623376176 2.4477482584424917 0.06609432052591198 0.3358531786564474 0.15369720454756108
P 8.67894767322769 1.9883130466331052 3.315880872064615 -0.6380562733586173 -0.44725110821516517 -0.4956089306932626
P 1.955780047066311 3.3590094230589473 1.2389158572562462 0.5278119977883685 0.28105448564901275 2.1552879029825074
P 4.770285476535472 1.4284173902230626 7.7223535507274885 0.5396951223791996 0.16360186525578277 -0.2391028238075753
P 8.652647887023274 1.6325551278409234 12.274192237566728 0.0032964113630846456 0.15143026289025535 -0.7085651780124571
P 6.670722972798102 8.287749744543278 1.2914516394698514 -0.4219141721122734 -2.3511571129124285 0.37501056558219936
P 1.8041416401219241 3.747081632177139 5.9179722417292036 -0.3175844622542466 -1.4632783153358864 -0.589256735357411
P 7.267808313026657 4.143218744549284 5.901073307724536 -1.746601799524734 -0.38864152610207264 1.6073302834841996
P 2.6999109001827635 8.867338345509019 10.389718693304411 0.19830095929986494 0.4778127830521061 -1.4567970784869169
