# total energy = -381167.71221537155 ev
CRYSTAL
PRIMVEC
9.22447847572269 0.00000000000000 0.00000000000000
0.00000000000000 9.22447847572269 0.00000000000000
0.00000000000000 0.00000000000000 13.50095667379119
PRIMCOORD
 96 1
Ni 0.0405923174262233 7.344723457203714 8.918624264466652 0.6294939856109029 0.8336904844595965 0.5795729324107438
Ni 1.669067906552305 5.383719256615478 11.87044629960142 0.12120900211186869 -0.5651534145513041 0.06066260798737941
Ni 4.051363262503124 5.0072590665276255 6.11560967081725 -0.5348686475248338 -0.24580594685936377 -0.3721748959056171
Ni 1.9270673443648356 8.809303125441165 8.345197475793372 -0.2726477496425563 0.7777419941184348 0.011793907311134527
Ni 0.4035709322570775 2.2640836645936884 4.366020369413167 0.6836069654052226 -0.6963845767858652 0.019517244097321224
Ni 4.774645393413872 6.067557517667225 8.128439758690055 -0.8925636046467209 -0.08927307263522045 0.4383988000308579
Ni 1.0605290631008901 1.843115365976912 1.209503467646229 0.4239214323502893 -1.5255280653047276 -0.08101546061211855
Ni 7.485507447331886 8.951018787892947 1.779115934479778 0.2681210654167963 1.51743551810458 -0.8794252674925498
Ni 3.3926063583612516 2.3673517008592424 0.9076573164097543 -0.25928315541019215 -0.06908708460564876 -0.21496736421195234
Ni 8.708820881667991 4.807456863266179 8.965715226962022 -0.6292826409310452 0.6676450427593276 -0.29873956163360166
Ni 3.0623792542727686 7.816647774787077 13.289477338140609 -0.09606978384207972 -2.6528501007473992 0.9882258686377366
Ni 2.769409818650259 1.9176676008226647 5.707597152185731 -0.274440836987237 0.6197875569564165 0.07606994368138513
Ni 6.103551432585331 4.23897992973002 7.730593537760035 1.6829004047110308 -0.5434887850936768 1.7544696323085849
Ni 7.8250512746564755 2.7053550402824156 5.609026220347727 2.2162407885167963 -0.46856015410558655 1.9718777447515456
Ni 4.120694442545277 8.399929996238038 11.425940821767565 -0.17830523290422842 2.47700747045105 -0.649868435502197
Ni 6.4371362468301925 4.759452677404101 10.222303199968703 0.28751129701795003 -0.5533366244220341 -0.04020176902986625
Ni 1.4268423268919943 9.302056315368219 3.833731987290443 -0.5363678577781795 -1.240469086482012 -0.11282412048228312
Ni 0.659059467035085 3.7800067798926906 2.5763470193455444 -0.41884093250358834 0.32585081602809685 0.45256249312574964
Ni 3.1937173784665114 0.09511082997081256 1.6337510683525462 0.15978043462716354 1.1054162365085156 -0.048461952156129445
Ni 8.13133163268463 1.812056547030407 10.437319335540359 -1.8960106611095862 0.4540637602616244 1.043827517162441
Ni 3.8862450982196566 9.185680295222953 4.820165427228933 -1.0541828922548362 -0.012108353227759792 -0.0420097687728825
Ni 2.5327927218885153 0.7002965755050744 12.810112556238193 -0.7629375821157506 -0.17153937493530458 -0.3353327873766031
Ni 8.222939928187374 6.879117907359692 4.600086897883046 1.3547458802504215 -0.28542150436845687 1.0125315352626367
Ni 4.05621533816866 7.913006676692389 9.134639411054614 -0.21064456846688237 0.9016038604721182 0.3284936529675827
P 0.3613514168319937 3.5231972998004157 10.899768268858248 0.12780105350708956 3.525155726476032 -1.1671214268277963
Ni 1.8628096274710573 7.437263425030069 10.723229277803865 -0.558664978613483 0.7537371465634051 -0.6023963580631626
P 5.397399158159187 4.928491245029495 12.062159557708668 1.929255024985013 0.8660401044348955 2.62128415301566
Ni 2.1873452283549084 4.524348395108419 9.535523252738743 -0.29655026729176664 -0.2633131025051917 0.6371329902133994
P 8.828453142706667 1.228516040182802 2.641259674209386 -0.09351924950608409 -0.14331251887912738 0.8772205465317473
P 3.9828622855216143 4.032923530078395 8.117355625382626 -1.307339365942 -0.7322368105977841 0.7473029609022872
P 3.6648207174676823 0.7360700253881869 9.722835512176738 -0.2801461149021304 0.3876979312418807 -0.03376655492748378
Ni 6.056192960214866 3.9116031894830785 5.462676179921866 -1.7659231255611654 0.35748926886898436 -2.098417415047709
Ni 6.2666955584801585 0.432284888781188 9.154931418752422 0.25940065482466296 -1.107552309014912 1.330187474184767
Ni 1.3769102250335359 4.357339212742375 7.379109545527708 0.43597939195608787 -1.6261600145961927 -0.9231389063304166
Ni 0.3323911667332258 2.7290435009461 8.855534366544845 -0.17917529421400755 0.2540532744698205 -1.2911763830288927
Ni 6.879256274536466 2.941879892259644 12.260097493875048 -1.0947086202830243 -0.779744112150128 -0.5537791112760915
Ni 5.010100205890715 2.4962914606555726 2.691914975178449 -0.48861038788824235 0.02804816438646782 -0.05967916102818755
Ni 8.129274573989926 4.775097392857999 12.474276046803299 0.42716385054698686 -1.2549721651941934 -1.3611936927582944
Ni 4.745477592549943 6.9133222734581885 4.312448288357711 -1.660693015376056 0.07190604211168261 -0.5220172454834623
Ni 5.874516857110794 8.050100875439925 7.498013072768708 -1.4397648055949785 0.07767071250960171 -0.5083765147715761
Ni 1.7859973954046644 4.168255853441677 4.799468464927101 0.7641884238037161 -0.47848718341131136 -0.35824105943334433
Ni 3.831211859777469 6.244584483631695 10.690044216574268 0.6501669405792222 -0.4496761727168901 0.22808950341620718
Ni 4.6447739612939305 6.220674635485174 1.12691117738207 -1.4055254247961342 -0.7324317002174096 0.17929587895227184
Ni 2.8703717353029155 7.34510166082023 2.6366419002965196 -0.7657300572592232 -1.3727546581230166 0.22612723748351377
Ni 2.6981968450039817 1.817148459135685 3.289926843820909 0.8516830643822753 1.9441581673490902 -0.46444021839994204
Ni 6.57679485058727 0.4407382008342253 12.01051815999313 0.09757002253669003 -0.31324983943463475 -0.9841606974294276
Ni 4.003525117253177 4.045874697824428 10.959414668974075 -0.5062916072180893 -1.0901279428908774 -1.103515934162009
Ni 6.0729353886045025 8.503557787163203 5.216918547462441 0.30931836559071246 0.31154596936965057 0.2315108703929303
Ni 0.22044566358826087 7.703943097065546 2.2576569704564657 -0.15901501721604872 -1.335311939895526 2.250463971365724
Ni 1.4502448287236789 1.646597077044231 10.614195942506067 3.360700254970703 -0.6647517803719326 -2.5725262668856663
Ni 6.767188085828096 7.169144734356144 2.8732193318009216 -0.7850418702139577 -1.3059751386046219 -0.17388550656997798
Ni 2.208127978306342 6.484328678588529 8.1316803179701 0.5263860639751192 0.4042064704198651 1.8155929819824668
Ni 9.28443756152568 6.238892980427064 6.980709855890592 -1.4113587436484596 -0.6933226500310898 -0.7440985950323766
Ni 2.6668151693116715 2.2872463299856323 8.266270993265874 0.17710118529379823 -0.5267272493646219 0.09358455552638076
Ni 0.9529993177907016 4.001486507515375 0.3461780722269727 0.9904516726444619 0.8320583481728122 -0.9575448946141123
Ni 7.815088837928758 7.935754240554011 12.98488229232556 1.087089927395502 0.7901897329634843 -0.06321982719159436
P 4.191123335523169 3.746521923113418 4.344985791200006 -1.6483391217963934 -0.9276761320791378 -0.7868910076075545
Ni 0.8646657121382724 8.3608551055171 0.3248962779913086 0.5707748745031396 1.7944325458547676 -1.3129109464925066
P 2.3364035756541566 5.7078489804474595 0.5284085664859851 0.15473361623187543 0.9414073656223013 -0.33674637989467815
Ni 0.26356917790160056 2.1833971515776276 12.40232972712012 -0.8595958914714485 -0.12059245157379231 3.3307756994971283
P 8.026670700172884 1.0830552394796737 13.566976400951956 -0.5765961091706071 -1.0246532582268353 -0.4926830152957193
P 1.0382703965972027 5.918877373984492 3.5744863224391032 0.35627827928001865 0.3244361950687573 0.10734664230747964
P 3.8021455281765077 7.428942945466735 6.493379736845229 0.41850694620293727 -0.15888286251355863 -0.3730156466393576
Ni 7.285677570635085 2.8872064084770677 3.304980270206059 0.6626427044487297 -0.6077249693649276 -1.3688671501431522
Ni 4.971671028661389 2.2146127866578094 6.880978484663378 -0.635552533100157 1.3029188682768014 0.06320645745515566
Ni 4.651083504554818 1.5953643237240982 12.073784245453362 -1.366211200577544 0.6375862757007342 -0.4061571663883327
Ni 2.866986351711182 4.507338456843686 2.2412401661561705 1.072353649626592 -0.045223904834805984 0.4198094670644448
Ni 5.1908077387573694 2.375699853857932 9.916249764110459 0.08607230630973564 0.5745610810184493 -0.7285526768779775
Ni 5.546964851773272 5.040015189509223 3.1444134635906065 -0.2672394341427914 -0.7098008501917712 -0.41570650063966474
Ni 5.339284943914168 8.371721541133073 0.6774041873317627 0.059997977820187 -0.03586354666582856 -0.07927353822034734
Ni 2.6541960827898956 2.8387594476493154 12.131271195163674 -1.1647560119194134 1.3933011148158005 1.2434037436303038
Ni 6.089096674851689 1.6208515576858424 4.645166001628123 -1.8979652137327958 -1.6222323974070127 0.7150633841422911
Ni 2.0164802139961004 6.134582578096481 5.985203218947117 0.5038205199697775 1.968936916955667 -3.034411580074239
Ni 8.581190997811786 6.260127729822625 10.766540049029771 -0.03332586784563937 0.6997136411590982 1.5408880927005655
Ni 5.297110628433496 9.178558997858326 2.9036638004825504 0.010186710725014713 0.2202250130664659 0.28158798955497955
Ni 6.92760176610125 6.718058513594925 8.946665756511642 0.8913042783183229 0.31437855372243917 0.764086093897897
Ni 7.971785053385924 3.124699830691713 0.9851567721207907 0.11422845702897746 -0.7625436891114417 -0.8023178836855859
Ni 5.813210973321525 1.410496551075776 0.5465946257532955 0.4609031517809611 -0.22623573803692004 1.4956374483928823
Ni 6.250644965974391 6.27633513846207 5.954056767455322 0.3578983313819449 -0.11280098055383153 0.4862066635427562
Ni 0.2840087772546344 9.2920938786405 11.473788191495965 -1.5043236633129704 -3.172569808445936 0.6573434037230035
Ni 9.081748096508885 0.4936193684536573 8.916180700124826 -0.5095707921899933 -1.514690094148959 -0.7879978675184881
Ni 0.04535399320293425 6.253412309509868 13.630700942991233 1.4814004788578936 0.0955553060995064 1.1899775054903634
Ni 5.258829042859397 3.6409108693211603 0.5154693905619394 0.3911331821756748 2.0910092955090955 -0.43221786803112655
Ni 0.5123478270539211 1.6262847754938292 6.707059245489249 0.3910223676294234 -0.8171462069476702 0.06569554242559654
Ni 6.8159025565309435 0.8437095419919495 6.896072498753716 0.8220683268396358 1.4228549172135174 -0.012398887884985098
Ni 8.00969765982196 9.052580295644958 4.2656543540684835 1.3081960575153404 2.4511969371458493 -0.310047273336937
Ni 3.905690298795609 0.2776411197795016 7.327387894849641 0.14664672545868293 -0.26406283618702264 -0.31823957933974223
Ni 8.432695343698086 4.661747001644857 4.179450680490527 0.23507159116099516 0.09015598946080602 1.0983354184023342
P 7.058035891406738 2.4504919251434267 8.662956774806684 0.49086910201543205 -0.12094006472119817 -1.0104412283925115
Ni 8.123278662996391 8.187896134549781 6.933848582908668 0.756724254216187 0.602857099749665 -0.7528835403138583
P 0.8058172294085066 8.758937473095482 5.820249250380088 -0.8583941578538636 -0.062285488302783056 0.5136714446219283
Ni 6.8367867757453435 6.033371600525632 0.43387334397055183 0.46238102187806823 -0.7975829401037619 1.5942832204922543
P 7.744217169985189 4.838700171781714 6.409444362518518 2.016105347111354 -0.042593152080178255 0.03636979687828575
P 7.514887411200201 4.789930354208157 2.156723649687009 -0.48526769666825453 1.3927678680201498 0.26313235395295326
P 7.464604779160583 8.197212857785887 10.673477975723056 0.5262582801480035 -0.5295860589696557 -0.6397768555941498
Ni 5.75825153070695 7.121214344321681 12.287504341802567 -0.5477228777796825 -0.9376941784367722 -1.8233643983977694
