# total energy = -340865.7241709869 ev
CRYSTAL
PRIMVEC
9.33335070241299 0.00000000000000 0.00000000000000
0.00000000000000 9.33335070241299 0.00000000000000
0.00000000000000 0.00000000000000 13.66030218253164
PRIMCOORD
 96 1
Ni 1.0525873078247558 6.473052142447318 4.151747921372005 -1.4089624755021413 -0.06526513975639728 -1.3173779811249249
Ni 4.673908767531873 7.713407802496538 11.18844298779317 2.496382275433236 2.4279253682124184 0.668713593233158
Ni 6.230525020837182 7.334408424885501 9.284060482132016 0.419827979007206 -1.6867424041649401 -1.0972506699785878
Ni 2.697543726842588 8.359770348306302 9.677422953352668 -0.04209101563277912 0.23480728175601495 0.1009008866821359
Ni 5.6962000185259 1.498796144843704 0.31503232428537836 0.8513164250714758 0.7572325613111733 1.8426756971318716
Ni 6.890990259768089 0.22129748178660621 2.5654870791246873 0.394738640138746 0.8097375731884248 -1.6317516497513573
Ni 4.311718754785946 5.917867101005819 9.963278289573184 0.10769091302077584 -1.93429592984303 -0.46680229087421543
Ni 5.1717310347029875 0.03997567498819982 9.049035507928085 -0.7894330573031179 -0.1436606462471655 0.07568864908256642
Ni 5.620086542415426 4.5027257797523275 8.327826021717007 0.1759123071920196 -0.06524585648268763 -0.5679556598867895
Ni 5.660173284278637 2.7811518836785933 3.841085471950505 1.2966785437940445 1.9535442365496807 -0.6302614599045469
Ni 5.614374531700576 2.2938109695022133 9.452014130520487 -0.539186043953265 0.8499185162826846 1.3743883370716976
Ni 2.7233597752695125 6.955819714711479 11.792802654812013 -0.9669361060210251 -0.8246610272674765 1.0367369288642467
Ni 1.1050314062017945 3.613780112227379 2.585594850177097 0.006880529169917182 0.20528330415496904 -0.12409223719693466
Ni 3.543285313323344 7.128692038993294 3.5283062185582064 -1.586936807429512 0.29841328864243444 -0.3315465808612935
Ni 0.4486551082744424 7.4825660361396595 10.765479794379463 0.5844089203468064 1.3188283404182062 -1.2907282397478803
Ni 0.7398145877780464 2.0702772168540413 4.885347430824856 -0.055887298085923104 0.6132507842791632 -0.5966980221268047
Ni 7.330535084286378 5.56151043253568 5.363922461891125 -1.272930292334511 1.9488409175367403 0.7531015698619352
Ni 1.1800342135621582 9.017724915860912 5.431200054760179 1.7491027115697169 -1.7845978191525331 -0.7099036943182226
Ni 6.605128390201984 4.684632787648481 2.2294565821166428 0.39237759610573714 0.4781267147480991 0.3566806569247599
Ni 4.580845926293672 6.287794461599152 1.1706999293858145 1.007870896562174 1.2798643004501828 -0.05695507722880514
Ni 7.344115109760412 2.3291190357346987 8.058895783912032 0.47132229023175604 -0.31582222814750127 0.9852786130839547
Ni 3.2826794911336883 8.486731919799958 7.297128221620257 0.08674876355146995 0.015198047896677053 0.4497049690722965
Ni 0.03265179458306326 0.3896067308421282 3.2734730738638698 -0.3039164778488508 -0.2068226236176309 -0.07607945676308188
Ni 6.525729574595387 4.793431658405046 10.826418175357132 -0.30535603850885473 0.10008738964190506 -0.9949451896394415
P 5.6050505142101565 7.72624115990327 3.12560012981037 0.6200004442981709 -0.10701317022746085 -0.9068270565442706
P 5.023312089625275 5.636587906702773 12.267293411550146 0.1620779724120886 0.19483151269402577 -0.04075815575396852
P 3.3699183214469435 9.310773465574787 5.356204714080488 0.08739153934179143 1.0005458236556704 -1.2469395246977042
P 1.7076672033202567 8.188568693825074 2.5587110664139328 2.376155691839295 1.1662652494750883 0.6982828222498426
P 8.906919374673475 5.273744559397957 2.8604946991801428 0.0301307579471094 0.07343996225770578 -0.833041795132004
P 8.739488393932115 7.676121065885704 5.694461215264173 0.06401609784064459 -0.4890014526790739 -0.7737616693144481
P 0.708769996209848 0.41183970588109314 10.358593297789826 0.39469801670879767 -0.8171174105922636 0.14373957911421698
P 0.877323779057411 6.066426046346152 12.713861582576483 -0.47111968730264664 0.4037069050756273 0.5010329299223113
Ni 5.693717347202125 2.9614068884758438 12.221886659707417 0.8056744588626448 -1.3224584809716258 -2.489915693872286
Ni 8.293764891156913 2.0382451567668376 1.7174821550649257 0.8277468652816518 0.47086977607536973 -0.9194992526953003
Ni 0.9860125162740496 4.633486025038377 6.374293157190695 0.04460632585546511 -0.5224450770495002 0.10406334357051757
Ni 3.67401755855687 1.5957509933827108 10.832756453913431 -0.07449591432604588 0.5779076288931788 -0.014343927426497878
Ni 1.904143571879617 1.6318150610333384 6.9675741367609625 1.6891798099618394 0.3255168297274458 -0.22408629579408504
Ni 8.880711325511218 5.43238352364685 11.002239838504783 -0.720209961340237 -1.1408113281783578 0.32074434803946694
Ni 5.883977704101206 8.724303032113387 13.203488234373888 -0.562264008818651 -0.6132399856458859 -2.29257581293411
Ni 7.274889646570787 8.182707349496763 11.066948893222323 -0.5667798944111336 0.2126682837651305 1.6638601002501279
Ni 9.019330252205608 8.425663805245597 12.772860493249338 -1.1646554817858072 -1.2955482868443429 0.3503413449702934
Ni 7.118126685840988 2.2970963089983365 5.8164471774243545 -0.6505181532710539 0.05149045456980809 -0.9338323814885208
Ni 2.394732492148755 0.9522444529303717 3.403355050835757 0.7287128566049257 -1.193798936118983 0.9942939292086875
Ni 8.379958386175947 3.6237107975224796 12.388842572890956 0.16018692603696283 -0.8384305702477433 0.5511252185930122
Ni 3.532551959855896 2.7149504261615376 4.443914469431381 -1.7627580975696222 0.25322846457568 1.015387002433561
Ni 2.276068269552978 6.5654429824249485 6.006284733530326 2.5240776844659756 0.3352957634910806 -0.6429925343179701
Ni 7.14548273715672 6.474424145020983 12.524010959779334 -0.49043124314706504 -0.7761556234679213 0.9421182756463968
Ni 8.537113347641078 5.25175518481595 0.630304515687377 0.6602364090000823 0.6318719989247762 0.1448086438086796
Ni 0.27454891501141393 1.2028262563165146 13.23202495457104 0.4953860160491791 1.8619301744861096 0.7322841188959518
Ni 1.8592968210873635 5.438832869078161 10.247043888540341 -1.3602398134854574 1.3828724632833087 -0.7998408829000031
Ni 4.721415523313886 6.3311945430110095 6.693028955089885 0.5084647036100082 -0.7687271922143342 1.2398144836171487
Ni 2.159905384982659 3.610504106082097 8.83052496470268 0.33408117435768914 -1.1970493247354803 -0.858330908716096
Ni 4.333026794756542 2.3775684599516786 6.998446061338598 1.6511876469887818 -1.8405694494221463 0.4854841835544348
Ni 2.1838547632413317 9.242528004223495 12.074382383012148 -0.3387366708518295 1.5321358004292325 -1.1866121885625562
Ni 0.1068836671639389 2.121115978886383 9.063365001474672 0.6292296762059227 -0.20423737938895795 0.16603541439793987
Ni 2.895746765307581 4.732298210394794 12.966044988966987 -0.5431311446439421 -0.11844429488253792 -0.5988335804125686
P 8.73677238883731 6.105028785425603 8.995609541042546 -0.6657262284700599 0.47947551546650974 -0.7104104587513119
P 7.8157759945234755 2.372005782850288 3.7640825275048586 0.34703233520171844 -1.307420869912213 -0.427525861872096
P 0.06392225324162008 2.64377429264609 6.9716584110890985 -0.7798685535431343 1.9821421027920316 -0.5109399046233781
P 4.1647651457903105 2.120322644064876 1.9267442809417274 0.17299873308965044 -0.530134475273958 3.2579916256558663
P 7.627680975019566 0.42905973818321747 0.3197521998058034 1.3192955098626116 -0.21497816284522978 0.5333085021265654
P 3.1681966097147956 1.302319776284344 8.693949108507441 0.8708310980656357 -0.725854304110208 0.29024540811966143
P 2.544663440062753 4.756947589966562 4.396445047052734 0.03192230262989341 0.40197500998618513 0.563391694665191
P 7.119022687521748 3.4851012041789304 0.4949895951907925 -0.6304141834323272 0.040024620022053654 -0.5074961690491517
Ni 5.006390724550071 4.1548904606002575 0.24602712817560818 0.3027116589074722 1.005869806971745 2.296863898786502
Ni 7.1073279989176505 7.786571939741172 1.1221777050322728 0.02673278800915396 -2.050088388925017 0.2180341760627342
Ni 1.1140940898686578 2.5889221897520067 11.161272670159178 0.8470185690270703 0.25609910125525576 0.9035139330106375
Ni 3.5774267107006725 4.296393392704597 2.5090016398333828 1.6216662404908975 -0.8572721284342782 0.17706441851859184
Ni 3.3087008732791205 4.284960037924054 6.574785666617049 -0.10081552605718122 1.3044923834115083 -0.36938216365182835
Ni 4.966770650228923 0.656189630910527 3.6713706202582888 -1.8094213059541158 -0.7008104737677028 0.9107392471144832
Ni 8.186067355799617 1.2811144031730017 11.444860935460353 -0.7564612303627875 -0.44176617384119404 -0.8812985732558628
Ni 8.082765828688553 4.406825599858383 7.280463523693188 -0.016800102276474292 0.945623717696494 0.7357075427552039
Ni 2.3502310753376285 5.83844961869754 1.4531691259211215 -2.0480338203888344 0.7991022049617656 -0.0938061846188836
Ni 1.7388125950775408 7.943269567015084 0.20742345576107354 0.2525437798038296 -0.5707890155705267 1.825050784961257
Ni 6.876476899209931 8.03258973456594 6.773242572224924 0.5420854769882472 -0.9218608109489415 1.7482671030422987
Ni 9.299853445090513 7.5447728194966555 1.8514213396475083 -0.24984900658048584 -1.1117480922638145 -1.5451167860699324
Ni 5.287949919378355 5.615765200975923 4.14521830912346 -0.16100222284940657 -0.526479395019874 0.249487509476009
Ni 1.869731507327892 1.0901167115574613 1.2248286975897005 -0.16246338077596537 0.33163605525130624 -0.4860999627615628
Ni 5.162201683494062 8.049585766447874 5.259899466760033 -1.1770055187107278 0.08555859989811071 -0.40518220406957317
Ni 8.849341933333744 0.6568168320870595 6.454574907786875 -2.9370981536330447 -0.29210482992590336 0.7366663071240475
Ni 7.772805247250314 7.062341247862777 3.3828646123988553 -1.4354816048385923 -0.3589517123471237 1.474608652747041
Ni 4.019454206542736 9.005722226679051 1.6368597371630393 0.024465075020899802 -0.3208762456316409 -0.09182926339817088
Ni 8.124504573650666 9.070505014868235 9.305889323079555 0.27518645690400995 0.865459292230761 -2.0230630093761093
Ni 3.583614722308428 2.2907309637245974 0.01990337066898651 -2.112392646280878 0.1023594735055334 -2.6703950516096975
Ni 0.9153823837828161 9.218391958947997 8.104111202062514 0.7945397824020638 -0.47666992769691446 1.267656188419765
Ni 8.762383103545726 4.083340993051159 4.670170760519949 0.4970618610897052 -0.538338351240989 -0.8014465368242262
Ni 1.151464826637062 6.9087422930681655 7.881133717124481 -3.20057837784372 0.26900269669080124 0.7606125335269998
Ni 7.244108255496313 9.056420988448775 4.670457294390776 0.8413364310406284 0.8933418775736421 1.134699558853665
P 3.069020423675569 3.9052139922457165 10.808591475250326 1.3216542399027753 -2.2051307946465633 0.7537854833028373
P 2.955461543989961 6.213874322936374 8.342838716545172 2.482671610715363 -0.5800755830787752 -0.9452699339015013
P 7.943577567592845 3.131264540435931 10.257192974245127 -0.860030407905706 0.7191686645599162 -0.09343208910891651
P 5.6590812822302095 4.02036887492518 6.0750099291148585 -0.04067459490122673 1.1321446536422952 -0.08605790813203243
P 6.272114432185836 0.6530181582946669 7.235643839618374 -0.06727188577378092 0.4576401647589731 0.03372027507058064
P 5.970591199908096 0.6981589096384198 11.245994295750545 -0.8231170798191243 0.24766511155528956 -0.4286882576113133
P 3.8569699017472447 8.20602205989823 13.294575205238994 -0.8896911681949323 -0.2740070918839281 -0.3740037215842398
P 1.4413213703632262 3.1359032158040367 13.547358746088591 -0.5050821602910205 -0.8068990752983652 0.5372841989448618
