# total energy = -340856.02076864656 ev
CRYSTAL
PRIMVEC
9.32017094876904 0.00000000000000 0.00000000000000

0.00000000000000 9.32017094876904 0.00000000000000

0.00000000000000 0.00000000000000 13.64101228083389

PRIMCOORD
 96 1
Ni 1.4193409044848124 6.1752564811415125 1.5098966194313599 -1.655502472314052 -1.1550971486734107 1.0320816894804226
Ni 4.8997910587565 7.666288142140651 9.321176800176024 0.17913081412931728 2.051596340929112 1.6853581222229037
Ni 1.6693638158541975 5.5844508317079296 9.065885196053449 -1.208449596152622 -1.1304734365874596 0.9015889480737826
Ni 5.189480618556068 7.830024908969003 6.981784016047489 1.2566179283277326 0.5682415665583246 -0.9844754004563689
Ni 1.5094483191988664 1.5133255103988092 1.331469398830533 -0.6330225675894517 -0.2532526329453961 0.8526888799389701
Ni 5.789979245989509 5.58299688500795 9.614922498461688 -0.625766914468303 -0.3926002536395045 -0.6048293929846874
Ni 5.706647595704202 8.17447047429661 1.824034852201337 -0.2195063897328865 0.7540875879242884 -1.1085329277606262
Ni 4.460233146805297 2.5013568544034515 0.9225813740948394 -1.3741222278945044 -1.582164068631217 -1.118557401876164
Ni 6.593517802006492 3.8068052673899455 8.44228652441554 -0.08586558961556824 -0.15337375976987133 -0.16434105741465246
Ni 3.9041637752615848 4.61039974443385 3.0513038055162927 -0.8044680972593693 -0.5414709833326997 -1.7889077593817966
Ni 8.358264249447743 3.113496375607875 0.09080176746500544 -2.89817936508066 2.0345000475684576 1.7857064788356793
Ni 1.5289181567389636 6.0567784654355705 12.00274102787066 2.8728210888215298 1.7024364178614293 0.7265844974080131
Ni 1.0523498451363849 3.826508109208885 5.7877862097170425 0.4381159786831164 -2.0455817593039156 -0.29448027213661543
Ni 1.3222899622612454 0.8327964373027035 7.4300823845066395 1.3216264719886335 1.2099408359861676 0.7245741518462038
Ni 2.963311137637015 7.553383588784627 7.893372248266529 -0.023131958031773064 -0.6299896943003989 1.8670070747883847
Ni 3.390268178188404 0.5582419034396421 5.808806923737116 0.3462723171072423 1.183951868121574 -0.007257195783045566
Ni 3.136312154592153 7.549021748684691 5.737518798616631 0.35819786490023475 0.8154577635016538 -2.7849618658147004
Ni 7.5504384147000545 3.4152462368803422 6.113833757187228 -1.3377128360275348 -1.1398371371905467 0.5007709345101763
Ni 5.582689319359878 4.331875749676423 4.6926306825059045 2.8351251169326526 0.20816216836466084 -1.0684694840808373
Ni 8.978717363321273 3.654029021838355 8.065480392825142 1.3708929223239292 -1.0935837626499616 0.4284632860847008
Ni 3.036763406499392 2.873362165832574 7.365110539377022 0.12149542300403592 -0.5721455295984211 0.5388512863216656
Ni 2.689726833591055 5.195389607067519 6.682882399079595 1.3858498007440778 -1.3472557425209637 0.6100500179536783
Ni 5.589446443446317 6.557523301010869 13.220882737574792 0.3162503168238554 0.3084807001807655 2.016207419906857
Ni 2.0902907056691364 4.1041280473644015 11.22743979439807 0.3640376115104634 -1.8819001898501333 -0.580519098374097
P 1.5588731868269827 1.7219109408188062 5.278035292755915 0.7651132496108307 -1.2103025902009608 1.5377945413769063
P 3.7343688971833227 0.07841712403595753 7.887506132542385 1.5185367215885588 3.340098519559951 0.8852218195696689
P 8.83231611483882 0.8845876963867465 9.474788133062988 -0.7642395887566258 -1.3907402960671598 -3.2128831633530024
P 4.160207517196266 6.2073737909371935 1.1177345738481117 0.13003354238203413 -0.5106876794032559 0.7346395065020057
P 3.591453392712356 5.943836631394929 8.934713107236155 4.9979818334013535 -2.4676519973780793 1.609178392436532
P 4.364300625120175 1.8321685655671784 12.250816023468921 -0.3740050071358204 0.4365504339682094 -0.2645942832104604
P 6.808962878395619 6.204801423698769 7.400808658929956 1.3060180760274152 0.6918625205457956 0.2686879936638598
P 2.9854931449828417 8.348841556411342 11.456581794314689 -0.26932922679228455 -0.6598471439814637 1.4865205736932785
Ni 2.3240685587176078 3.8956451388270956 1.0624072418283517 -0.7000933930960201 -0.595057401199588 0.8428220144472194
Ni 7.6990578639170915 0.24549890029137514 12.733352972678336 0.3578561652900998 -1.0386104917378758 0.8843497013773608
Ni 2.2526294468244314 -0.03309965583528051 3.6421234352066074 -1.2592491953029925 0.4985497584891414 -0.9537923695502153
Ni 6.296856754183948 1.0392456844942708 6.002809082352906 -1.6807507053578798 -0.39829113337669464 -1.966632951412839
Ni 8.65976246609906 1.245044383739309 6.278057968966918 1.3865275435373927 0.802727974639811 -1.1769186154238762
Ni 0.6857278645656444 2.3806140371071574 12.891862055506571 3.9883592442553963 -1.1440910273708942 -2.274502757482483
Ni 0.03542317450390005 5.200525021373213 13.373866822943109 -1.3372364106117487 0.3393393374328349 0.05665040150419277
Ni 4.117959181356505 3.5018306268982946 9.736122936161628 -0.35931552344444573 1.7471723273162232 0.19305796573337075
Ni 6.530420243295884 6.756434393773317 4.797216983107245 -0.6683492679152038 -0.5164654624272977 2.3021130630005837
Ni 6.630369758748255 4.779178723856357 0.7946424526507669 0.8708886907764486 0.23500859913354363 1.2073067407974303
Ni 0.564831264445314 2.4724829641692625 3.6728287390725005 -0.23697009373528863 1.0983454457046633 -1.486605677207917
Ni 8.452882627000191 2.246860260880286 11.01090239394973 -2.3376559931022 -3.1515780366856174 0.37148069805206996
Ni 0.03752766915040743 7.657955909129236 12.500078408872163 -1.3396172521390992 0.3672350354018385 1.3788821111769929
Ni 7.128896393588971 1.5023463487797406 7.983184213555011 1.93455561126232 0.3904996623567339 1.9222094309921411
Ni 8.877742629041995 5.339572654815391 6.334231572527435 -1.206941901258844 2.260862283880913 -0.09491715829487524
Ni 3.2394305282367846 6.901586739321174 2.8962049733131985 -0.7307777095537544 0.809001980573981 1.1491345033320723
Ni 5.178939504981224 1.6056418056762924 9.165382683204863 -1.9693387803797762 -0.6946673369844423 -1.0397453766732674
Ni 2.3145433437985177 0.3285462853564951 13.140633267890014 0.54828954891643 0.919812670170661 -1.2392280149860593
Ni 8.821672479381284 5.975459972119464 8.740642911370943 -2.8810303641051993 0.5934867142783585 -0.9812689777039294
Ni 4.939960996428983 2.098837302617087 3.955307282450445 4.120249123119878 -1.8170700807486255 0.6343076049494624
Ni 8.926804009995116 4.165212449105807 11.03532031035533 0.982156008294573 4.602603759906396 0.01659132869977788
Ni 0.2165802732356483 0.31139810245078675 11.29960121955566 2.3299113161597744 -1.071934302700986 0.4795714176144257
Ni 3.883771240777271 6.20007609692384 11.542602313977842 0.7284122946453713 0.38067007786082185 -1.1490378298532082
Ni 0.5288861603568062 8.473200600115275 1.2884232563400146 -0.06270303545617588 -0.39601313597579535 -1.0428834080816167
P 6.580553443931683 3.4423213340818655 10.673410608319905 -0.3899476465080059 0.7595285564342017 0.29180221108382004
P 8.702616613063812 1.1612746854097766 0.7648244290787072 0.3719152144863272 -1.0626420787657826 1.178775466126957
P 6.3106599276625905 -0.015582394151885308 3.9801063938562327 3.411121130625416 0.3720237150397335 0.09583812744724785
P 4.026500341825163 5.915876117933805 4.84954322001551 1.0171677484830675 -1.1891812348413133 -0.8786439092418351
P 5.286018951366181 2.582190698819566 7.111128419301541 -0.5839543493078911 1.065685236467481 -0.008740979417423656
P 8.054184345386847 7.024920564198198 0.7698806219295941 -0.031162027425101168 -0.9635877583740824 -0.4631351264352733
P 5.421580840796873 8.082452424496045 11.857054636515697 0.7802701598569272 -0.6836283055614614 -4.428208660689852
P 1.3797208569103974 4.493198592175965 3.056295689186219 0.3419317807503595 -0.043599481857505555 0.288840814462651
Ni 3.132863691265281 2.126825776591674 2.9803018096502263 -2.945233895366302 0.3287813594113305 -1.3692415027634355
Ni 5.012956576904829 5.2396883805610965 6.775450338978228 0.44109254481293714 -0.33801033420876625 1.03652352730186
Ni 7.969249625663101 7.359784993579792 3.051275845002832 -1.4628404564675193 -0.04921245716890879 -1.2030405093219088
Ni 2.350668327190292 8.913504125758774 9.586180954657882 -0.9393517686448531 0.5750812151879774 -0.03700434513849111
Ni 5.122608390528209 4.082039241730112 12.965127920945875 -0.3557938834444324 0.24062363132747594 -2.1738276136579078
Ni 5.75869143142651 6.256230128124933 2.7907192761955253 -0.32554922562727806 -2.430207736488692 -0.3982340548865142
Ni 6.582510679873962 2.2972544263083883 12.746666837171407 -1.4579000817431085 -0.5104133426959467 -1.2177040248713542
Ni 0.44075462192733833 8.194136035430935 8.229227411841762 -0.31183547558561137 -0.2022730565737355 0.19158318096005716
Ni 8.723810682267345 4.53779561114646 1.8381949882351662 0.7465496276760303 0.39882977948898407 2.584796599612587
Ni 4.399558832594655 8.774559014199289 3.798326707691417 0.1625212305970943 -0.3322832019170019 0.6302648023386566
Ni 9.126171791144095 0.289287860422844 3.183485268869534 -1.9082619676731134 1.7390453273337148 0.27791388313750204
Ni 7.480127043516477 2.1006174553074453 3.8761482727906524 -0.652984098313043 -0.01534537210781873 -0.3131698781263187
Ni 5.337727260926957 0.09407314753995714 13.314200951251298 -1.148791518170357 1.8727732878482004 1.597721556749842
Ni 7.4563046860475986 8.508328325193602 7.943202543339833 -0.5198099534194983 -0.6335427017589799 0.3298514525470577
Ni 3.592767536845029 3.40599130692471 5.029714244639196 -2.8003661161849127 0.18285171462433022 2.317175099540029
Ni 6.543095676064928 0.649992464328095 10.638270767019078 0.4251056824663776 -0.8921198322410828 0.5822713051785133
Ni 0.9208748507565954 8.645828810224266 5.499606517644374 -0.41118161618611765 -0.34640292914783566 0.7079565978941808
Ni 6.936537381147581 5.924674359502905 11.551004448272908 1.4347565537471099 -1.5435327294122643 0.3775927244870787
Ni 7.4270113881114925 7.7142031420418675 10.152787711707978 0.38317870321528846 0.41776235472742895 0.9602118999233141
Ni 7.796798498806033 8.536661645500878 5.662902440377156 -0.26546408740992344 -0.610247221566149 -1.3289967963107756
Ni 1.4915069897279776 6.058437455900931 4.821989066016687 -0.7191606941401163 0.2922063885007742 -1.9698440021509687
Ni 6.55043997093405 0.9802117204066808 1.546126920757171 1.151772712285868 1.6233819376304235 0.6389075656153191
Ni 2.7900491558895735 1.5832361142227769 10.562959124011536 0.1587411947293718 1.3718084921596632 0.9761067167766997
Ni 2.6221089918708995 7.608307357393431 0.3531030723122864 1.2851916262003673 0.02268458608170932 -0.7483617411841047
P 3.1411400032497743 4.704635994968997 12.980091455733154 -0.45456126872333324 0.38805660013288007 -0.14749133284716534
P 0.6191082131760511 7.727791951583974 3.4422682091062895 2.7329335364635514 -1.35489474712346 0.6037287037213409
P 1.4775453733397221 3.2649864375402533 9.414221932837727 0.3030993812641941 -0.7762240148120116 -1.2106936549917922
P 9.300272588295371 6.3126264837760235 10.737714197177802 -2.147028491187193 1.1420467432473558 -0.437329221115763
P 3.917500940182542 0.30856477042005936 1.7730041190834367 -0.8464878933345807 0.04905639120701874 -0.4533132552488451
P 8.031014399898728 4.311175649544037 4.266717501123732 -0.06149950206637795 0.6459878695008682 -0.6057755589480406
P 5.891494550195703 3.1408044770882406 2.240713608004415 1.6323679431791178 1.0416081409136189 1.1645541803212525
P 1.4366577824884028 6.735044600975556 6.9720304569351335 -6.1285411448344 0.07857754059458726 -1.6817706619819617
