# total energy = -340886.7617586647 ev
CRYSTAL
PRIMVEC
9.12377905696577 0.00000000000000 0.00000000000000
0.00000000000000 9.12377905696577 0.00000000000000
0.00000000000000 0.00000000000000 13.35357289559502
PRIMCOORD
 96 1
Ni 6.3401324163512385 2.1360318158803726 11.23130285928377 1.0704731447744273 -0.06452363360468243 -0.21481438357385585
Ni 4.697906902323758 0.48126657971504605 6.103290969130858 0.8418267404134857 0.42865997547653917 -0.6421199019050297
Ni 3.013118958310064 1.6259851870445323 4.611229175130829 -0.06940564428733208 0.03177703530128076 0.427291891484419
Ni 3.541905829630723 4.834635857473461 4.853636127665591 2.2324875893929614 -2.4683989028464324 0.6231623869659204
Ni 3.806276455843043 2.6364984765521142 2.488732485699448 -0.30700951495187767 1.3925169283516083 -0.6187254342404893
Ni 5.432051795965886 4.541954144391427 3.174945605293867 -0.14006495847610717 -0.7846263799430939 -0.7288624948089125
Ni 5.9871425227314 3.0747683343908423 0.23681316350484843 -1.274697668647579 -0.5273188602020338 -0.2236047281719762
Ni 5.896068958718031 8.011097834871016 12.319552572364453 -0.1898399730167053 1.2267093136937584 -0.13940264230175992
Ni 1.6274632392755648 7.1073875047243344 0.06788639154456748 2.0639728602165937 -0.1899646715200277 0.24338422479174857
Ni 0.7710432814985568 9.541922004818831 0.18399925520513027 -0.7795618209359929 -0.8014503934789682 -0.9275257225442025
Ni 8.253790361694861 0.25343121494683907 6.664635134162728 1.2029849734936249 -1.1073468778723252 0.12903826834830034
Ni 8.825522861728295 2.2828790421672065 1.1655892522584166 0.4343243728511681 1.3674712982368902 0.1575456317593738
Ni 7.048009949665327 0.9154252626444954 4.654588111041542 0.0283078458057577 0.7951041395459663 -0.9206066268268662
Ni 1.1299253117282764 7.90278032816227 2.222742388678435 0.08640243595564476 -1.1520269943885193 1.1169149811767345
Ni 8.273470353437682 3.9569465456163124 3.8003332260696197 -1.5419149913031833 -0.03707736446827163 -1.5984332381048858
Ni 8.032383611753724 4.126201773627934 12.742874030355507 -0.7664221982302414 -0.2443995534301404 -0.1833404813352907
Ni 8.58817686951794 7.552199112252262 8.71902828610449 -1.745596241078355 -0.76883903520185 0.2277768572717948
Ni 7.04757200826354 0.7602462011886569 0.1398492876374392 0.18570512491272534 -0.07634967970533302 0.3266139194463665
Ni 1.874498685000467 6.998084629861565 9.105361030824994 1.406266673837533 -0.8874514802311361 -0.33936787667792523
Ni 9.744378665353459 5.34044905275869 1.2895248442084066 -1.6470576839808087 -1.2800339932588278 -0.11486120551696993
Ni 6.586036513454856 2.2092318964332938 6.866019750640897 1.1498824372416907 -1.8262175515758483 1.1238919267151999
Ni 4.039498499853235 4.731774370728648 0.7721171503108563 -0.3012173337501329 -0.41772353106969345 -0.15888491939608768
Ni 6.614502704571037 6.04145638033224 4.584602337902155 -1.3712590474140964 -1.0476677168441375 1.3216105311490336
Ni 5.269137594500977 3.299623872871055 8.923792350399784 0.29335130073849475 -1.2073936440842818 0.17914495519670437
P 0.0782154219813071 5.933558567466872 12.474467044223378 0.4564757121372267 -1.7106788603758796 -0.5067492635807982
P 4.303166595066854 6.07328924597466 12.366209754457378 -0.7788671088618135 2.236893174659825 2.0571434959995862
P 2.6982299666457283 8.842639071514819 0.992283978658182 0.19631863876251351 0.23388065617668752 0.6376901482684502
P 6.754105650169971 8.233052011564387 5.7261860146971815 -1.6388360674019649 -1.8337771090906612 -0.17470825958158945
P 4.868822658150489 1.3676180075483813 12.533116521701913 -0.6946020309641457 -0.7859296721355497 -0.08091081671345421
P 4.217859259510353 6.639666087615404 7.800208977596141 -0.5495943837707825 -0.17451182730006717 0.7590233346630089
P 5.095110629965714 1.2940803471649156 3.4129193135134517 -0.0363541131490019 -1.5778762398891406 1.5069505594128563
P 0.31458425743892543 5.853707251874305 3.586917081955263 1.3100817045738276 0.3557553168970132 -0.8993670007217994
Ni 0.8586178761872285 0.06278893610334635 4.8005558050131185 -0.06068086281982453 0.5999764357677603 -0.6808718258622467
Ni 2.2196877474009677 6.617924121772501 4.843207648035529 -1.638129014032611 1.5986528103148596 -0.4623887351875521
Ni 5.823169962878838 5.683904597110449 9.150122291599347 2.808661780534802 0.6128350368979832 -0.2764334419372336
Ni 8.76834413745743 2.7090051498855385 10.134721311034081 0.09045757986162485 0.09228306310613785 0.225873726711811
Ni 2.554886271573194 5.278644572431445 6.897307014286924 0.15223193285594427 1.3429406600853775 0.9459343069583775
Ni 0.8883823810841242 0.1242476251987635 9.013755550484037 0.5287576495310894 1.7000576332166075 0.3579800924624738
Ni 1.64177844884649 1.5748007857106314 11.28470433896422 -0.5490197422142351 -0.8789156748459831 -0.11289893958427655
Ni 4.43230456591891 7.437348979633519 1.1457943008976266 -1.0925375807736346 -1.8588597630909018 0.36617754067160163
Ni 5.956961061124885 8.186611975416517 7.890933100866 0.25653207502761627 -0.25503389321553493 -0.383725576857694
Ni 5.347027297564705 2.6882485521966575 5.104056495475142 -0.6395971354831759 1.3634536924370648 -2.7616640716290246
Ni 1.1899324075523525 7.5788131761900495 6.818507670436567 0.07895266454581887 2.2880221321251564 -0.713745693772132
Ni 5.1079386635264035 5.007394616699382 6.797543050581837 0.8865184268939055 -0.7504039684251141 -0.44494534290012405
Ni 0.7701236045548031 7.519152783975723 11.272232132792483 -0.30870952836211996 1.2156440570185323 -1.2958272515373426
Ni 4.948783459093503 0.2827249328368133 10.155325541610257 -0.02569097700820092 0.4686372872004252 0.39832070106304945
Ni 8.49635515560985 7.232027452428865 4.939940692289079 1.3979247296307409 1.5706568393225657 0.14431396356044823
Ni 7.355526927732909 6.048600299448896 7.028519732529948 0.49540427088162425 0.4496910851152256 -0.31582865590540443
Ni 2.4614770200836253 5.7393406795533695 2.514864814095269 1.002960860855066 0.09773534446996071 0.3395900199910603
Ni 2.526182862197712 5.898879082712833 11.324858091240602 -1.6036368937930123 -1.82360942452904 -0.06508464831447501
Ni 1.782759085105213 3.733140241744549 3.8753133559452224 -1.5168475068115943 -0.5427958727917103 -1.6918565854630538
Ni 1.546745164658627 1.1362754620541935 2.4372944433036783 0.6156773914427848 1.0354490632907587 0.5445277678811526
Ni 1.1452258894532232 3.7307315640347185 8.043177954929863 -0.7619600486938297 -0.8735338417087795 -0.08135150379529861
Ni 3.974272602324526 2.9294265316726533 6.909259165044038 -0.08918051292141416 -0.3342159001633406 0.9239405762961056
Ni 4.664513870437469 7.2434413002129485 5.598098190831494 0.04793179068427229 0.1049002376495161 0.7686639430765665
Ni 8.46080891183144 7.534124905649327 0.3166361953818834 -1.19850842577951 0.7231394762822062 0.03674132128509157
P 0.5012878008000928 5.883313915390973 7.683578795654717 -1.579914610475408 -1.6473561890578339 0.974134166431361
P 8.93474362257823 1.795213043718542 7.857883123077778 0.5727283986850846 1.5694167962678778 1.043443651460461
P 1.846689405986968 3.6132537830052516 10.231027362420887 0.12807179066997298 0.4855032097178283 0.8416583331564215
P 4.258259353825239 6.318956124818977 3.6807651872245386 1.0782234781438076 1.8764144841452135 -2.1506372915843737
P 6.866656590429329 3.9698293218522247 10.243765982945378 1.0963029613533377 0.8593878892257006 -0.4383628045865999
P 6.675887491054902 7.833485225108619 9.936927814050568 0.12636637794309205 0.6973754799442247 0.42178458851294454
P 2.768400952502953 8.724440511928245 5.70737095722289 -0.3996821001869504 0.06400375654547041 0.34397760753579465
P 7.010146265969126 4.311222892103902 1.6211906410728807 0.5774193764028507 -0.329689987268529 -0.10806783674422034
Ni 2.7189956881138135 1.8537877062076054 0.21157040358140747 0.8871984836800656 0.12580870566740912 0.056155978366277476
Ni 1.9469141205418525 1.5473199627484726 7.0916818312027345 -0.4800691831864506 -1.46554937075825 -0.5566304646819575
Ni 7.42360856815244 0.8278543174675052 9.068063933817356 -1.0862692312664195 -0.030141042359754542 0.0701836601039372
Ni 3.0285655165022733 2.1405298390278977 9.217878213101297 0.5169120630464129 -1.1360982389734047 -0.4013152649149992
Ni 6.742399841451362 2.199378214893078 2.369752018235098 0.2447312257379463 0.21194606088712528 0.8563100216313253
Ni 4.351549996185156 6.975174820280563 10.319548093013005 0.24850843339219142 1.314593219290936 -0.29895296319598835
Ni 7.307389868653112 6.4080589525243035 11.379714813704073 1.4241726075836763 -0.9590574746038968 -0.42798506089670163
Ni 7.527428051713663 3.8922680748398375 8.144170891693717 1.4813557416628875 0.36443947493457235 0.4155612333110521
Ni 3.5047081818164068 8.2022318854136 12.259741637793262 -0.8310767009858332 1.175826153690646 -0.0396096439718221
Ni 0.33724772498142275 5.195627305455123 9.837417491407349 -0.5088372564580785 0.3345105485856239 0.7541089280805271
Ni 0.16909373711971243 2.601079965682559 5.578615272719477 -0.9125066234275511 -1.2222988433308886 0.8029593739243268
Ni 3.661180995163359 2.9681296030556137 11.452972374065979 0.7249058241540096 0.7958279050858681 0.365702400807396
Ni 1.2710975473502817 3.784726089363422 12.66089687420843 0.6594360245859741 -0.01827617260136852 -0.28129179847079944
Ni 3.5679815905954806 8.701968643749028 8.201710917621057 -1.2925539801027095 0.1254155839940485 -0.49484968392973483
Ni 5.859090281604608 8.169805974122927 3.3104839072574612 -0.1355632139510117 0.13580361209659192 0.9987581356276283
Ni 3.412110946675986 8.499101413150226 3.597025316935268 0.09406303782469606 0.024872851982279745 -1.0632915394243236
Ni 3.6907694111216194 4.948582735951017 9.203896933849236 -2.43059108797004 -0.7282868248111005 0.18740359566107082
Ni 5.671505381172344 4.729621158836527 11.852043739310975 0.2951888681678658 -2.7673166419291113 -1.6848544431136079
Ni 8.26853438888837 9.05295130594401 2.637344250884316 -0.7411353986389946 0.02495049929775058 -0.28840938335218713
Ni 4.791033316658004 0.5807814642478668 1.2676496711891265 0.306322259076866 0.9939116061686043 0.13692872683997062
Ni 6.245628311357202 6.011913583269998 0.3008812534525821 0.6573608872245001 -0.48869729117509386 0.8432814705821413
Ni 8.064152610941719 9.101042746127787 11.337931554461875 -0.06909171259133907 -0.06479077122314003 -0.12952497817673175
Ni 0.20499124639747238 4.991336765300511 5.65219399010936 0.5226209405057322 0.4919798185811076 1.0731087826250616
Ni 7.492839804751663 6.228484730233066 2.4527574242984547 1.0968146108824335 0.1777853558450164 0.056624947582896025
P 8.910282770532563 1.8547183316864033 3.535451668221882 -0.3756507702693595 -0.7353984961552174 -0.27011701280090256
P 2.0116838291103663 3.5378913667810057 1.5486137146395862 0.042631204406965294 0.38449510803386683 -0.8070145178303069
P 5.042439052621576 1.2615631980822022 8.088726597849513 -0.17726393612390762 0.2012073343133825 1.4768665955432823
P 8.649123714600018 1.8869800149514078 12.28189508607826 0.20108854934733109 0.3004622007516632 0.06866645212846238
P 6.587806526620414 7.9296498579177666 1.3322095328359507 0.12381738626899322 1.1702604866774104 -0.7374378951827493
P 2.178074190451962 3.386016938152821 5.939989919427704 -0.5918607486391614 -0.46464642087347724 -0.05943824866197505
P 7.0889665945116525 3.9704953577341096 5.776875907198231 0.12896910567326175 1.9463793433701253 -0.3905523699715403
P 2.605650979063715 8.679040586609618 10.25547726593151 0.3727834760238935 1.161136155778639 0.7103857761609637
