# total energy = -340861.2359802991 ev
CRYSTAL
PRIMVEC
9.37943873019226 0.00000000000000 0.00000000000000
0.00000000000000 9.37943873019226 0.00000000000000
0.00000000000000 0.00000000000000 13.72775666983426
PRIMCOORD
 96 1
Ni 2.1807288241475327 3.081173676323701 4.99671107094921 -0.6073146213003864 -2.453000051792859 -1.216989772413149
Ni 0.6373253406125803 6.007417787969104 7.94079299868041 -0.4489457223087688 -0.05038488021045516 -0.02027623375053282
Ni -0.03432968275088014 4.541055136154373 5.328991747972804 0.23935684879991037 0.48052581110789505 -0.4040005250566462
Ni 7.352138502242195 2.9960177544376214 8.329687028376346 0.5005932712817314 0.1452002228201435 0.47266029231688916
Ni 8.576427226536513 5.059119040709471 12.092437298079048 0.822488187985874 0.8754274591870667 0.2301021629708618
Ni 6.356595523399767 3.6423173417800845 11.01542639255768 0.07442623743037505 -2.034098955475297 0.29252391974119296
Ni 2.9786095166338367 9.105146173195651 13.409286072989136 0.040659939613207394 0.8156117725810147 0.5904199024275767
Ni 8.147805647249138 8.20780591515367 13.342995015701524 1.3664107181828595 0.48906418759620934 0.7470373659457262
Ni 4.84745325271485 8.425221298931547 11.721746882569311 -1.459980361310905 -0.2424018062738212 -0.027989029013758247
Ni 9.152943791648285 9.142982827991164 10.419929595754237 -0.10997276707641705 -0.7608827564692509 0.7676501571000715
Ni 3.962446956263374 4.653383291293451 7.671111631961904 0.0757794090241598 -0.36871290549894564 -0.349810669277804
Ni 9.174103804840817 5.31689414823179 0.7231875342155918 -0.9819343792020703 -1.2347206140340092 -0.1327447706656101
Ni 4.168231836336135 1.42827275218048 11.886136548890335 0.02302679991247647 0.983491696386861 2.380247345410165
Ni 4.774828260627185 5.688029149125092 5.777175084137105 -0.864271699680563 2.7891085409932224 -1.325834339422394
Ni 1.2733713258175978 3.8729108366109326 11.140307988147503 -0.501286183583698 -0.19236119677666227 -0.83840820165024
Ni 1.2218969674839921 6.563824836997195 10.417980548439782 -1.3590666191129626 -0.539052346588878 -0.27178025943593836
Ni 0.2842260619568307 2.6232225929347988 6.955854412974275 -1.0741925026075436 -0.322809972319244 -1.3594702823092846
Ni 9.019558797139867 9.24761984358331 3.3744330754727874 0.8376484406660799 -1.9509751902709238 -0.911642989875675
Ni 3.6867852595752053 3.932038816737582 12.068221463832382 -0.13962607116647566 0.013003354238203412 1.4167868566425665
Ni 8.196053478748421 3.2103473029582528 13.253078090847124 -1.0080259340827995 -1.1291410909292812 0.9149129188761984
Ni 2.221520002061682 8.930529167164904 11.023223519759343 1.1639885376257697 1.5850257064497282 -1.7161385979388701
Ni 7.533640016111292 0.2872640620778684 8.206727279729407 -0.3787713181762122 0.6786051413152572 0.775714936386077
Ni 3.1569876774918018 8.274718829211968 8.858356264011583 0.6106290303856 -1.6123097389766619 -1.178567463881209
Ni 2.24436831417915 1.118150998546672 7.918279532516388 0.7155184694018387 -0.5630829051755206 0.3344655542803014
P 6.086327003832921 1.4745415221621996 10.592789832959204 -0.784768819058229 0.28743699213658885 -0.8201826797811488
P 8.940227506544815 1.0946742640515892 13.58802159045288 -1.2712433915503913 -0.09404118344782512 0.2868379251000092
P 3.062264728364418 2.2851782509702425 0.023871608854748518 2.1859999873543834 -0.744931375346317 -0.5299131032917713
P 5.2763562151563805 8.858194937669868 13.844579246861551 0.10925414374283765 -0.25305902887735127 -0.007202174175394049
P 7.896521111149351 3.768592721926829 2.8707206497234927 -0.5322762042073091 0.5450630715593322 -0.3153835979481859
P 7.620568651868554 3.805097496459335 6.143322099651068 -2.0499145823513145 -2.6728280865312226 0.9078431565136106
P 5.430891843418861 8.770834847742899 7.822240648171402 0.22797843175963964 -0.23050196951244173 0.9944466527364682
P 6.300797243930631 4.60188079464443 13.28186546340498 0.305440627802861 -0.6256183047055807 0.013985772756130752
Ni 0.9918099623306246 7.90998060535648 12.430264037071057 -1.583217963817028 -0.9095737660514721 1.8972841285053712
Ni 9.094275404006758 6.153680751499398 3.343092619762891 0.9874733067424284 -0.28323426690915093 -0.4233434483596322
Ni 9.40110497473694 1.569386403989718 1.920155830129056 -0.7000532838867041 -1.3705887608199494 -1.4373083736346859
Ni 6.289767024287715 6.962310280474462 12.928951897630972 2.277300374832278 1.7634834057714213 0.5918895449945677
Ni 1.1866396582682444 1.4093825630981403 12.26684889440726 0.5639143999378804 -1.5676311651223647 -2.4845492873540502
Ni 3.243109681540484 5.337256909154213 9.8631042237703 -0.1360121285629722 0.9556854728078702 0.5352196031063491
Ni 3.5937318504958133 7.497266553717392 1.4916027207425258 1.8696679094499995 0.2549469899286835 0.2826817368397906
Ni 7.051086665610682 1.4801222880529605 6.39414141560265 0.1725516182499028 1.3100271971868085 -1.8365053066551016
Ni 5.288408793592731 1.6082547970171348 8.009472998946809 -0.13884779823955443 0.924987272393065 1.2842336331624722
Ni 6.800702555604194 5.768879908752586 1.5003481091736945 -0.4881704721373463 -0.39343226262249664 0.7195851832720446
Ni 4.5608832690839 5.978397805337149 -0.06975207008373278 -1.181264808207714 -1.2370780585225922 -0.5234565490331502
Ni 1.7425495970573255 5.584433251203322 12.750683476203127 0.27799821532119223 0.11960180552574885 0.06094825754859826
Ni 1.9794366951027966 3.462166467050936 8.322658077185528 -0.20568105381401997 1.1614544583500062 1.538737622016466
Ni 4.041487484265797 8.148837385481043 4.519740362227056 2.033156903277002 -0.44100332753324045 -0.8674590962696093
Ni 9.437684784777222 1.6699527432850754 9.1637573462625 1.210137011157374 0.1647444635006582 -0.7265135349607618
Ni 4.237498989450872 3.2405021976453052 9.922133719792997 0.14129266023562118 -1.1861542750895313 -0.784940568749403
Ni 0.4242985960956914 -0.15371867917157991 7.062065298342001 -0.30031539076115377 0.2664544763476508 1.2220854417685019
Ni 7.3813273147666445 0.21503582023756276 1.7072388250422879 -0.27521268215625505 -1.57378792875238 -0.8832538972100208
Ni 1.1657891665452842 3.012506807271164 -0.04485528860400921 -0.9622752102102461 2.8607119642628214 1.4873757226047222
Ni 4.863285744855362 3.5325497733438254 1.002914279537468 -0.23110412187281487 0.2415610555400807 -0.35706786506084953
Ni 4.7995337015620825 0.35256465066285314 2.050529086944159 -0.729719186382253 -0.833627492432145 -0.3631516093610843
Ni 2.0911833250566194 0.832505827549048 3.2488517737729614 -0.5945784046806405 0.9514467521361742 1.4108604638558024
Ni 3.5149351878936597 4.133687364444249 2.93603718335388 -1.6551990821410205 -0.05787347527801646 -0.4782727534076602
Ni 2.4016146001599985 9.28002580350361 5.603519470549724 0.2843077024789878 0.7404062337824538 0.723630814096328
P 2.8880885559418488 5.280867725061349 0.8874515160610915 -0.5425626737349817 -0.8517727958826041 1.46142583550818
P 3.079719863360562 6.8922177367741995 7.024328065594293 0.528093019363897 -0.0587021418268989 -0.5085948014299693
P 5.4990053256015585 6.55897566730724 3.5783589508404234 -0.3442504015812071 -0.18725190057455493 0.4587323693818874
P 7.9642125186008155 7.063955255194084 11.37474986658336 0.3625594843030401 1.7429598318967723 0.22052223259191053
P 0.9977471468833163 8.144372772768435 8.921256654291618 -0.3731094919047445 0.5058977142137803 -0.401232989613838
P 8.493691199776174 6.77902667329571 6.167249047192801 0.3718491371350822 -0.011926833344573009 1.5313328449119628
P 6.272236853783796 -0.034026726888238844 3.8292889441659743 0.02686648537354083 0.849907460539091 0.4802465893045794
P 5.50971664433643 4.848409955438981 9.203746582187305 -0.29308570578193394 -1.193991768856079 1.7106940298845312
Ni 7.275724217011895 5.674766623125872 4.821475959923168 -1.216057747517183 0.012566523811100938 0.13490115488698057
Ni 3.8993608531015975 0.8313793569885767 9.845780400912762 1.0955995075284097 -0.7727553395371207 -1.8275110735762914
Ni 7.833209901464249 5.514143739295151 9.97041437932693 -0.5184986908072425 -1.2940935566756875 -2.2848432201765423
Ni 0.7912766298582625 3.4837954521670613 2.317492292393519 0.3012702984752553 2.033602989675485 0.13041792230464636
Ni 0.7849483227212939 7.72408951428255 5.13416674175442 0.30554578592215764 -1.6485229556724255 0.4341927323693103
Ni 7.463256709818402 0.5431623439619666 11.949791983967353 -0.14694265943254695 1.1417690641059368 1.115902223641504
Ni 4.683613221488279 0.5520024647217012 6.107122156868898 -0.04839278948109085 -0.20468809377313135 -1.1756387202701881
Ni 5.337528912869897 6.956391854798714 9.38071126166756 -0.8483498862439841 0.7136901579438483 -1.6206709664571637
Ni 8.191982802451632 1.9867807954262684 4.115814844436106 0.4265550133183944 0.3775482444023885 1.1196501207197105
Ni 6.212396036333285 7.655347609722237 6.0835647592029565 -0.06593414079896387 -0.20037301133754523 0.16527925295820567
Ni 8.14700839497903 7.582703858757628 8.735671332911869 0.6823301555753282 -1.191536365337051 -0.9218451272196576
Ni 2.031970929983723 5.304269424048657 6.10163049564362 0.926818926285165 -0.23367136837935884 -0.46782173327766524
Ni 8.214681043553549 8.802152792800461 5.464759119853078 -2.6778052280308398 1.4190777095592721 0.01992450683806891
Ni 5.351916971485741 3.5772896948546307 5.63664389545697 0.4374971141521949 -2.4856085818565 0.9802829596415763
Ni 5.711599678004894 4.415905288624253 3.518464670590623 0.6047358048296165 -0.4851774509472934 -0.9171999151381623
Ni 6.636112169299873 8.54556887396407 10.295872452806089 0.9185083495369406 0.8244969908857864 -0.5589262026946696
Ni 8.291386091376477 2.624404402182254 10.921074869193781 1.3149225776058968 -0.2744215537135274 0.021285391741337534
Ni 6.299568537490816 1.788733952092798 0.2556600441469128 -0.17409222326414536 -0.6089159043492351 -0.3614207427129066
Ni 2.1321058151093744 7.420345778809611 3.374103857182425 -0.149116270045098 -0.23067551897582855 0.18745887437903844
Ni 1.3652898228418937 6.834065218248625 1.1759048909371927 -0.9474551144782781 1.1068002613402357 -0.3597973481768707
Ni 5.624352141339588 5.594300420475726 11.292616937716764 -2.032883595010957 1.8179118599236301 0.4379239172769684
Ni 6.255382002849851 1.952470809496179 2.7211017231079664 0.08102034570812498 2.133007237207436 0.5115708533391576
Ni 4.09325260519203 1.6321536062434516 3.9699298722762295 0.7188753016892135 0.8766515614021547 0.9275776588280606
Ni 6.580745344000443 5.181004843651381 7.549634772537367 0.7439358442022671 1.5437574438285606 -1.8787220492324677
P 9.275608087983361 4.0355971969054645 9.0412515624376 0.16924723646701817 -0.35195882596905836 0.36598985014082774
P 1.955800510153692 8.912136088321574 1.7399383613867576 0.10099807438163251 -0.9681072435109908 -1.7333120243943632
P 1.5155109094073145 4.631988792139123 3.8823606208713386 0.7899192529109169 3.4655038191413543 -0.6992999506604474
P 8.395610411675863 7.323118519610238 1.6073009081245457 0.30502462331136504 0.5011028639282983 0.2561389533542557
P 3.1906223438519166 2.6534619025680977 6.6692187732740225 2.3963560780465696 -0.31484598027716104 1.589939855921894
P 3.117922316256476 7.018249251520676 11.320717735378476 0.8246916233950957 -0.8498542387036525 0.7217176562340152
P 2.2584187130100064 2.158021203607143 10.188204940643681 -0.5976022791086288 -0.7139205287870996 -0.0930317683467043
P 0.5656701824629057 0.9126465636842205 5.0445659039765225 0.17916269580851726 0.5923451444747476 0.5387502419674269
