# total energy = -381165.0390994992 ev
CRYSTAL
PRIMVEC
9.27434913516498 0.00000000000000 0.00000000000000
0.00000000000000 9.27434913516498 0.00000000000000
0.00000000000000 0.00000000000000 13.57394742488898
PRIMCOORD
 96 1
Ni 2.827943823283865 1.0853956320704619 6.182159662787868 2.24647284792846 -0.12305479707135582 -0.06636582901974376
Ni 6.1969624514982 3.4774821417581867 5.411375922743517 0.06864511197222371 0.29732545489489437 0.1733759139234111
Ni 2.024525503379907 5.194590793198116 6.103375921458041 0.5440659977533855 0.6096664093620145 -0.7026513836311834
Ni 6.8581771755776275 5.137126925740424 13.185814279447056 0.39602804837413086 1.1277385541547997 0.652553695643844
Ni 4.472471418118904 5.772688800015465 13.19173224165247 -0.5017358695266069 -2.0228498649240385 -2.388332436411145
Ni 8.352413942111845 3.071237825062049 9.212706280866279 0.18345772363944535 0.3498901163654877 1.706182515167423
Ni 8.126444424583333 4.80108943226164 1.8382112480327382 -1.568503797535305 0.8492554287773891 -1.3279061343497582
Ni 2.7412935789879946 8.998947371455067 4.161676848211189 0.9148650963573985 -0.09198738624258997 2.1867142398125887
Ni 7.245121571650871 8.857003457407298 9.841600825522963 -1.3433422663991705 -0.7980984462875996 -0.5548911133933476
Ni 1.0992236866830212 5.60803200485022 10.319674976541217 -0.6719490694513202 -2.6405723118213107 0.47851546554608554
Ni 0.5242715391041557 6.259007847445901 13.107478489182144 -2.0175407940062993 0.9135371215745943 0.518627760185939
Ni 6.57858337114783 6.673636175791774 10.928222526553709 -0.14482946974428607 0.32662034720426975 0.1071628084314477
Ni 4.701983737030378 1.9540960957824718 0.33334793221946657 0.6372497182969219 0.007971705351566915 1.2105918393066053
Ni 1.5000517834638443 8.864571326330069 2.481643335013493 -0.5247181893543931 -0.8451419208296476 -1.6413467496389602
Ni 5.3848169690252154 6.804543614327171 1.11587392574803 2.023889876152779 0.6452561335411661 1.5497609697101633
Ni 6.32519887747262 6.789064725562341 8.26208178119546 0.21712323421269059 -0.8734631363718441 0.2744665480188499
Ni 1.074924891857464 1.1436014474617584 12.529649438490727 1.2899628223367656 2.34844537040822 -1.9292645380667097
Ni 3.503218460705104 6.563902076411624 4.2158511040182605 0.44834279861744725 1.1210400590887015 0.516532311109491
Ni 8.09339064414124 1.9671822024614263 5.387173581149328 -0.18677547515876863 0.32753797392253264 -0.38014428726433885
Ni 7.41336753994493 4.672073960956935 7.895150503196289 -0.4619470196644432 0.4351790075419795 -1.9205302435175056
Ni 1.9614321059759894 1.7644078322072345 8.13644124555374 -1.975229177722282 -1.1632339188479321 -0.14445948799937702
Ni 4.832640768138184 8.50160112286143 10.154059213671788 1.007515055884652 0.9114339591886625 2.2976028338350556
Ni 7.888863421893906 8.242262497019041 7.163921862362245 -1.1608672183879682 0.9123194471174094 0.2937207682627716
Ni 5.283856403959943 2.937418240887253 7.9613508075721775 1.8972224220295 0.07002322326667296 1.2991691714263818
P 3.2904277933472468 1.9649934560572924 4.232492996169016 0.21883841713158442 0.06360652110705174 0.4579327562987275
Ni 0.7803585781275204 3.778592436262525 2.5262742855245723 0.730707004216819 -0.26494601012292435 0.824757957856657
P 3.651255622157601 3.0117985212311345 11.043546276178654 -0.6997673772151691 -0.44893620922707195 -0.7999660956239577
Ni 8.55415885960816 6.79513014991956 8.798320940468662 0.5880429175549678 -0.9376440419251272 0.5285437337480703
P 6.853308142263346 0.9595519881819177 3.648161699274469 -0.3099925088396016 0.549145469158822 -0.5259793154550039
P 9.124586979661869 2.5567247561546305 7.330651474566998 0.7759342514857346 -0.2149884472578749 -0.8265466743259635
P 8.276670332439965 2.577545670041415 12.080433352350033 -0.2371639549136496 1.075839551292663 -1.178065584544126
Ni 3.3245852213405778 2.9737644152847182 2.2454562670043257 -2.5231289473994614 -0.09317240768962663 -0.977699515185116
Ni 0.373147874247862 8.50328905441038 0.5192559710729873 -0.7556019676862857 -0.351898147934452 -1.2973431739612367
Ni 6.652509208382377 6.700003150482255 5.385504198298718 -0.10307321174310635 -0.8882580352928315 0.5375742193814549
Ni 9.006561612123686 7.3868892730644085 10.96512979907596 0.3925542308929175 0.10609065841319147 0.6133099196518728
Ni 3.6068500383313538 4.2152566182364595 4.333075167788151 -1.2981145049096223 -1.272294458522725 0.923125793704294
Ni 0.5936167752836113 7.317980858730862 6.8447989268998155 0.5210278849869995 -1.8535167536114334 -0.40284661395786103
Ni 0.43761480276386605 1.005951557079728 3.990238648932796 -0.13034413164391745 -0.2517984169973728 -0.9735253292027685
Ni 3.5203852810188847 3.4095382597383272 6.788249510270293 -1.3867293751355536 -0.08283117366461865 -1.7336123292436016
Ni 2.3551282282450363 7.379831493345993 10.274704584850513 1.87926712310266 0.7779975617726665 3.129459093299391
Ni 2.936138380701785 7.440346621680634 6.414314243777892 0.10542140026030876 0.8245414709704767 -0.22980134390099136
Ni 7.494462449087934 8.780703386785214 4.9656896538969475 0.9659662859085878 -0.02862254883269909 -0.024479473198603
Ni 0.5656907824976436 4.775121254585472 7.914181467693252 -1.5684312924261568 -0.9197836167049386 -0.0869865905938889
Ni 5.034135278206907 0.5751237230385117 4.803535078137784 0.449836095333522 0.46743246825904655 0.8970496654425325
Ni 2.408186779846949 7.186572605340283 0.7855624154468411 0.9550118437796132 0.13993820309025576 1.3558388562042845
Ni 6.285838539594885 7.6554280532834955 2.987449644920059 -0.04179611010017963 0.6103824615924327 1.5878991713427815
Ni 0.6991941113657404 7.356358115596571 4.416392210992302 1.1226279724011117 1.3603825097109086 1.6517720587373423
Ni 1.0548459259042842 2.8753079244953614 5.339828028636172 1.1814059617712684 0.14382108308442973 0.7598494301087301
Ni 4.393620901475054 0.770089091291513 2.5326949174550046 -0.3732431892691314 1.124114070028335 0.2679313180034934
Ni 2.0284207300313324 8.421934463490615 12.48315898097105 0.7337391061749234 -1.6427089200938096 -1.1594381992509257
Ni 2.2483711949484757 4.841061877184599 0.8066634146785615 0.15037019705685717 -0.049777585643759434 1.3139905527099307
Ni 6.352790066253548 2.0834176206097883 10.266111900344452 0.2526296546494165 -0.6936419810437215 0.25151353876710236
Ni 0.6229051699626608 6.470815433791731 2.331040888580556 0.3162593156849199 0.562377908688696 -2.5323013579273486
Ni 2.8948768012441883 3.1227104629558817 13.08901789715914 -0.8177259907105402 -0.06795837031784425 -1.0382919320561925
Ni 6.509433823735862 4.4456963720649405 9.98480605105786 -0.909983085674749 0.4516250689131448 0.36159943438261594
Ni 4.173679710907081 7.395319656459993 8.515222359487497 -1.460506409017704 -1.0266355787641868 -1.7557641827502923
P 4.059614490464512 7.994164382370767 2.5794571134053643 -0.22465476670304535 -1.7201780581155666 0.5799837946959172
Ni 2.463767954423119 5.741758845533315 12.340238477955674 0.17814479606696418 0.018935917672554484 -2.3618865835147904
P 4.894519225800824 0.797914921106444 7.703499787336668 -0.2843136160162587 0.559122892086508 -0.2926110801383606
Ni 8.206704642301032 6.215177273268199 3.678892255249463 -2.412574082567329 -0.1051537484212189 1.0468516487007453
P 4.9604598483999505 7.901726944192779 12.236044874769718 0.40716349616566005 -0.4228135439980912 0.044809957225838956
P 1.320398365690612 9.242510329359183 10.457165348117522 -1.0169507473762551 1.1707189143710677 0.7350575678760308
P 4.507491360585051 5.065899924114364 8.273741492972059 -0.017115062413731813 0.16425312568653647 0.748380253126866
Ni 8.555169763667697 1.3700625054962834 0.22332911031979577 0.5239597139218137 -1.048630080757407 1.224893343530942
Ni 8.231921597694425 8.868151225109711 2.237325445086934 1.867407909771229 -0.8064997829774175 2.4910642056544323
Ni 3.5619436396499236 0.8850316651655685 12.149646892771273 1.1174595408262948 0.19693673196248665 -1.4838895638283347
Ni 8.55422378005235 0.21983082581284918 11.677110455642463 -0.4046828958356514 0.2647688611151118 -0.8544768250773283
Ni 4.87834476084824 5.293798506270247 6.15117035247103 -0.46650378579719015 1.2926704510759157 0.31179073839060495
Ni 9.31126107975684 4.074230864756528 13.663399672264047 0.16038232987722056 -1.7066000623208157 -1.4956204791120178
Ni 2.4292210037646456 0.9438876124336864 0.6891434991701463 0.9410600095852116 -0.03369636381118068 0.7617175936657203
Ni 6.578917247717951 0.6777824214368229 1.4749989840507614 -3.165969786630915 -0.3115536826791344 -1.4195541349750584
Ni 8.45809515090468 5.061809936130366 11.446923891546325 -0.6066273654253745 -1.344517517654194 -0.2831813021840284
Ni 5.362744018000473 8.335404785733955 6.679522605210011 0.28490085597829645 -0.43208288511515913 -0.5983067613748212
Ni 2.4386344681722565 3.755870280795878 8.790339435572907 2.1368736621413777 2.371353128244329 0.48514094128240326
Ni 0.7498302029644339 0.27012840366683555 6.219813520418311 -1.3609802911959077 -0.1528374276504271 0.5043887337684216
Ni 1.4284723565693211 2.8245679601859632 10.456445658621925 -0.7045311171523996 -0.9806956216989627 1.612071654823927
Ni 1.79306557114272 8.517877605654885 8.494399590730877 -0.010297525271266136 1.5822229468936106 -2.20553214385004
Ni 7.144355767918169 1.3466169507943717 7.53683973275069 -0.6918072418278279 -0.06870270468303652 0.2507481213559875
Ni 4.269993827038154 5.630002938034092 10.535297102700694 -0.10466909547531651 -0.4643126916831423 -0.4282460278675721
Ni 7.86480576014677 2.3609710682221743 2.165628233957951 3.045091171275272 0.36873784519961006 5.107591560711397
Ni 6.483641858693924 0.7138355264005141 12.537156096708975 -1.8843051997471998 1.8630192937852301 -0.45963328392960195
Ni 5.3059386293338555 3.6101888040325756 12.220693044588518 0.4032939859079248 0.29144996995072386 -0.7893631232971309
Ni 2.2448469422638526 6.116730056828011 8.510186387888155 0.9136222250892331 -0.2067267214697149 -2.5976004362454743
Ni 5.321259854162795 5.241203672126837 3.1852353427556754 1.693174275833213 1.376573003427842 0.6263981202943987
Ni 8.918093595390484 0.8104927934508794 9.015653256615096 2.0508790031471134 -0.5586040434685605 -0.05394174432377807
Ni 3.843689093087176 1.23348843961798 9.526087466757522 -0.31267416943682275 0.9772102342535235 0.5399267787740314
Ni 5.462925537735462 2.895507456987752 3.1332470510479866 1.5485718344980686 -1.1724577514390453 0.6205586307944861
Ni 4.289126809375988 8.79361328082994 0.6023995839476581 0.45747998503202497 -0.07511992106328999 -2.0619468309255007
P 7.950778976953226 6.952608598827179 1.2282159721148007 -0.683025896090772 -0.35963768267055485 -0.0725318486211396
Ni 6.87394356916673 2.8697433149933254 0.4639520995370025 -2.511224225542075 2.4416062081336207 -3.377548693986609
P 0.9670734853588364 1.7093367468354184 1.9230075499295136 -1.3798269915887655 0.2904469826075063 0.5373093957558425
Ni 7.112915724231666 7.951131402221689 13.023225664146734 0.47938552685586466 -1.726903035544226 0.39212434244435046
P 4.869348642153281 4.207596005821991 1.3951570394806319 0.4900784877933367 -0.1366891000253388 -2.293100575089328
P 7.433363036755579 4.086510103057687 3.6574592343174546 -0.3804669607110802 -0.09546763148170656 2.0463042392922373
P 2.3144787558326634 5.467720376256382 2.861388053826018 0.9623829394327038 -1.2575576665331825 0.6946853347065713
Ni 9.014481906314918 4.875831412223153 5.5930771168134985 -1.079550424485347 0.0946911583269982 -0.361409686969313
