# total energy = -381172.64514850907 ev
CRYSTAL
PRIMVEC
9.22474630588608 0.00000000000000 0.00000000000000
0.00000000000000 9.22474630588608 0.00000000000000
0.00000000000000 0.00000000000000 13.50134867030720
PRIMCOORD
 96 1
Ni 9.151188088937305 3.936891066016635 13.163247921963588 0.528006887407994 -0.5599271331553582 0.009107361617906895
Ni 7.6610410348169955 6.974424724522929 10.220318648267872 -0.23053462252259008 0.4253221693525578 0.0851482518335695
Ni 2.1670404819034945 6.054164042088813 2.3125377915836474 -1.0995122123192547 -2.426822622066543 0.19188065759581793
Ni 1.0956600069710265 4.328426194377036 9.969423078230669 0.44689732442017227 0.6088256586282741 -0.12314658545421373
Ni 7.694443840862443 2.74698182696432 11.78223515041751 -1.0008160465979217 -0.9883778208345688 -0.8196437765585433
Ni 6.249147502840716 2.496216325848753 7.780206306425695 -1.1184671561552026 -0.5499970185258399 0.259348718540805
Ni 4.461668428710219 1.7008402576767971 4.805089125761079 0.5882992565401481 1.0241899454371717 0.8159066781136142
Ni 2.808400187265506 2.3012144156044188 12.711033335473845 -0.6438294283969687 0.8998141155615471 -1.2694577604048782
Ni 7.068231168785886 4.579588359579859 6.5755347060051035 -0.5377575390368545 0.13171375829793444 -0.30055167514167597
Ni 6.391227044048117 8.842306686665614 8.766061391772643 0.17301467392925043 1.1223004138583639 0.29305922341937274
Ni 7.877859469860414 7.0710816153664 4.747411400050179 0.1623970463144042 0.384703367389931 0.2919791029813165
Ni 9.146206725981065 9.291717872780541 4.253721432102013 -1.5585286886004641 1.288056092232356 1.9571363247763132
Ni 5.455155146601051 6.905534319787384 0.496182494375528 0.2643338304602222 -2.3397789529824737 0.5591681435021467
Ni 8.636050586038666 0.8765261606275782 12.883432772541553 0.33701120352029057 0.1940820361225109 -0.6713096360951084
Ni 5.473429368853476 6.209665589039414 9.718324563776731 -0.19312455730524802 0.11625834297481268 0.1203962764025862
Ni 2.164346856008639 5.733281244991073 4.898694470556542 0.9121566962873001 -0.5596931627676812 -0.46581807258407515
Ni 2.0881689017630407 0.7903744107740427 5.466169493582068 0.2264421976207713 -0.3008874612145399 0.07229145047555936
Ni 4.467978155121456 5.250006015519933 2.7786180941095466 -0.04046427866263354 -0.9272716975518676 -0.46636494622648067
Ni 2.2909472730668368 5.611200953578351 7.455971236553329 -0.559220851116953 -1.2846959175108714 -1.9253749732043164
Ni 5.643884229419009 2.6331576834142543 2.437020206910822 -0.18584833535880896 0.028022196244538836 0.44365644888537137
Ni 5.1057309847133014 0.44894810385492206 6.6498464940913555 -1.413238734279992 -0.48015660069393434 0.31174471564401796
Ni 6.94547747089945 0.07472690166593862 3.6127445537079352 -1.5279593004540395 -1.542104995826802 -1.2748488495134624
Ni 2.6519946151858105 8.870700455516177 1.2355209967136571 -1.1449289498911572 0.8727540261199614 -1.838109675027744
Ni 3.706788996423245 4.638903477743966 11.527465186969897 0.7603831911250131 0.28928998618492757 0.5093759025703679
P 5.79619401417913 7.150617377234352 11.915142526463077 0.7812780322961513 -0.36462485147250107 -1.6139488172419818
Ni 3.062938609583114 5.8622985455576675 9.50323484617405 -0.0399495438097441 -0.03314691906561388 1.3985399946172365
P 0.7175662563208777 6.67260025310591 10.178167092911872 -0.28853922406183213 -0.5258039662194042 -0.375177944397999
Ni 2.302192238703236 7.379732398982709 11.524832444400063 0.2481168543807275 1.9379065300124239 -0.8842895375633868
P 0.1676708321577683 2.2981241256223073 4.794126437358866 -0.5177546135523664 -0.8663599496681595 -0.6737231306326075
P 0.3832014926295369 6.097797091686983 3.7734783767118296 -0.5607498861669697 -0.3082981518563142 0.09052699964697958
P 2.550098068492073 9.224838462719923 7.430683439753443 -0.39331347765644525 0.383025722577192 0.033419970221342445
Ni 8.985511646911275 5.073794913316078 1.8720699969244121 1.2019220794467493 -0.4275723988393152 -0.6748323045363861
Ni 8.627010334747713 5.6241986209956485 8.463941728476737 0.12436374569076647 0.5566350926676479 -0.7148003602888915
Ni 5.93862409574271 7.290630575289534 7.221506784474743 1.4233146304587552 0.1558978117433057 -0.8341478837119891
Ni 1.1369591957767355 1.9209611518652783 0.5898994586001963 -0.24192898040246072 0.67830277958349 1.245356239370984
Ni 3.8252993110506615 3.106470186972915 6.973972711958381 0.6865143688600047 -0.18396783050664445 -1.0352158642340301
Ni 1.3977335465358574 3.1886995747357227 6.2605483666881545 0.7178167785177122 0.24642712538313044 0.43463136256862567
Ni 4.662887817903637 5.468614051329111 7.236438881173382 -0.5967062496569207 -0.5313408368772333 0.2019264718675942
Ni 3.5798749379937287 7.524265722683368 5.618653626045658 0.43597424974976534 0.341360995848554 0.6991500553461443
Ni 0.140498419706105 0.1321924582138869 7.052996500411387 0.6537271471266548 1.446862335871708 0.7410148139007302
Ni 3.0647282103488735 6.334605551778865 -0.10723675227775006 1.0327494049714085 -0.4980103410459037 1.3669907590560457
Ni 3.85119317367689 7.848091213823777 8.38682192764256 0.3964764487654591 -0.053499771690353026 0.047165087721576834
Ni 4.490468086394254 1.4752398642364533 0.38220706498753215 -1.261425634129021 1.4327408088686617 1.5473145650521998
Ni 1.4373169325455286 1.6483330022195501 8.783626231041117 -0.1818379286478352 -1.8780939287301657 -0.6684793657351649
Ni 0.7270640550241071 6.958862577657788 0.5325049325981055 0.10710213039684136 0.2046104464576605 -0.4794786007903032
Ni 0.9000114420170028 7.527771126245167 5.629414292505755 0.45735168698427686 0.5706612317434108 0.16809846757455565
Ni 4.226308253774132 8.42792186193002 12.751915565750624 -1.5369663890486565 0.5448861796618357 0.8279697799257354
Ni 1.328824692307882 3.638608897146275 3.434378550788197 -1.0377260322503934 1.177076224047663 0.396104410138021
Ni 6.106486802621756 4.775641890892732 12.160988470422048 -0.5680988703328732 0.14055141119422246 -0.3286929134625823
Ni 8.973178161221476 7.754893602811028 11.977572841424077 1.2618807193885686 -0.17757375405484258 0.658626384200485
Ni 1.3526706612743231 8.081578765278167 3.2431320347280947 1.38527053120184 -1.230651586170958 -0.9245249880446658
Ni 7.763103626942607 5.858885389458022 13.339615844853103 0.2638026405471005 1.0601918174530773 -0.11851037223378298
Ni 9.419665102786167 5.213005558450535 6.128491512243632 -0.8132628127328639 0.32095029340268594 -0.2228483096219259
Ni 3.0369156005098716 3.109394431523152 1.776615090512789 -0.6601631325599856 0.39350476773164483 0.17904031129804004
Ni 0.12249263756854335 9.18249687759189 1.3814306525496323 1.339470956369222 -0.09943715765241584 1.233924857605591
Ni 6.931806397008438 2.0530041691904777 4.608428606147241 0.7569358560063608 1.294913224363505 0.6368056887809678
P 5.790908234597787 3.865104090969499 4.50075552337351 -1.1436295143534434 0.7648196296298119 0.046675035459035744
Ni 1.450582117603069 5.2641291019754926 11.937459954981652 -0.5244492519637225 0.4318923663709078 0.8836632168332976
P 4.719352489487229 8.717163779509427 4.16897368862244 0.8153582618093119 -0.027682810627249095 0.44335588692581707
Ni 8.787834560264516 1.9554155789792658 2.5671463219724915 -2.603515259068013 1.7311512692976188 -0.15435746383937932
P 2.308105301027216 3.482267898290086 8.361776741668136 0.3564181472919926 1.8616404111598324 -0.34878274223392186
P 7.2036781174645155 0.931099759237043 1.5013228341600944 -0.400865064751458 1.2435469540763873 0.02618925680085812
P 8.036469756285555 1.2147145816251432 8.726475238339107 0.05965344999657468 -0.7761916189121794 0.44255653095297326
Ni 8.138310954502002 2.257636714483541 6.67101636418075 1.8750286595412804 0.46722240913076957 -1.2688790050832728
Ni 0.28638778110040664 8.9887310833404 9.843360463876822 -0.18434475423008898 0.5110471196252037 0.1982369388311489
Ni 7.08001116970277 3.0856314852726476 0.4594966011520694 0.1982423381477876 -1.9387645071373447 0.033681708523161345
Ni 6.078637293797892 1.8385472691781652 10.11601997765968 -0.09735353565050975 0.037302335994884146 1.0728146484234105
Ni 3.442638388549339 3.8927045316455504 4.38018809034009 1.382569073110277 -0.8534949207800332 0.6739259906720328
Ni 3.699215479780518 7.541423750643748 2.5966876492522326 2.0013988941391148 0.3159700665792752 1.4373299709012408
Ni 3.8029108519862307 0.9747051345965666 2.829396632126054 -0.36385686295822495 -0.405383778557418 -1.0378399321204386
Ni 6.212073247801595 0.6469222273298122 12.835502836156317 -0.03220872352206066 1.788598969892126 -1.9868423364811783
Ni 8.196528327866494 7.313812362528477 2.175445148180216 0.3852582114521365 -1.0433927436178678 1.7545627062430234
Ni 4.163100292707186 1.330623517819857 8.738572570525797 -0.5470711031282965 -0.5992256736446648 -0.45197396761213127
Ni 2.7193444873034074 0.6103156669238048 10.583693393856956 -1.3281262207803644 -1.6338406710699025 1.3614438610958874
Ni 4.699583858347932 8.736212880443935 10.583247838614758 1.450669111212308 -0.6399141525029624 -1.0776377808436668
Ni 1.055246393801982 7.500668821864739 8.082635921194436 0.9519350046265026 -0.592530006792044 0.8777352813846366
Ni 7.948973038433836 4.690322213147813 10.66555194682191 0.5181911868691527 -0.03912139148149391 -0.156160321376073
Ni 0.6890507208202729 2.042497183251299 11.38675367562622 0.8302169240886992 0.47551293127433586 -0.7420070026106704
Ni 7.2753267213184225 9.368560008753638 6.128747960188416 -0.3605187997239275 -1.4934149868202666 -0.6113453397263343
Ni 5.338738849364497 8.98585296252124 1.3988073069953133 0.6397526872244337 -0.8749813727885833 2.1134030898232634
Ni 6.003252667726806 6.944084534220946 2.9033569573815052 0.46327807977104085 1.1633524467036676 -0.07545570713615392
Ni 7.366190471538712 9.136446944485323 10.983860117250972 -0.323843555790081 0.7357772196508748 -0.18864183894354608
Ni 6.625692418601324 4.822420578950304 1.698253638838039 -0.5245968332851804 1.723955779990444 0.7083414920374252
Ni 2.8862478205760667 2.798474360337889 10.349769511906583 0.7311985991412568 0.783555001255786 -0.049241253524315194
Ni 4.760716251516445 3.8851217902566084 0.4263769948154294 -0.3845755835628151 0.5909541776644919 -0.2895455538391594
Ni 7.495761256878222 8.400524365670703 0.3604578808358189 -0.74284183980714 -2.9134823139863175 -0.9669908705183604
Ni 4.797181673305359 3.850658138396405 9.195701179324411 -1.151212983127656 0.021172520312557085 0.5583222505620836
Ni 5.794376739174724 6.16423371392927 5.037069353683895 -1.3997142174309958 -1.3459136266707723 0.4207620607857012
P 8.276608349761146 7.386807779329812 7.037861459296013 -0.5652919970116974 -0.49160058086481784 -0.7407515329370146
Ni 8.958898254080257 3.2030994035777405 8.643994937479246 -1.5430511617901554 -0.0009785618631854114 -0.28198085411802404
P 1.7309406045771834 4.724629044322357 0.6123257391241094 0.23018289561012614 -0.8520355626256875 0.28985022956377177
Ni 7.799421452792077 4.57100934559967 3.77817653995926 -0.347803151929472 -0.18654947519089163 1.3073679051870903
P 4.814441173474107 2.593924837760763 12.035641696374503 1.321267288877002 0.9586417272227169 -1.27042526652447
P 1.7562256339532047 0.19578047882490177 12.778513276513078 -0.35760291162871316 -0.21233609723669236 -0.9327437764100323
P 6.789939024963989 4.385195282585732 8.834107732229493 0.5758713151894405 0.5600045233605129 -0.3142227448708653
Ni 1.5270644884737712 1.325107119583133 3.165296393587614 2.419626618538736 -0.379024828947915 -0.8279021599125936
