# total energy = -381168.28615910455 ev
CRYSTAL
PRIMVEC
9.20995206784261 0.00000000000000 0.00000000000000
0.00000000000000 9.20995206784261 0.00000000000000
0.00000000000000 0.00000000000000 13.47969580750780
PRIMCOORD
 96 1
Ni 4.98527334233806 6.612644232303381 4.07723009704259 -0.34030067290483973 0.3358413515819055 1.9336618958034566
Ni 5.890187966936399 6.455752699846355 11.657928700930656 0.4856137671537637 -0.6876361411692739 -0.4277940279318181
Ni 5.23518539007633 8.04133803755118 13.03584988274851 -0.2247074743178517 -0.7240396194989724 1.2600832611685138
Ni 5.294386961584036 7.5634796776138264 9.657069390168736 0.47328301350255264 0.5951890416814459 -1.0425805321292172
Ni 6.5271574577647185 2.1470332220671855 10.66921916997753 -0.4556928112246152 -1.468478371479587 -1.0129254282669458
Ni 7.549047682817222 5.309832051101526 12.892371724395998 -0.0715550865301671 -0.6703740116547164 1.459566413701938
Ni 6.59555977132846 0.5082935673431357 0.07354699275543482 0.17284960910629585 1.8537787490235687 -0.7724331803110116
Ni 1.5787607632668652 2.106988350736211 10.406797244426738 -0.6367072155298905 1.1330939049294422 -1.4355901053919986
Ni 4.980981504702313 0.33861401652294026 11.156429315183852 -0.5518333004036302 -0.7132366153461974 0.9071978096201279
Ni 5.457320222558339 2.7410198668739647 3.3328679608244753 1.8354719802945807 0.6004106950917014 1.8704821778211784
Ni 6.665647506109674 8.413917436084587 7.905692943381511 0.22358647333953105 -2.734052737669659 -0.6470664472770276
Ni 2.5987445282537034 4.03870210480734 6.641432700290125 -0.23149030156764006 -0.44165921594968455 0.0875943993812169
Ni 5.798806823112588 1.0620916655676145 6.42258950465579 -1.1168579026865542 -1.3884039346244992 -1.0578122614773073
Ni 5.133295691011341 9.111064753333464 3.786217717473224 -0.899686074624115 0.7864343796861101 3.488425203824218
Ni 2.8044395964013544 8.162679155257157 4.768968409477143 1.052253536442607 -0.6708517226220834 0.5084690744853824
Ni 9.037679855733371 8.673260474679092 4.901729867673096 2.417776709814191 -1.1397088391427983 -1.417333730284972
Ni 1.7550852944608646 9.16066034489678 3.1359168211132618 -1.3314992510176553 1.4559257316255572 -0.9401629516922388
Ni 2.0839358408600774 6.048608351426761 7.429010694315584 -0.44166127283221357 2.586106319562946 0.033463421864768174
Ni 6.767316166326469 7.937652397844623 5.281250807034963 -0.8227252436973445 0.20495343161937604 0.9061218029471299
Ni 1.368166000650935 5.16122026549973 0.678473218557368 -0.49416242805472305 0.22813501194216196 0.09229103352593783
Ni 7.097345586582712 8.614675969955925 11.330722130964878 0.6120778470169846 0.5983406999365501 0.8924754158082889
Ni 6.912409750261192 3.095833267983853 12.780288450448507 -0.9641091780951911 -0.4202352417479537 1.0820724195762526
Ni 7.230991200171436 1.5419577950427221 2.1228092062956287 -0.03169655977233251 0.6759581906107132 0.47796627791083496
Ni 3.5642053773529216 6.454638295653382 0.44506816780311564 -0.017888964465278868 -0.9042412980949653 -1.8921951440182379
P 0.5135542919301304 6.618455712020458 5.345831911510567 2.471138670375099 0.8747908540443321 0.8374172984918803
Ni 0.35365847312807985 4.622484122789206 7.604489751915244 0.10649406449919724 -0.9322647798910848 0.5690026130940652
P 4.28583274703918 1.569062683802395 5.060534307162192 -1.5837661230110143 -0.41428390926052516 -1.2283831018517555
Ni 6.368230525913915 4.354253480506938 10.62481707035155 1.0727704254490364 1.6044946138076173 1.778331526527847
P 2.2630141477044816 0.05191097349813824 10.892025407960928 0.5781616538855139 -0.4571413707456837 -4.929857112708975
P 6.686931705200263 6.789889758698185 0.8132249473822581 0.7184829513468013 0.5361346587214508 -0.8880315211043223
P 4.623957715110493 0.23131623363882803 8.33934813865626 0.32267216118979913 -0.2055782096875685 0.20944103507708448
Ni 4.703301451659791 3.309384425194365 6.14408608190375 3.1118889456261116 2.3118004654916766 -0.12934320118322887
Ni 7.696977931970422 5.365312801997981 8.826909183034086 -0.8328188804879204 -0.11010286489637812 0.636328492034233
Ni 1.4848100428328102 8.079071210928136 0.64911833852213 0.3235887594667976 0.713895589086435 -0.13189913483586316
Ni 3.8988213537091703 5.311766141023214 8.82336427250619 1.0840362281708429 0.24800295451068255 -1.57350433607369
Ni 0.27624514251966825 1.8359210432354651 4.155844405392851 0.21612821728927295 0.024606742805086654 -0.851886952862965
Ni 7.561646897164226 4.083886129358803 6.5880122156578675 -0.8180682045413072 -0.8549316532265597 -0.497333369583537
Ni 8.505777497412815 2.6931189064801284 9.027244059113055 0.4326798952692097 2.534880431508434 -0.31139324584187017
Ni 8.345450652856787 1.7211282014072067 11.966734707779562 1.3430093085397838 -1.6202071394468678 -1.8705857932785783
Ni 7.223070641444518 2.0551086910749 4.864606393119073 0.12857341289673985 0.5526395983550095 0.3589077464830657
Ni 0.9385493693317145 7.0737588994901115 2.593898251507071 0.5022400628565351 -1.8477322857191725 1.4190108608770786
Ni 1.7604086467215139 1.24898001171484 5.865352410351508 0.7348441663136441 1.4028746174368485 -0.22561070285841148
Ni 1.552696599084101 6.182097395831348 9.81676351102181 0.8330181409829202 -1.8724745256608588 -0.15780402762708307
Ni 6.049428037155477 3.5277800171611085 8.648693848692835 -0.9396698141059042 -0.3214580862770399 -1.7218019668722346
Ni 5.765172078379212 5.80779573627244 7.195084360277676 -0.28701353144592506 -0.5228914205582994 -0.002108818812886691
Ni 3.668425194275946 1.535427939069019 2.876809557290161 -2.333257864034504 -1.4365848652051 -1.234724727799067
Ni 6.132474174412009 8.5402227179229 2.05758156318906 0.3825552106986766 -1.5677877453048872 -2.2162554438048154
Ni 3.4875693666939895 2.1486541736206015 12.07096005067379 1.7867495753882132 1.099128346617275 0.04731369748429916
Ni 4.556743485355789 7.851014379304955 6.760673948938268 -0.6245669806229308 0.2984562260652279 -0.22360884193703423
Ni 0.4770524891366503 7.917160254626726 11.072653749728286 0.44449154319215706 1.6211059971120534 -0.11615652728962576
Ni 8.798350042852343 3.2623584102412937 0.9538802554443043 1.0516470132068596 0.16492521205289662 0.20708821857419174
Ni 8.79191228639872 0.6257619002297308 9.547978429628657 -0.2594245660840629 -2.438117478254072 1.0608381927878245
Ni 8.696865581675707 7.409737948743551 13.1250316900328 -0.8378739264133249 -0.10598370052168199 0.6488618486145534
Ni 1.4427942417721142 3.9212752167047813 2.7211061086421724 -0.7404450574401894 -0.2789893755898679 0.5683768065846082
Ni 5.256405119502863 5.773028167442074 2.023504740759298 0.0874982401229848 -0.170128610630707 -0.6555914540289032
Ni 1.5390290303041643 8.451530880085437 6.746991644235118 0.7029971970063764 -2.8185864958476814 -0.8288149015348499
P 2.7312112679853975 4.266445798062248 12.501190985791947 0.9745681686449861 -0.6334270021167221 0.13487570096568383
Ni 8.655457637447544 0.16331731597303883 6.938861653423495 -0.6581481590124859 1.0700733382328473 1.5049692673167696
P 0.4745031744208238 4.2581660512070165 10.054532237037474 -0.344102048928801 -0.34653097008526773 -0.9993608022086337
Ni 0.3810958411552432 7.44740665245645 8.523629147390006 -1.7130015949717854 1.3861256801132837 -0.248283718975895
P 6.27149839997343 4.737636152745778 3.968327940518676 -0.0325805050391826 -0.7191105576284712 -0.627110572980391
P 2.8432871739712833 5.640404858526242 2.231456247148919 -0.12341063774887778 1.0954624677299132 -2.2461473462682413
P 7.690457285948726 7.503283431289252 9.70926310919352 0.06645813162323394 -0.5673036281250875 -1.0847193702807965
Ni 2.994965873591757 3.397422356439256 4.551338164522269 -0.11933106836286546 -1.7597779318953757 -1.3553981691224402
Ni 2.2112542174192753 3.7069596334776014 8.859422155612883 0.38658490068336004 -0.22142674668405093 0.600803816765062
Ni 4.1187457977092485 4.036648285509546 10.722383617943963 -0.7295088701436598 0.1560039983038668 0.3301533000581927
Ni 0.7829481511510149 4.477556317990628 5.237846145211455 -0.6219182301461741 -0.8073629023086611 -0.5595131855463912
Ni 8.562520011734373 5.86767884422874 10.996574020170637 0.1350389660164255 0.0050025954209139654 -0.009498426408738481
Ni 8.360490504485924 5.699191982193587 1.786895547701447 0.13692795550902226 0.4158504824166967 -0.05040622036669384
Ni 2.9928199547738825 8.16159238092021 12.372163242140056 0.45470627894162985 -1.2240397372813951 -0.37903537047087626
Ni 8.070054667912261 6.495871250793393 6.876423704780162 0.4682739903237355 0.9807848389786593 -0.6788987612962759
Ni 1.524081278195109 1.1466298150494487 12.336186406611036 -3.0201640690162885 -1.467632221429208 3.4716909217886727
Ni 8.369718876397984 3.8366725975588905 3.468770933650371 -0.9578035475921376 0.07915012526860561 -0.2611829435360663
Ni 2.0053473203754395 2.6395354056973295 0.44705843843205395 0.9994412777375821 1.4122198060971742 0.22189391612845658
Ni 8.931047031384239 0.9335852051993789 0.4559101233069849 1.963887013236585 1.0247486461541189 -0.5563224465232355
Ni 3.5889617283505437 7.927410931211678 2.2352977181314744 0.2728102433623495 0.2683370380823443 0.6996683897434595
Ni 4.1256164219072495 1.8425522086812565 9.758625688971033 -0.39275529116013 0.724482877683978 -1.0179761033169759
Ni 8.488766716053957 8.669318615219648 1.8485782802801198 -0.2843892064492005 -2.234977702804667 2.1560116685224093
Ni 3.8568884422165466 3.7671098300421355 2.1923784207787893 -0.09896150356757796 0.0936028103588259 -1.6913873591361193
Ni 1.6465275901420517 0.6766054402901368 8.450299509501962 -0.3409221085389226 1.8691462326185742 0.30514649360121
Ni 7.945941354651862 5.975333973250764 4.561623838924851 -1.096469311727873 -0.1729005169488893 -1.1365198998918555
Ni 5.051778405788146 4.4185297355710755 13.08375636911355 -1.1365738930582425 0.12409223719693466 0.3690813445819579
Ni 3.4930953378988154 2.014105984735089 7.439875674699473 -0.3462026402115715 -1.3908467397380369 0.796187602418132
Ni 6.930313896964829 1.2758914914823438 8.202489172811928 0.06525948332944245 2.4649507963968325 2.1325788914207657
Ni 2.811512839543532 8.06648120653314 8.872349244251373 1.4842554318081855 -0.8438494272704692 0.7651528445995146
Ni 1.8340145831698 6.065950691057908 12.06989445922646 -1.478571751159847 0.8857280697821261 0.5701562670825342
Ni 3.6451332256476032 0.5254802587853463 0.3149462818526692 0.3312802145737843 0.7024652357623064 1.823223759054847
Ni 6.793877667917668 3.907091890612394 1.66131877306697 -2.0332065255680143 0.36108752774320396 -0.16856460857769678
P 7.463984566070929 0.18342908817300413 3.8236635403475288 -1.2455850675523386 0.009203520876138988 -1.3270113904496308
Ni 0.39552138898544226 3.72716626818325 12.121805432724598 0.3537665686017585 0.3037840660360446 0.5276559318264784
P 1.2258630321746498 1.794338109919147 2.1314361683415637 -0.706953353440647 -0.7037875541181557 0.7639146013170393
Ni 2.649067706025655 5.669756975575878 4.171062930090942 -0.7256969525967373 1.1976779594584148 3.0795915190449863
P 4.9260165111183065 2.284464125931216 0.6032675134452845 0.8245543264862831 0.31473542284122574 0.08937026033471704
P 9.021065102310859 2.2480111358833783 6.39658704715148 -0.4433520302710751 1.194213397948582 0.050846393227905975
P 3.7372511656320575 5.883621271154664 6.121264741823017 1.8484210842560809 -0.059171111043517445 -0.24182742182758996
Ni 3.68521493678661 6.46744933889657 10.729851047032085 0.06427449370835382 -0.09052699964697958 1.3459917882068755
