# total energy = -340861.4107636437 ev
CRYSTAL
PRIMVEC
9.37355459823335 0.00000000000000 0.00000000000000
0.00000000000000 9.37355459823335 0.00000000000000
0.00000000000000 0.00000000000000 13.71914464793336
PRIMCOORD
 96 1
Ni 5.838234089780025 5.655843465336645 0.9701338379563232 -0.505655002075355 -1.585373062486818 -0.23519166167862718
Ni 8.605663588156778 4.2951032983515125 6.545375982424238 -0.2162369749529953 0.05120403367764085 -0.9739310492816193
Ni 7.026988277872817 0.353264899766033 7.404510062104602 0.5597592401189263 -0.7741766453646796 -0.38798280947215114
Ni 4.433410095743952 5.7029174562891916 12.399101745809853 0.9052815664340216 1.1315859529253478 1.470445779618603
Ni 8.487425571056932 3.0864771746116872 8.679389406762725 0.9581269923698273 -0.21124594949630718 1.316748575071042
Ni 2.9125508699273963 3.956352410451454 13.13990875962214 0.7256689275722793 1.187137207828091 2.453568008481187
Ni 0.21587764807499646 4.296668681961444 0.8624907495648929 0.3594343084104971 -0.018825103126303065 -2.3979990129666313
Ni 3.599510562268955 7.244201657471259 6.3702517374683945 -0.3552287549695818 0.36178558225149304 0.21829051504791439
Ni 2.0651534178996984 2.4656760302874674 1.1083281526941566 1.871058619149939 0.6608146501010556 0.6350012885823774
Ni 2.7989902565482434 8.074867314626337 8.813589649906596 0.28659829828537736 0.4073211047894469 -0.6106215741864323
Ni 0.6047526815783305 5.422423209920411 4.680382636329279 -0.4829179654891554 -1.4894896836239315 0.2878419408844914
Ni 2.7757532148175854 6.4811193286251925 0.3576114170110939 -0.21407493430467006 -0.24718354393318076 -0.4609782279932706
Ni 0.8843451919993539 2.2531494279642703 5.0507992662117935 0.626914654919501 -0.18967207998027336 0.0020879928772802752
Ni 7.116411988284466 3.2083708779862232 10.840498027884852 1.8734448599939284 0.12509779564331358 -1.9346240026064103
Ni 0.45751288669927687 2.556487026772588 13.087281874953886 1.1493517615492013 -0.8613792086241165 -0.9241987150534987
Ni 2.186306610464746 6.477763596096119 11.400115169591675 0.7504831584024817 -0.9730558457655176 -1.0175171614026863
Ni 6.009338954544619 7.745836802795134 6.150745586426904 2.091014437715418 -1.4854682211693644 1.2043216900271774
Ni 5.103375533685477 5.83409097866871 5.147135035748971 0.5351818078898782 -0.3606496688748369 0.17031964359559054
Ni 8.384578930528987 6.84503821049331 6.353322160594759 0.6330786176383677 -0.31346889742397627 -0.7648293998218247
Ni 1.8387352077326786 7.2014957429392386 4.01320676822198 2.8909054571270665 0.18523024215883585 -0.02383669740828153
Ni 2.3228418060471427 8.437117703784466 12.4338663849267 0.7116309614219745 0.17298022114688916 -1.5758062447339893
Ni 5.442866932395024 0.8239485679641995 13.328532797841596 -0.12456043508260484 -1.1767491797255476 0.5356345791565807
Ni 2.0338551192556213 3.408749353611989 11.234552887632784 -2.7579989640726112 0.30783278218412147 -2.5230109337643585
Ni 2.993669611007313 0.28268484606722916 4.832129236236208 -1.045114868515297 -0.2965721216686376 -0.47979304670692857
P 8.450456271909811 1.2589433645668409 10.16253882262267 -0.685843053824593 -0.13263755566378446 0.23587917466395505
P 8.20613457255136 3.9641605813920098 3.9648054819450835 1.3779395447580656 -2.8274565446438014 -0.47389673582715164
P 3.882151352629797 2.747229488320453 11.432684522232798 1.58889213138367 -0.8875723220797166 0.8570849521241367
P 2.297083278142404 0.7962834590638913 7.072108820057043 -0.5329765727084433 -0.43933288180935304 -0.348423044901658
P 2.953278964449263 5.890304185307982 9.341214849932607 1.2285414818064906 0.3455961169758242 -1.0557808328695752
P 2.111496271597307 0.8452462212583615 2.5468631983156027 0.798918885306366 -0.7652022097802111 -0.15685709033278147
P 8.02219731160715 3.604844114808182 12.857445129442302 1.1791410769964918 -1.2693682860148656 -1.314215267126227
P 4.331200856925438 8.172483511715111 12.621873643256734 2.403538968948254 -0.1610986392179548 1.1638844079477375
Ni 3.3668589383258616 0.5032567702611096 10.696391812292026 0.5366897598939725 -0.0759925534762304 -1.0342630134024573
Ni 3.223734133894472 9.009963743028395 0.8170515065259508 0.6040495773958694 0.9382220259157842 0.4199727321151864
Ni 3.230989265116549 2.3850259669350753 8.218041798896843 0.10762894943458884 -1.3693497462065256 1.134179424684137
Ni 4.714148054531045 3.207977188695103 5.374749311476633 -0.06175584105155816 0.8175989782143726 1.5839288738411237
Ni 4.933789184758062 0.1615635235876532 2.4164076902146516 -0.7674547532598137 1.1716249711251048 0.6314145996723836
Ni 4.710632971574612 0.15616060674475232 6.380760429474946 -1.1192163756164015 1.2421698712232028 1.7585530583493394
Ni 7.070631547859886 5.343938437669181 12.36941382383755 -0.20826167005700263 1.2407105130688567 -0.27973036752095054
Ni 5.548675616160923 7.9443780617290045 0.9057890727445035 0.2742441475953986 0.3011826238574555 0.1626544137408489
Ni 3.692683694500798 7.0734061200068306 2.4926587444165 1.1345604621726395 -0.021614492945982132 0.6833508835303587
Ni 6.11976880070391 1.0064572991949163 11.059894508338102 -1.1163591086732645 -0.5314357105838847 -1.372075629778121
Ni 5.317683111373267 2.4823609573873346 1.235897543349013 -1.8754318085169701 -0.025411755204885266 1.0390264962293718
Ni 6.24173749251485 4.025201168624783 8.533897779807338 1.0193423875368832 1.8787181925777259 -0.8677935967908925
Ni 0.8426197512733149 6.585981283381495 9.36290431780698 -0.20151458114115617 1.3894385465366006 0.544730627920578
Ni 0.702895672432842 3.1412374802956338 2.871430960825319 -1.2554516759337733 0.2975853934245004 1.5940145402119
Ni 3.5916930177738484 4.843081297372996 3.8478225837995477 -1.0182260145442528 0.40694160996284107 -1.3366944220653496
Ni 7.792910793747681 1.3152128125334155 12.568629978699057 0.7382205389850447 -0.2632141150334822 0.8324512127358568
Ni 5.601270630743708 2.0552830649580347 7.502972691169284 -2.661858989114229 0.4975645117577367 0.4666462249123254
Ni 4.682043630195626 4.855941814216266 10.333698991359114 -0.1335405270940281 -1.1075366252856282 -0.7263988637597684
Ni 3.9892442133691137 4.393225667386013 7.5855068389863245 -0.30240081253527273 1.5773537917267675 -0.511205499579939
Ni 4.426745498458555 7.430097991316521 10.547209816910112 0.4023879291538876 0.8157038180741887 0.49160906550525013
Ni 0.5125319024888167 9.139712485116238 11.189512958017694 -0.610919050822193 1.116703893607193 -0.12087553003184988
Ni 6.11592564333821 0.010452450679248325 4.4545652710089465 2.0007530330249996 0.7977246078879487 -0.03460987676438556
Ni 1.1925317305766385 8.204250488086712 1.6139198753937927 -0.40934713408054013 -0.8811507348240889 1.1757449068307493
Ni 8.172324161287753 9.13781902709704 5.572839702436625 1.147372012115011 -0.28846517629078705 -1.1994481639849601
P 4.558406445674699 8.030980332220956 4.512925958995735 -2.132426939223934 -1.3689219146404876 -0.6966499146321099
P 1.038824183057749 5.538739648337407 12.840927051613436 -0.7254041039466668 -0.6167202308850025 1.0623679991687898
P 3.892349779980727 4.382736659844017 1.5990074874594224 0.011511857294341465 0.13094885510745188 -0.39680143620504565
P 5.305759949985046 1.8668371242750395 3.9432941116071705 1.174239011709184 0.1639016558843887 -1.4756718039042327
P 5.228803067125547 2.6492852168224115 9.758112124764622 0.17818310550406732 -0.6871784848065648 -1.270290797829135
P 2.5474134259677164 3.82873146524657 5.397742640788978 -0.09175084475175166 0.1987159353500965 -0.2938668069223326
P 9.238528497187476 8.136826510205058 7.766393945279807 -0.5737987489311279 0.19885348936922528 1.377794534539769
P 0.7147391586073827 9.026536187473656 13.426734842089775 -2.879333436018751 1.1717206161627045 0.7000399141502653
Ni 7.276006128061062 3.4635284064050365 1.013726490748819 0.6860824235289087 -0.31700827803580245 1.1142670020309262
Ni 6.944969675556054 8.796265446386386 9.396736288246053 0.5638881746856353 -1.4325034960468748 1.511758265214145
Ni 5.512474948486942 6.499922679053471 8.636695677851622 -0.4025427095641971 0.5870661554639954 -2.2875487920331636
Ni 6.035556786622332 4.103198516039387 3.1439473749161793 -0.24368298697909002 -0.5521757713447135 0.19173667581878592
Ni 3.2893677628569837 2.3940339528580936 3.565551111487995 -1.1101221266246173 0.33473063501622996 -0.7717695785850838
Ni 7.65706924120202 8.62110183250143 2.5063638185247674 -0.18668574365843976 -3.3354026567461785 1.2130996933301237
Ni 0.6552377090317997 9.315654104028884 3.875095878119645 -0.09451015266444368 0.24876040150199738 0.43243795446173267
Ni 6.564431481469923 7.617915903844634 12.591060894738371 -0.49906166512855343 0.41828814532391184 -2.052109790230421
Ni 1.259777610921834 1.2898386003652467 9.566208279807952 0.17950902340434244 0.6909775468376809 -0.8100643604002242
Ni 1.6588566959088284 6.023455527697653 7.14380526410281 -0.23679474449968899 -0.5667716668810174 -0.23163351201372367
Ni 9.11188240165584 7.0748871416258075 11.707273429234773 -0.321474284226956 -1.2054290641587433 0.007583725884528875
Ni 8.487481812384235 7.429020032543216 0.22464567100152222 0.06669390178312386 0.0789737475917414 0.902269261970259
Ni 5.7460545543305335 3.273235875475595 12.533960949838624 -2.167740269813247 -0.16187485526234702 1.7940103707156845
Ni 8.200294848066406 1.3328913364156345 3.244248158028213 -1.9091104317163379 2.333557397552794 2.3366231809623117
Ni 1.2177934600902018 8.165959517747972 6.106692692105979 0.16753385332033727 1.2321140296490973 0.3892385362561232
Ni 9.318034986884708 4.499887344616007 10.972461740912976 -0.7546460315309197 0.8307056907996596 0.3460445173671524
Ni 7.444711362860731 5.827079559864945 4.333685786236773 0.20753893295836512 1.6423461374377524 2.262760272234574
Ni 1.7920361589621512 5.070258765458606 2.2097011279118517 1.2726988930499952 1.2500626437077182 0.37552041533908226
Ni 8.027315272391716 6.186189808248662 8.721712880269086 -0.9124742275277189 -0.3960601871636469 0.25119009398941256
Ni 0.15325011805682606 1.2869609191182472 1.5595645072664273 0.4782938364535827 -1.0616316352233974 -2.821217762822941
Ni 1.406117544564041 3.5167420755881524 7.136273613021494 0.1246285693163789 -0.5278035131479362 0.6865452220979403
Ni -0.03235751030828197 1.3961628296314235 7.0966253519838425 0.8608896705822077 -1.1628929905687457 0.35179478958736826
Ni 8.180788481046843 5.325313184777364 2.208247289601071 0.04097721374331007 1.3355430820697258 0.07084546205765219
Ni 2.775743841263035 1.5288548678481209 12.784816016718763 -0.2293174622860373 -0.7221097494661112 0.3928298531518073
P 7.4717353206297865 2.468497470207164 6.8397346533286445 0.7470337664013005 0.03638522349725346 -0.3136604446094921
P 6.280440899253811 6.646853146632358 2.841934259365846 -1.3200372731246428 0.8677336900872346 -1.7688415847595407
P 4.890820810698628 9.179212643991992 8.813713380826663 -0.48029466893369543 -0.30749442500809626 -0.14354160417079795
P 9.266068000456807 7.238146341231643 3.4593787338055355 -1.250006336548486 -0.3843997201065832 -0.507496683269784
P 0.8617830461963311 4.470810578400395 8.972746044685685 -0.5645445773227117 -0.5804928731218518 0.11098063951564113
P 7.396709390007686 0.7436387646419897 1.197709682110328 -1.9692544481960859 1.948274246399993 -1.9699368189750914
P 6.749774775596708 5.398426910271164 6.532603576993744 -1.3807623589188414 0.9434850740869365 1.3907104712704885
P 6.495039057132667 6.238456748422179 10.463852671003538 0.8682651371106723 0.3480461211782135 0.6118557037038495
