# total energy = -340892.9136002998 ev
CRYSTAL
PRIMVEC
9.01130505504645 0.00000000000000 0.00000000000000
0.00000000000000 9.01130505504645 0.00000000000000
0.00000000000000 0.00000000000000 13.18895582473764
PRIMCOORD
 96 1
Ni 6.2770409321758756 2.022199973680889 11.282690325822756 1.364966015316533 -0.14056606648224176 1.0680856183788574
Ni 4.684472958143766 0.36268881532529357 6.05634235229463 -0.3482209561931809 -0.19167316957070218 -0.9279718089426856
Ni 2.4833084625125705 1.5746084427004394 4.7489209120479146 0.8361656854729664 -0.5033947452862685 -0.34095450443875475
Ni 3.1415572759518473 4.484962660259587 5.032259778003338 0.534033553218048 -1.6346755082663718 0.13636128437227485
Ni 4.918983165557401 4.32055139626244 2.829531820914017 0.5579365850878908 0.6487512911786183 0.02554416701769149
Ni 7.4251623207542545 6.281213166499288 2.4300786824944205 0.4267905263679682 -1.4014214299300898 0.03640836342570504
Ni 5.364150655429863 4.301465451776501 11.635402725123317 -0.6177178189115813 1.1962875068687915 0.48682912761810343
Ni 5.551405578195591 8.075472174282242 12.277968262933072 0.11056720612730636 -0.05396771246570706 0.5113055154929129
Ni 1.935015595540445 6.482696940229747 0.43716995647715007 0.5134595857214382 0.570513907532269 0.17664815691677965
Ni 2.7319844417542956 1.4703836863622095 0.43606607158596616 0.6229150468418047 0.46596359702300394 0.18715908375043253
Ni 0.49345366783915506 0.09823133722699383 4.750081568162074 0.8490499976348023 0.5427004848644266 -0.12258505652378889
Ni 8.582880749407009 2.233235730959551 1.2113041552276531 0.3922744948689696 1.6295325306128516 1.4290255648006034
Ni 6.937290255377135 0.4348567544235426 4.708615145996589 -0.30566662777073805 0.31582711324350765 -0.17882716684596944
Ni 0.9709320937592012 7.402904396825893 2.6865638588520637 -0.19994775087466854 -0.34130520290995414 -0.544538823624746
Ni 7.615517132520533 3.7642835241580883 3.836100022352205 0.40459162167342577 0.04691003428797728 -0.4284979959773782
Ni 7.604072774873155 3.9278837706841614 12.66786040649923 0.9838079420756992 -1.1877383317471997 -0.17555415252165252
Ni 8.074057399360479 8.713319392671394 6.933974996181489 -0.9923815426773231 0.6741147096440714 -0.1451634560449371
Ni 6.897901840198646 0.9851699560291652 0.3155137312939718 -1.1206700773437925 -1.8086191217677947 -0.1049837985022579
Ni 1.7307022719664622 6.472901651440221 9.104481229145044 0.3803507468481901 1.0412451011472454 0.5143170486257271
Ni 9.390410845355287 4.827734688756353 1.3376768975703877 -0.9292468190003673 0.041335368413677194 0.8507302135507027
Ni 6.4020908149102365 1.8389640930495932 6.6935930222772795 -1.0982459440123216 0.5082518162682537 1.4192643716487816
Ni 3.356116453577064 4.200331573133586 0.29996202072086814 0.494146230104807 -0.1783214308541445 0.8403560694052302
Ni 6.25434145429104 5.675761590426922 4.583544537260189 -0.04615001619350117 -1.1621846516478114 1.560239500643984
Ni 5.136119576479585 3.0170210376158337 9.587540356396602 -0.21937166392723512 -0.6699726624512398 -2.04833361101744
P 0.2275057198551262 5.602995300661125 12.400283214528866 0.27797790360621805 -1.033160010146266 0.09292095380045287
P 3.9577021797039786 6.037790778209075 12.512204526667588 1.712944773591921 0.6962027997923623 1.3846526951121831
P 2.4364136300740307 8.452820580962458 1.4421728941961658 0.6603942747341852 -0.40476260003365133 -0.9796913488041644
P 6.533511690445144 7.517068622837395 5.891651737835223 -0.32217131029398066 0.3357508487506282 -0.22087910171069702
P 4.554250586205001 1.2400276906615204 12.388400006316587 0.37647429461191934 -0.8316551991971225 0.5590388170131341
P 4.028630163202008 6.20095848208391 8.137586200130745 -0.5146186390265459 0.13815822837169753 0.09719181326166487
P 4.819155926173438 0.8349109469022574 3.7434079344526463 -0.0421357528277855 0.10257236084728788 1.0767234965595134
P 0.3219622213195327 5.481955448755963 3.5669134112670213 0.21966348413604106 0.2829254774194805 -0.0060950571541443415
Ni 1.314758444968363 1.0076351399779122 2.45027031413259 0.49913391312738553 0.6388093494745579 1.187005310235917
Ni 2.0588219181524927 6.544892968955881 4.847706444546809 -1.2898841465800301 0.43089400701338054 -0.495461863592437
Ni 5.723683711662155 5.672202124859431 9.419934584693948 0.7976374474907811 -0.2163976689005757 -0.1257770810985253
Ni 8.818201974291716 2.4722786249059654 10.037679383366747 -0.49504200244619906 -0.6520916684057607 0.40727276805001467
Ni 2.244094353766707 5.432438326494284 7.007978538155935 0.16207385864703056 -0.8850618969530369 0.2395990467177035
Ni 0.22500778604421856 -0.15998400973560717 9.336910726180113 1.154899687950624 1.5471158187778322 -0.7097378581643196
Ni 1.5875937335428558 1.0644604307844898 11.474814056806498 -1.2410887223438818 1.158424927495063 -0.7525063594800975
Ni 4.4460788781742115 6.527609285516773 1.6702490296726138 -0.22411174971538175 0.6795363948802748 -0.4408187223262601
Ni 5.645429537008758 7.968670184647044 8.030874323547888 -0.32340158315665596 -0.5342816646731121 -0.4083559738118645
Ni 4.881505147088552 2.86988444575256 4.741350514520701 0.7774607154325901 -0.9212578872576198 0.9980847637096875
Ni 0.9187656477586814 7.414997568450128 6.901147712343988 -0.057403734730449525 -0.17854434549822798 0.04134359594379331
Ni 4.664729188375734 4.228194528917592 7.267760951098755 0.802549797190734 0.29630986914618646 -0.35430315783151883
Ni 7.945556186721437 7.10113380714453 8.883104999110191 -0.49091409632075456 -0.20394530206983585 0.507720626355132
Ni 4.648211465881528 0.3156993641817954 10.271941779886443 -0.599909844195883 0.632689095509433 -0.14534574725907226
Ni 8.38793017197131 7.196347258248606 4.539018776967709 -1.1763804835322191 -0.9481374852572834 0.8967383048497006
Ni 6.9124190529308684 5.670904496905713 7.237136030260482 -1.6062380788612856 0.696278133114988 -1.6102991363045365
Ni 2.679214238303087 5.102543453177126 2.552472032445752 -1.7917745394066302 0.03425300764559907 0.23201454950222622
Ni 2.3272236445517818 5.287212131340652 11.460978999880501 -2.2754237266348554 0.013701665856808662 -0.38264982729501196
Ni 1.1632964265926955 3.422160309638182 3.7426699085539687 -0.7973800800643365 0.036496295153821016 -0.10356403533659585
Ni 3.6398914667058206 2.434440154227751 2.664524909640892 -0.7661378342206031 -0.5821136965547264 -0.6249356768162593
Ni 1.173425133675885 3.461449600459095 8.062817598341919 -0.37500285227271546 0.023857266233571817 0.8236719238813299
Ni 3.2515312450294678 2.353734904550664 6.946372749922639 1.6683497605903654 0.6096898064007823 0.27350212722305156
Ni 4.195429423086206 6.924566292386508 6.0421774815970615 0.7402141723763058 -0.43796788314102636 -0.3720118879651916
Ni 0.6269363300116375 7.501073556046771 11.386381612891123 0.31035323461313 -0.1978826408155237 -0.22846514158807105
P -0.07671684598045017 5.51806374882922 7.819112255067353 2.0689042360799403 0.13542977369694098 0.4116706400073942
P 8.611960231397624 1.598623571149461 7.868399589045561 -1.7848474732694937 0.20754407516468773 1.40831635727771
P 1.7319097868678388 3.372517029103225 10.402855318936668 -0.4938366692841882 0.06093797313595311 -1.4128461268272636
P 4.111083606094521 6.028364952934149 3.9479952017057474 0.3317810654696028 1.172389360094955 -0.8861145065872674
P 7.063691833896618 3.9305781509491737 10.258475285344522 -0.4911159279189155 0.6632502561257416 0.2156070546784803
P 6.307949709129025 7.904365510496118 10.17072950288799 0.06700706214816847 -1.5287727974942704 0.09259442369896957
P 2.5415034717147393 8.578573345505083 5.760104704027037 -0.6836200780313452 -0.1305487914555558 -0.3410072120535611
P 6.740032783801494 4.091493028515469 1.8276855434185257 1.0731923434778032 0.42637657875900115 -1.6513964205654785
Ni 5.379839337842526 2.8022636112754657 0.5819194535838957 -0.672772336683564 0.39813866695923045 -0.23053076586784815
Ni 1.3670150040212243 1.0380032386170126 7.0157859330108066 0.12107813296095922 -0.7890412211813378 -0.3120913003501593
Ni 6.841590193790415 0.8461011857420304 9.104876825444824 0.19850253378770974 0.6903609962996046 -0.536480986317276
Ni 2.6818004829052895 1.4153696679076968 9.245049480623143 -0.28695671006606066 0.7621996755084615 -0.37552452910414036
Ni 6.325080200379152 2.02751664376904 2.714577303433479 0.5757797839168988 -0.47435902017555076 -0.29265041801672825
Ni 4.00399325469183 6.98315779901898 10.598513283833245 -0.28438200736034897 -0.06554307600813228 -1.3451654356508382
Ni 8.299457177182383 7.240259348654639 0.2488489963022209 -0.4776677728338095 0.28878245042088974 0.5009097740808858
Ni 7.603991673126049 3.590906011452957 8.077087901310726 -0.1845375869671854 -0.4376290117443689 0.2933646704749335
Ni 3.051498291441708 8.423443725899114 12.333203959496345 0.35319269837615946 -0.726892001346103 0.6247063344142725
Ni 0.035589248891769426 5.067273204490646 10.030043203311326 0.5232958550855697 -1.2967291945263217 -0.0035098129254713746
Ni 8.376503836934404 2.1520348594945857 5.675458810571055 1.7640040541615816 1.2188949598556622 -0.7186572721411365
Ni 3.4281167823979577 2.8598728856374147 11.399993189447313 1.1235196309774458 -0.5255062324733272 0.5841649226568004
Ni 1.176804373138693 3.314466200784802 12.709352961449895 -0.6166446404520606 0.41665960858155343 -1.0064169377244667
Ni 3.1296983982637006 8.330753440260603 7.856014451131739 0.21924773675486112 -0.1824501083105374 1.1624304491100304
Ni 5.819095411481381 7.6484624644566015 3.645625360226313 -1.600488577972018 1.567112059394101 -0.8817672853621653
Ni 3.1610487291733236 8.244776577021534 3.5497018182697864 0.8926469083891466 0.47058541206573146 0.11521293242943384
Ni 3.4511947351026273 4.633847445338286 9.541497092302691 -0.42190568747184115 -0.30592193831465375 -0.8221863404747388
Ni 7.358100187201677 6.0671045541357795 11.329603180871763 -0.642306821104855 0.8164697497059357 -0.584979962358928
Ni 0.5806993228551913 0.1365438025605247 0.2984724519656624 -0.006319000239492344 -0.24484512560799127 -0.3387418130581521
Ni 4.693664489482603 0.12906532034669996 1.6775562970869897 -0.6855959708107935 0.6159118760510941 -0.874842533217874
Ni 6.357169458317976 5.681510803166312 0.2568906850931803 -1.6338476130484378 0.7360824095961195 0.8696766727462183
Ni 7.761464232092898 9.082134093294865 11.249335880629056 0.7005003987264516 -0.6047453179113133 0.8282343464410318
Ni 8.855923298001887 4.817434766873714 5.7365761860606606 0.4772715658366554 -0.23737195715939766 -0.07364462206934415
Ni 7.919089983248726 -0.29700090582092503 2.387570553443867 -0.03844416290881121 0.558689146983199 -0.22120511759154807
P 8.471086496672088 1.6361736800601825 3.3697911092698933 -0.8334076631118551 -0.28268225106042283 1.55631676855081
P 1.7624581116116222 3.122795738454338 1.6370396664931846 0.9574759890493897 -0.31386356175923363 -0.32942567786354876
P 4.760753656950883 1.2534725580708788 8.195801935334952 0.061239049316139695 -0.12410097894768304 -0.15221522068539592
P 8.536427470924941 1.8123627199983694 12.280605871975109 -0.027956118893293788 -0.18362767355840634 -0.48459175364715246
P 6.284736586845844 7.80207818478323 1.1654672500236032 1.128728943092527 -0.5435255518688833 0.40204108733743016
P 1.5405096636943991 3.1819549573165617 5.945911510041637 -0.25624848234892644 0.17672837533541177 -0.41402139962775786
P 6.558085519818683 3.9027872856070416 5.888195902277925 -0.007426888591690436 -0.6328145653437037 0.42952232347683444
P 2.1988936467121887 8.465454430900742 10.151723759018635 1.1284155256171662 -0.4855718581722348 -0.2862028626191716
