# total energy = -340872.25102998235 ev
CRYSTAL
PRIMVEC
9.26799995109193 0.00000000000000 0.00000000000000
0.00000000000000 9.26799995109193 0.00000000000000
0.00000000000000 0.00000000000000 13.56465475221464
PRIMCOORD
 96 1
Ni 5.205409329240502 6.64331174105218 3.8660081493119782 0.8491898656467762 -0.3661176339679436 0.5946781634832984
Ni 3.636522271988471 3.8076188218699087 12.184206918381802 -0.7035335291258207 -0.27902331415159687 0.8256706994789135
Ni 0.12494190937390495 2.333960465665046 2.9994167749826364 -1.0642603310954963 -0.6460395486744099 -1.1533032899977815
Ni 2.5683759922427614 3.8917815307953916 1.0446639478874904 -0.17574441415558767 0.7053003912182563 -0.2649755778092791
Ni 7.5502782310255006 6.067018226715055 10.845633370862378 -0.04266488585837813 -1.1395985388171792 -0.8121294704593691
Ni 0.9459847704023795 4.544777013975958 7.7921211328848905 -0.17945117358321352 -0.073724326267344 -0.23198369626429077
Ni 9.07455840378702 5.783547175597908 3.172745986088625 -1.325950296174968 1.2858300311153146 -2.030244614726213
Ni 0.9352524262843629 9.105578400128126 9.930752008802024 0.07014175112240822 0.0869595940106954 0.1648982154697031
Ni 5.6915066665857985 1.7411606431464117 2.1278327289983934 -0.580335007387749 1.102453811446082 -0.4029440587676738
Ni 8.267250718909581 2.7932269427153007 13.064024655656585 -0.6921610256228208 0.8849585386059533 1.114208637989165
Ni 0.7133032866437324 6.408562566470796 9.499952194064798 0.06394950626876729 1.4323692844618559 0.390973773779675
Ni 3.684715872518425 1.45064591195181 0.7631058119913785 0.20468063757396365 0.8564468043195057 -1.1234345274628073
Ni 2.554019860084896 1.2278987975024047 11.62995548868706 -0.5678080785653319 -0.27531449784144196 -0.3164266945007196
Ni 7.2664642639045836 0.5237041013588335 3.498229808467759 0.35906818332033 -0.2336024628146364 1.212342503449125
Ni 6.419674898592992 2.2643948569000782 8.893313393793985 1.835932207760451 -0.1260033381767185 -1.0942177966895348
Ni 2.7074979417725946 0.8151613881637999 5.148084895010142 0.20936981551951683 0.9789138472081914 -0.2823724331294879
Ni 7.341618476731006 4.58458307441368 8.727580235571526 0.14545321937121403 0.20426823262689336 0.2658009019240519
Ni 4.946785786396588 4.670868155362501 5.200471338786202 -2.0436459757337837 1.1503105259180448 1.4248354379786559
Ni 8.19146628207623 8.383888500192171 6.424709276248351 -0.5240088219921943 -1.5927415870367474 -0.3072082612262451
Ni 5.360342486944202 7.133700162444663 7.49468876641422 -1.302320315460854 0.13412133929816256 0.3114996895127474
Ni 1.2378804336121663 8.568571938223016 13.055546289163356 3.766507494218784 -0.661945421271389 0.29750491789555217
Ni 7.130762206412356 6.275010685002214 1.9062682113619922 -1.5368242070438372 1.5193401913264608 -0.8684913941888656
Ni 5.8533352163653225 0.5383595899199904 13.56831785760197 -0.4326688395256161 -0.7278919033655271 -0.5278577634246393
Ni 0.01757212819322927 2.027069178290362 11.133882076032064 -0.10457036511392315 -1.2483713720482241 -0.419426115583097
P 1.6554223742036036 3.4104016055019697 11.785636573998984 -1.7653153167738371 0.471722096773336 -1.7125112855989282
P 4.333503683652723 0.7397207941342286 3.560599741953601 0.20526890597726583 0.05729754816988841 -0.18973507200772483
P 9.000497814972624 6.633459856943846 7.596627499535174 0.21916237612990644 -1.2368787980275924 -1.1240464500151932
P 1.9009687689037176 6.498656795461503 2.867758345934874 0.23055313446535133 0.6121290119698942 0.5682297394837827
P 8.742105972131256 2.909271571991368 8.080749826058753 -1.607356765846761 0.8189063841718864 0.9084715341262288
P 2.145643971594252 7.469767114140173 11.266259701887735 -0.43963215821732676 -0.3774099190523113 -0.00236052981237658
P 7.9195524270861695 0.10003230549999023 10.349506203806792 0.5818321607585657 0.785866422997782 0.9600278089369659
P 5.699226910670694 6.792739706695343 9.708562827958753 -0.09988170138900218 -0.3835129466262556 0.39744009823030907
Ni 4.397860676360415 1.2022820452207141 9.065054996482518 -2.5284117930649552 1.6451908059753988 -0.6715623755358627
Ni 9.388576783240076 4.23893301061279 10.088305230134534 -0.7321918162924617 -0.5848236392867218 0.49257245785978393
Ni 6.800895546785028 8.031463528316783 11.885418643496223 -1.2023545389984776 -0.16201600882590161 1.2707106589753727
Ni 1.0349297673804498 6.019779230195598 0.9401728075384692 -1.0727352013357268 0.5395994773415999 0.9441612742183547
Ni 7.745471581171915 7.709752708779139 9.006130905434567 -0.7912258875374825 -0.943048243659834 -0.1583599001305531
Ni 1.3848616472284232 9.302013662288198 3.2815476732850466 -1.0356269836295195 -0.561526102211362 0.854803869399444
Ni 1.2010401332070577 2.860382871453771 5.146267440190157 -1.12872277244494 -0.9566267536752171 0.8093295391167287
Ni 0.6475431187206108 5.504617444530699 12.192888254077266 -1.2146333563658307 -0.3227906890455344 0.11698159429408242
Ni 5.791879107689529 2.8123097549251423 4.310616357401046 1.3362709613746857 -2.297965359380797 0.5713230336971257
Ni 6.689883441564299 1.461656296072884 11.520692255085562 1.2048220267023637 -0.11643677753420593 -1.031466424493927
Ni 1.3005135783009023 8.269697470936487 7.426201026061104 -2.4211312281087207 -0.08776820595491981 -1.087386118479682
Ni 1.3745834351154005 2.141223135545639 13.454862707554378 -1.249418839476132 -0.25437029148960705 1.2945542983621898
Ni 5.119198392292496 5.795058031724486 12.024781561028705 0.1483577946125187 0.7724195534642568 -0.2865137089913711
Ni 6.875289783603092 5.0808937478712854 4.10999566639495 1.016226981836353 -1.7511822198065645 -0.35455049795563454
Ni 3.1223706983346804 2.7225306379378997 7.247880070100225 0.1660205019996044 -1.74650975403156 -2.056169305011775
Ni 5.142053280543817 4.495675149436017 7.544484804161795 0.7081692281256191 -0.30753170600393487 0.1478129778526422
Ni 2.589025096469826 2.1637907157938 2.8050621788454455 0.7070680246416403 -0.5375842466837839 0.8909710633486203
Ni 8.57741361032024 8.064031280674909 2.2872988655519384 0.4198547184800834 0.5884414385449673 -0.6655562785510989
Ni 2.741159318142747 6.206399680247743 13.070318554525796 1.7518373368920603 0.08939185760127186 -1.3113759979052189
Ni 1.94286012936437 2.5880982964596346 9.562552900753177 0.44017388965340964 0.1996641581959787 -0.5993943380120452
Ni 4.2949951432292695 4.002441452012246 2.8955252742402093 0.18058811540113417 0.027114853938921043 0.6757270484365137
Ni 5.659856446237762 8.938670986292754 9.912860134605278 2.042091743872786 -0.4778739753073447 0.7063673990301899
Ni 5.428842275697449 8.386483540220707 2.372823970492403 -0.3120391069559852 0.598622235732711 -1.0466217920781264
Ni 7.188613063048505 3.5061771185551502 6.416298566155865 -0.646617532665067 0.6145862152611351 0.9785052989158634
P 8.193106718094267 3.297248592257699 4.515361308452493 -1.087700050175675 -2.1155245070416404 -1.0696010265821194
P 7.266315975902953 3.869278826547944 11.062030051641953 0.37190030208799174 -0.3472375092339891 0.4696397603230106
P 5.292333902196355 1.972749429693043 6.506314017145705 0.6727849350890542 -0.3377429394799925 0.2839305216452271
P 2.1844490880209664 0.5997489689950495 8.403398567206711 1.6940281391930763 1.775000405272085 2.1462846710426327
P 7.392221757287457 0.5517249728669609 1.418510048398433 0.7915115370987014 0.3076733737881217 0.47526919069464596
P 3.6490340721260557 6.786669166628588 5.795620599330672 1.6668078700245423 0.0230234574783668 1.6991582613307898
P 0.5587297273439876 0.18232658560492696 5.493604280009595 -0.1677058601218273 -0.3206253059630994 -1.5793232567483122
P 8.459172465020021 7.163506050772419 13.55378934064221 -0.11520830444374353 -0.9214550908700905 0.5741029104351081
Ni 5.305327638339239 9.024492667236478 5.294556368620794 -0.019888768504127036 0.1999318100350686 -0.5103236111956179
Ni 9.214746173328573 4.903226185917591 5.18796509944868 0.05393017435955228 0.9231695024580359 3.0178197371538285
Ni 3.249054991727746 7.765527533392458 4.043406939262717 -0.9139986345920452 1.7863955344829041 -1.2867096055067906
Ni 7.3072156603527 5.223148281435566 13.129080455571962 0.5303795014052286 0.18912443500691944 -0.7097113758017584
Ni 7.067220797713633 5.9916045098857795 6.629291110498005 1.186093339944609 -0.38282440519966326 -0.7238362452389147
Ni 2.303413137329137 5.122405120327759 5.9306433124154285 0.19593914393590772 -0.33663196580400084 -0.511585508627177
Ni 0.713857513049827 7.161874882754482 4.914610070442771 0.7245139880322297 1.1668427192451132 0.09326008230742648
Ni 4.180349981968591 8.669398511331739 11.899322497249115 0.29316566709025 -0.32133364488403365 1.346178964517017
Ni 3.1949669431329744 8.227212958469313 0.6716241633854143 0.787040131590909 0.04093401921020047 1.080349780458191
Ni 3.428761513703861 8.292737719189846 9.722303564909852 -1.00000923442591 -0.7099959969217127 -1.481743206909293
Ni 2.476585719233403 5.211952537312453 10.740601906107416 0.7572469594888765 0.37022008617209146 -1.6523736968770835
Ni 6.1588084997244135 0.13718679110855395 7.542355017738375 -0.4712179034434078 0.7235850484600571 -0.04997736035939135
Ni 7.667027228309315 1.298363402277258 5.773103993083072 0.3134997506619117 0.3147691042926385 -0.188455691074669
Ni 9.101203904080021 7.7951109897177675 11.537051202065452 -0.38403359501641604 -1.075976333980844 -1.6125131132367196
Ni 5.1545094726807905 3.6918522325968985 10.13694832866943 -0.8615293610487357 0.6806635665061826 0.48784805580092117
Ni 5.644786678072049 3.179665474964714 12.697005364020713 2.0943049355412318 0.12513199131535868 1.1636640644068152
Ni 8.381682716167916 0.681402830292944 8.292141786783292 -0.9360072776526526 0.23996774291103184 0.9589453745060645
Ni 7.225564579454836 4.08801289695322 1.6268630318895552 0.001954552623209537 -2.247970258409593 0.6182397528533223
Ni 1.390283427288043 4.327701915588925 3.295166999434809 2.4309119616445685 -0.5014494486344397 -0.6341517960978885
Ni 3.5001436504888046 9.03074856730527 7.043826511856381 1.9932865494446252 -1.2964643709007093 0.2781385975537984
Ni 8.617117722756841 0.13339803266689146 13.26962411631743 -3.2304173155820233 2.2400967691987876 0.34081437931646463
Ni 0.7829096746091486 1.5544567810933507 7.126801989968808 1.6489407599361345 0.9038965131610369 -1.2638774381036235
Ni 2.6652914693084777 6.558945136124456 7.892024613183464 1.4124409209690447 -1.5120045768969959 0.17272722459581866
Ni 3.9269443231820538 6.122292579322871 1.7206904113213137 0.17997053642179328 0.15104922540175278 -0.024236761060177615
P 5.174342992898886 7.60953782367714 0.20653923587117773 0.6824188586343924 -0.6137732324415366 -0.673640341110814
P 4.565815374207303 1.621362473829069 11.279919807237945 0.4678410165513749 0.2731470578764779 -0.16985041726865588
P 7.482529150280509 7.082744697884339 4.0909100737850785 0.1691575049666893 1.760123745270569 0.40172252765574684
P 9.527226064764712 3.9982893879665893 1.1750990009217996 -1.152332698554396 -1.2627374109619092 0.1498670321681935
P 3.295969608243635 4.309879551392943 8.474029995983399 -1.4233413699316324 2.0753736458543677 2.6966105336628012
P 4.718412995885321 4.140747817533112 0.840828187646041 0.7329914293756215 0.05877824648047296 -0.807544422191848
P 1.834748908175541 0.5053191695566664 1.2910129513964301 -0.8440103783283658 0.1958481268839982 -0.016982650600925592
P 3.1118885902194156 3.4278810536941795 4.7673387684233255 1.4149914553050404 0.09300785708730433 -0.5459117927128727
