# total energy = -381169.5798183621 ev
CRYSTAL
PRIMVEC
9.26279746951294 0.00000000000000 0.00000000000000
0.00000000000000 9.26279746951294 0.00000000000000
0.00000000000000 0.00000000000000 13.55704039454846
PRIMCOORD
 96 1
Ni 2.307900032631401 8.139312555380677 1.1765614306377634 -2.2580842069151434 -1.1469693773599536 -0.9646169709695452
Ni 6.409550011959692 7.49674304862724 7.966835565809362 -0.19964744602543036 -0.32605573295005136 -1.1288058190770496
Ni 2.635858631413489 4.066293882295267 9.794514212485884 -0.5827698420814867 -0.058836867632550284 -0.24288568788877526
Ni 5.081061107408921 5.181608771357958 4.206003726659792 -0.14911472738320125 0.6443737309362128 0.8173364685816052
Ni -0.0180763487974706 8.184922568949084 11.144890180615207 1.767402795430485 2.2501862922243054 -0.7965511564051379
Ni 8.6405688275688 3.369601851317581 10.528234275396898 0.47626137940458624 0.6451008389102244 0.5530237211673056
Ni 3.8436810764281852 4.290518414880649 6.89954364899391 -0.7231034808379482 0.697301946393812 0.10723505643027983
Ni 7.43283901052642 1.7270578066293574 5.096051092168823 -2.7150309451515175 -1.235160529784905 2.618003682492175
Ni 7.020866840853706 6.260687597650622 6.020464361686819 -0.42705509288326454 0.2176929906732315 -2.8446934773473784
Ni 2.761675206210334 1.0040872199056177 1.4205333206411959 0.24142890083759064 2.0489367918190777 1.9245519630823889
Ni 2.4843563198934127 6.30208303847865 5.998257731603777 -1.7854905061701316 -0.4247943218735458 0.31831542688300013
Ni 4.905271741547586 3.8242292022418214 9.096299377643323 -0.7091578172911336 -0.5017831778247746 0.7792843989048902
Ni 0.20915581404901137 5.21180549033298 5.0980435198533405 0.7191874336129938 1.2761526559265506 -0.3893616920975488
Ni 2.781580957461046 6.745363462794178 3.789029646482012 0.4815154287146739 0.34613424886748134 -0.9654577217032856
Ni 4.236960921287528 0.5112934392682863 3.5809158971215562 -1.321021748525099 0.4155679181792714 0.8661169804194181
Ni 5.679474859759314 9.301052584168154 6.4687818951368925 -2.166335419045921 0.6463131140507707 -0.5487438628450292
Ni 4.02935384693564 1.2003936816349514 10.521767916649518 -1.956092456892831 -1.2020105253954976 -0.49164428961855977
Ni 5.864388080893778 6.62826318019227 11.842765997079091 -0.7619230248083072 -0.4061383973352554 0.5498831186557949
Ni 2.7315155384242393 4.155327889285422 0.120651639060504 0.3199804732902489 -0.9262252585652242 0.06187436890729345
Ni 1.5533803585368264 1.880764663890555 10.208301890415994 -0.7539680316272885 1.1085907775817552 0.5785506617938165
Ni 1.2834717100051865 5.144057391381044 11.958840888027462 -0.6140727659598263 -0.4383388933271999 0.6432840974164599
Ni 6.315263998939218 5.006328859344359 7.6901224664313865 -0.40061361086228425 0.044636921983084415 1.0176169202053442
Ni 2.5234267986163084 4.2438894936167655 4.361259323618113 0.5217004855739918 0.03594479352572519 0.024563548271977053
Ni 2.1179663753974096 1.4171246112599665 7.8641815417698595 -0.2660114752729612 -1.3254229629165883 0.16879343675905123
P 6.995282994900022 3.197350873998717 8.911354662998273 1.1167573725529476 -0.12185357767440305 -0.18565113174633832
Ni 3.284949147417974 8.624683130316603 12.10194925269626 0.3108016350044583 -0.945137779199011 0.22550605895974712
P 8.370280404350664 8.449301327533458 8.165026080495604 0.43496329198674766 0.7876371417449596 0.4963712627805838
Ni 0.5863952729423892 7.384931823244576 2.894129501503345 0.4118794135840906 -0.03504876407401706 -0.217591946318993
P 2.080322367448181 8.885745807492064 3.578096301644256 0.43448840923285814 -0.2434009369622969 -0.20748596823324267
P 4.069813745243276 2.999719832265265 11.459426986208703 0.014574812490381351 2.150202003819168 0.24400103244014107
P 1.0820521842040087 7.502875020394559 12.844034547787134 0.43623161717621 -0.9287660227092069 0.5934098382938361
Ni 8.920351617949327 0.6338615510760087 3.8950053096087665 0.2658024445859487 -1.8837935502181042 -1.132842193929952
Ni 8.14673205596319 4.003584745037324 6.627860248512695 0.19094914692048406 -0.7057822159506812 0.1093950401960761
Ni 3.8644853190103623 8.563622770965885 8.165378066790403 -0.42143080471795163 0.4066256213843191 -0.5117372037136929
Ni 6.811147848733012 2.511412950606921 3.0279648798635876 0.40297465489529316 -0.2364813270243282 -1.856296887459732
Ni 4.5903922124565195 2.8759781240482987 1.373504246536908 -0.997577485055966 1.1576222290881097 1.1375131170430601
Ni 7.2716478131020885 1.3149559577954004 7.5826693871461925 0.8313872902477165 1.139798056422495 -1.0264681999483871
Ni 8.879095119079773 3.789317719475915 0.33251867385920514 0.8128727763832968 0.6287056853816527 -1.3503788615309775
Ni 0.38883092334900415 0.20499589181229907 13.765682872331496 -0.6749354057731537 -0.32503114834027896 0.11726313009024322
Ni 5.717544956381197 -0.1702372452007139 11.819610856559533 0.07335434452243496 -0.22071583665995537 -0.8654032421818451
Ni 8.896833375778291 3.0652541226788466 4.377161693905327 1.8723899363668528 0.8083972571104465 -0.4726960306508311
Ni 1.4177915326606418 3.2326977082345087 6.266701005613378 0.37311669099359607 0.9257161801392896 -0.9445543958917151
Ni 7.207030539614435 7.844283200756934 10.143852273558233 -0.14238717885138058 0.6967478736625549 -0.023617125198307713
Ni 1.4326583222173626 8.209431930423902 7.824256106862487 -0.8547064245896313 0.6335239327059025 -0.6684184305902424
Ni 8.165609636721195 5.6433128993671415 9.508554988911326 -0.4733606608180235 -0.41843521242473747 -1.6084543697863138
Ni 7.7923189082876485 8.713856079265232 5.916359783600848 -0.3300062329573671 -0.21170900517565477 0.4509110735652556
Ni 7.547586542631501 5.721685426743722 3.2874334296354895 -0.4591722851327834 -2.6374594772239415 -0.7690424094619077
Ni 5.771556327038666 3.145229113976495 6.253618230803464 -0.4428090132834116 -1.2463168035120407 0.27954653364491855
Ni 4.709771143177402 2.9394282850847695 3.8375778193322825 -0.9066812749950256 -0.350358571361474 0.3791886082192889
Ni 6.486144082267805 -0.19529311171219635 3.640079235599242 2.29104497811188 2.709809548851578 -0.5879313316777681
Ni 0.16889506588185482 2.247941946151244 1.9218599900882787 -0.47387642411217745 -2.8235914052614404 0.24392287090403797
Ni 4.304421873525282 7.862021457455451 2.015037246280129 0.8259069838594357 0.8350508551422329 2.4178237610020425
Ni 7.422853715110754 8.016645331642577 12.967403891555389 1.2356246139055171 0.4041938720143749 0.2369094157006823
Ni 0.4058161146325921 2.855664809719396 8.202524662528296 -1.144312142242765 0.675587694645172 1.7608428828247802
Ni 3.4397119635635742 2.0381488516526987 5.8187354584581055 0.8798297020198202 -0.2657129701959359 -0.117024788827192
Ni 6.72784751322922 6.923783463069289 1.2457045068527772 -2.105263491435265 -0.8204107366315547 0.9630318858706124
P 4.513057118369877 6.446425207738698 6.17112375865882 1.917400182528956 0.1003928366974658 0.20820870533188016
Ni 2.9239130997218368 6.459059663162603 8.39324473124725 0.1056445720147084 -1.546227245525292 0.8018527711237093
P 7.373195859152137 1.3174105990617748 1.1470084760703385 1.6381038172216302 0.7130993184373848 -0.22550323074626968
Ni 1.772964229709175 5.752826951036367 1.4524334680271087 1.940084511500349 0.28069684519927784 -0.021201316667963488
P 0.5217983776086457 2.3659685084763122 12.173517329226508 -1.0764887548408881 0.25729749243873107 0.21102123508001078
P 1.4205796346273538 5.080597967547341 7.526529425684901 -0.3212907074612403 -0.8640863231426344 0.5193067885308346
P 7.235485852709916 4.878724564681815 12.834070556805099 0.07802243942206565 0.29614223322007066 1.5385501885960082
Ni 8.926057501043994 6.165280786165125 0.9960573009855423 -1.0770453986753064 0.39616843060673707 -1.2838333124002599
Ni 2.1007468353438625 6.904276012099535 10.729434272903687 -0.18994847357011158 -0.32878161652164667 -0.2038820529320682
Ni 5.087313495540253 4.27728187763669 13.015423158683735 -0.2418724161329125 -0.18794738397968275 -0.16453800391680695
Ni 7.980103596563908 8.678777866149156 1.8717797505759015 0.9802670188019763 0.19005543146162107 -0.3222782681854901
Ni 5.198643055466873 6.156119879703071 9.5183846693335 0.19264530367598434 -0.8328242798045592 -0.15434203722041162
Ni 8.991276856351702 6.486060717092722 7.219747433933701 0.1360175278796109 -0.258135157848678 0.7089955806816564
Ni 2.145060057299845 9.018250121890125 9.946407414049135 0.1923516836949655 -0.13897043986034777 -0.7261857193076977
Ni 5.362650143249612 0.7342406321154293 1.4633200336134102 0.6538158501857192 -1.0400055723131894 1.301354866223791
Ni 6.311707084802284 4.63047233607766 1.4437838679722392 1.207447380140353 -0.8639533971091958 -0.09781324889574768
Ni 8.242009188287444 1.2441511357570374 9.676350560761788 0.5151981656790998 -1.655058185687782 -0.12130670403199753
Ni 8.01747898339342 0.7762557540782512 12.029880058835783 0.4721488998981094 1.134621654427878 -0.3328326466625687
Ni 4.21974138123398 1.8377760219386918 8.167574276014017 1.03938259401721 0.46660508726174477 -1.1124440898895744
Ni 6.426158207395954 4.423254299209499 10.90045700330964 0.11922591024356886 0.22873227920652864 -0.19182589309848253
Ni 3.6634918818818383 5.422654543715927 11.528229191485595 0.26024886175757117 -1.3896097820071425 -1.3529198827852764
Ni 0.542331220231937 7.857584577581513 5.394414127516219 1.8688842372064394 -0.3877241564941258 -0.8391353096242515
Ni 3.714140857144236 6.526307571064031 13.447607678195528 -0.7231042521688966 -0.210285899575883 0.4964645938253386
Ni 4.299975730854113 5.67060110001144 2.038897285669012 -0.32408009728091924 -1.8828826083680605 -0.019413114419289147
Ni 5.223476614844796 7.672013697843607 4.401632151631772 -2.3592442607959367 -2.6533136706473788 1.82404908316962
Ni 2.2169301010198414 1.2954299812311842 12.834436437295746 0.14086611422116382 0.9559634090596052 -1.3849740830073438
Ni 5.701298010036967 0.3490907443862637 9.01046937221558 1.1263478444548602 -0.8929418139217461 1.055150655484744
Ni 0.5755846622933869 0.9547257734584126 6.185060563373487 -0.8581663581137737 -0.11972521847749057 0.35342204077814615
Ni 0.43215209972148183 4.298845669591858 2.571459033660779 -0.4218545225189316 2.3849506644231058 0.8196340063665304
Ni 6.126729024087199 2.005469703019608 10.698754962192899 0.9586532971869425 0.9684962514192934 0.3703913216426331
Ni 8.38379482551157 6.270922988591542 11.645077526002803 -0.24638573062223376 -1.9002702077168887 1.4018721443142632
Ni 3.032500871667903 8.73212231540595 5.668008443066315 -0.1343265133304332 0.20534038264514962 0.08335079361351451
P 2.2129378354130216 3.124480448177707 2.569723185459577 1.404119545587543 -0.6062704963065881 -1.219870436395054
Ni 6.979999379467879 2.6189632892630477 13.03243706463874 -0.8780744098916103 -0.0864433164959092 0.0011132876688367925
P 8.054363441969658 7.479931071651883 3.984508940418564 -0.2983670087855313 2.923593948499023 1.9726323635293832
Ni 1.668424300153319 1.6543726367529794 4.23154496374621 1.4519592907786414 0.6613859492234933 -0.7064075082395059
P 6.908685103581778 4.0386166441672415 4.681882713272495 0.12647719248934347 0.2510340280275225 0.10958761582285644
P 5.113517948908454 8.061819993741098 0.181121958227569 1.600619190012611 1.025386279738118 -2.1723438300235296
P 4.546180881270085 7.94396942456343 10.239469350540885 -0.8867202584920665 1.6060277626226922 0.48637995589582683
Ni 4.577628077871372 1.4275637837399815 13.074450334042117 -0.6153794005863917 0.8746571566799454 -1.3760032469673011
