# total energy = -381174.27281689114 ev
CRYSTAL
PRIMVEC
9.19936467651999 0.00000000000000 0.00000000000000

0.00000000000000 9.19936467651999 0.00000000000000

0.00000000000000 0.00000000000000 13.46420009011810

PRIMCOORD
 96 1
Ni 0.54230255258056 7.77608504084917 3.4503901014766964 -1.3854638781595687 0.5157519813000407 0.3962165102358531
Ni 1.1927896347344429 2.7399847968338746 11.500500300167058 0.31472616686984506 -0.4881334482518239 0.9551416844892582
Ni 2.199660107676636 3.330804799156756 3.104710171586223 0.812907229165658 0.29041535803862245 -1.1518927828035002
Ni 0.5042962970125986 4.690296122700569 10.318841896791776 -0.17729196114836565 -1.1635766468993316 -1.6094519578128925
Ni 5.570362551795935 7.410916256715408 3.7207778304919263 -1.0221073518765302 -0.3909634893670299 0.21402839733745074
Ni 1.974928825963481 3.9945481659292748 7.331095208568995 -0.17735855272024292 -1.0300425475632067 2.1174713463553663
Ni 7.543423906713209 5.133070747946623 7.068314434273509 -0.7459572455076702 1.6855769231019293 -0.5012676716409367
Ni 6.9082261687898425 2.52080073207078 2.96834430800823 0.889326585766662 0.7678453038300131 -0.6337154798914183
Ni 0.04043396792802944 3.724160436914045 1.5057281055088947 -0.48787839481822437 1.5546357813039613 0.5473240996793671
Ni 2.9871441298310226 5.026956075444218 9.388101686854426 -0.4494128917531744 -1.6436005786701435 0.2653689565929559
Ni 3.6389835186045723 8.735367199889765 13.425666082399763 0.6967951819607225 -1.2484860432492175 -0.3171129219344667
Ni 3.982221017151362 3.104472827975424 8.57711328773917 0.08482737815904101 -0.8180165253677654 -0.44624554976878633
Ni 3.598800693334481 5.700689952345702 7.11720353835212 -0.42078700048636564 0.9174462268210135 -0.4601058526906463
Ni 4.271228260440096 9.213255800423351 10.944011407190661 0.45735605785965106 -1.5387062545578984 1.4432597061221144
Ni 0.8047355908881326 8.819394197604284 10.068273279214704 -0.8077051161394284 0.19027140412716909 0.8351007345435618
Ni 7.475679784623248 8.604175059052594 4.286220465188875 0.6513149381407363 -1.010688311406311 1.187395089475168
Ni 2.034770693724915 0.02151547429983738 12.063425068729295 -1.2603745671566873 0.20225043086591618 -0.9609202388442483
Ni 6.953422647853935 5.914841964585276 13.289165908096278 0.22978977393676553 0.750185938877037 0.6600808572588246
Ni 0.2336473060381947 2.5632282023422226 6.0922001975322075 0.23411668344689357 -1.1056203820995216 0.20960198613498096
Ni 6.51597445480371 3.5193549792702616 9.288305138068942 -0.8396438738295539 0.31120581242141243 0.29318906412901763
Ni 2.4117606615748106 7.08683183559818 2.4043560928797794 2.3633562260817813 -0.4766976956110564 -0.05452692740328674
Ni 1.7145684045362541 6.572679339182108 10.889817949391645 0.24105094867288168 0.7446531819842659 1.2596225194820112
Ni 5.164946546838763 3.2853599372441527 4.517548611371166 0.25133767531087037 0.42510105448068725 0.1692238394282505
Ni 6.685684335889481 3.940308711306459 11.709828165526678 -0.2903513375699064 0.05249318480270959 0.16090503514991
P 0.7874168667916412 7.383262966247941 12.697992650166626 -0.9218456414402897 0.985631111327367 -0.3061908757053243
Ni 3.150543246691683 0.8889704942462183 9.21861443039584 -0.8000810239352673 -0.6625303472405816 0.19104170663429032
P 2.7577027733609336 2.0090032730331737 12.732770848640431 1.6545514212546923 0.2637000535309652 -0.03252368365931818
Ni 7.41592991050941 1.6147736956237195 5.131745119484759 -0.12309593472193639 0.40138674158288296 -1.0560238021183168
P 1.6249665917773966 2.648147538438425 9.419971966127713 0.29231874570892236 0.5246477411277739 -1.7911489900074895
P 7.805808188387556 5.338575357312138 9.305768292192159 -0.010470817624336807 -0.7403208731574992 0.6363598594928007
P 2.494186969821152 7.879679087407435 9.296787872313802 1.3195737032246628 0.5158463407860601 -1.1006807787060593
Ni 4.9613922028022905 7.990908606716198 7.886871150776519 0.1036697076765247 0.10458270640909731 -0.2008257826042477
Ni 9.338459154802003 2.6733721966093476 3.783938829058637 -1.1385145617243813 0.033360577738316737 0.10124901405017402
Ni 1.2048684006638455 8.685543440351577 7.517857032173229 0.25773946507215617 -2.126543740970279 -0.25388255321991116
Ni 2.333510864929344 4.003167970709054 0.6413889104066026 0.5713857686142612 -0.35205421389634206 0.9377216892405981
Ni 2.972379149391806 1.4962214819662867 1.2989760622819726 0.9367891501239995 -0.08902059030478217 0.8640899226870602
Ni 8.891885191910218 3.7487411395517927 8.003120763434616 1.3792626344448633 -0.7834141048025476 2.304927135410611
Ni 0.4743146473244679 4.820623523250336 5.833405507987072 -0.3512880251542789 1.2421752705398414 -0.8932300345861262
Ni 3.3316787388089213 6.5016602432377155 4.53979175542349 -0.7190884461412842 -1.8223069036675326 -0.7067664342408215
Ni 8.344090618568154 7.321746814100253 8.81148458378395 -0.9919236292042982 0.6832128152905975 -0.4405140466016478
Ni 0.768909584768205 1.8137191579156142 0.5667691830952887 -0.35234886231862544 -0.25039048090625265 -0.15550417584931284
Ni 1.5269013634396735 0.8948948851514241 3.093036177706244 -1.4544853996346048 0.7055870692207397 -0.19679917794335783
Ni 5.494081419209031 3.950501607460136 6.934009228401675 -0.35676421777750167 -0.8834714125374655 -0.25916051378939886
Ni 4.105418910012411 6.74893916797674 10.21073740169186 -1.0505800053949261 0.6561154448531733 -0.8760573794615815
Ni 6.0298340240807295 5.120486016955441 2.892783485682005 -1.5140666016323472 -0.80934008063969 1.019029741392471
Ni 5.752289189282502 0.6367533505042219 3.547170178557498 -1.2223759764257272 0.7454425106547807 1.1354225530626187
Ni 4.274015667962266 8.251857787488042 5.477775545172576 1.8367693589497656 0.9854138531102384 1.3412745852368644
Ni 4.993930355957124 6.800041639216519 12.255195946445149 0.2802124493636916 0.1007713030828071 1.374220958255898
Ni 8.448540206049065 2.3552029670325667 10.191201630688298 -0.5218493524470303 1.2439053658570707 1.4284370392869852
Ni 4.300519037834778 2.2623813766078364 10.8743344985647 -0.6285727593482143 2.116783833370038 0.7623297733284226
Ni 7.351920730511861 1.3085452415049466 0.23369790254437273 -0.5171817717680319 1.467622194126879 0.6603227980663015
Ni 5.9982066080371 7.7831225548902925 10.32942484601126 3.3954245458257653 1.2352687732279952 -0.7100114235406805
Ni 5.642770751819032 0.9159899484817462 8.977161463359094 0.2959262605545226 0.2740176334068894 -1.0149848818991358
Ni 4.703736394614396 3.0709503427913094 2.1298884455936506 -0.5500034462837431 0.5288671785257602 0.6767881427111764
Ni 7.130473622017896 7.468412286463135 2.046033476000138 0.3646590471445461 0.7584600059603712 -0.9283944983024012
Ni 5.127891505586947 2.1002977689078044 13.546600931529941 -0.7620700919091327 -0.3302024081285732 -1.4782686180971314
P 7.935031665166167 5.583076073893753 2.2672496804386357 2.576144323254228 -1.4618968616073273 -1.1274140809358455
Ni 2.9069992640450715 4.569646453877938 11.910323720780571 0.6559442093826316 -0.791356756688392 -1.7700397188327
P 4.851119417428531 4.709440000765372 10.66803598402043 -0.008200533532921361 -0.49968335787295237 0.12676926980846553
Ni 1.2645998760481638 8.727989309352537 1.2343266064971525 -0.6353278186838607 -0.1496392324281036 -1.5585788251121093
P 1.8766244141420074 6.843002672644021 6.12244126930656 -0.4141923779879834 -0.09317420746183955 0.27625937825321456
P 7.877701223984113 0.030631124840160995 9.686226420556437 -1.7176516921492868 0.9910741367198093 0.6608143929907394
P 6.576589069204953 7.7458835263432855 6.2429722663237905 -0.8244309135345413 -0.6064407033358652 -0.45307517109611
Ni 8.12490655380506 0.4098298601688453 2.273187870390981 0.9716093431269783 0.5773250169168315 0.08019450737271994
Ni 0.9104979277202434 5.388021942895183 3.3345838982000147 -0.5045100898376343 -0.7426412937605598 0.6081414880770558
Ni 8.96445898049899 0.7722857516349915 12.174074108121724 -0.005289273423397342 0.05537436300524657 -2.1173744157661853
Ni 2.7434805554425363 4.146457276205149 5.251576964780258 0.653873442896532 -0.014584839792710365 -1.250582263656614
Ni 8.224931246836586 6.364994480368559 11.294376573553217 -0.12928406581051927 0.5406788264487076 -0.050627078128248286
Ni 5.116879865969663 0.04178351473826808 1.5052166208282591 1.4381678934215039 0.36144773929610013 0.43906497285994706
Ni 7.836092497176279 8.279814656992576 13.213469855108087 0.2802183629009626 -1.4491390477210269 0.4933347899471053
Ni 2.6928656505350173 6.431524286310249 13.30545706314912 0.4722815688212318 0.4323569647121521 0.45279929172690403
Ni 7.799975791129947 6.106878703942684 4.392493366765146 0.0930749628798139 0.9395407447272078 -0.27815376706245
Ni 5.5782556067597024 5.86591974279353 5.7547877367512195 0.36652978180469775 1.0168021376135328 -0.9557839460589475
Ni 0.6456923732411604 6.3165138280852755 1.085334614786559 -1.7926880523598352 -0.46446541521092266 0.8316012060307355
Ni 7.139001433150079 2.339223670445078 7.353230720053633 0.45829322496193975 0.19886917309850913 0.24174463230579657
Ni 2.222879304329958 8.892998315046134 4.933498808914598 0.29140394720413687 -1.3827745042528639 0.8114707538294478
Ni 3.496963725445307 1.6537054072865005 4.277845363511703 0.20071471094768012 -0.20970200204795497 0.19863545982114825
Ni 1.217296742454114 6.280443118862741 8.576991856124343 -0.14212235522576816 -0.11795321417873235 -2.1903824326927954
Ni 6.846102858568018 3.8900341828950467 0.8840285954973417 0.2231028488348932 -1.1291598599823587 -0.017650880312543794
Ni 8.842300615855779 6.974415598235425 6.366210636389782 0.2343532249377319 1.3975907433300898 -0.11561351030196217
Ni 7.774769531688543 0.1378644400973375 6.953667350956542 -0.6148235280829217 -1.0195208220962764 1.661920460025254
Ni 2.255003486070608 1.4615674749167367 7.264003321440493 0.2037522122224233 1.6157863846713527 -1.9571625500285583
Ni 7.357164368424853 3.9933522485105217 5.001923683996772 0.35428798832286723 -1.1379229508869693 -0.0006954834051278345
Ni 5.457237963346688 0.9927218499418725 6.378341838698315 -0.7222352193003819 -0.28461854885118726 -0.043540860705428244
Ni 0.14503442499099806 0.20882282023431614 5.386770829287873 0.5750691310031192 0.935234661152686 -0.9224449655871855
Ni 0.6100466746705216 4.878285141563736 12.631951330493672 -0.5055899531653744 0.60737015712867 0.6457119901316621
Ni 0.01585878490913702 1.2475810512428365 8.480062749334435 0.8906213933186856 0.6208625351881502 -1.7663581562160546
Ni 6.4689565015172095 1.3837132509559347 11.04033427584291 0.6955512822512925 -1.0828995434632382 1.719691348287135
P 3.812676724631265 5.154624859578451 2.1132734729012714 -0.9615234196458861 -0.9357056872518337 0.004308654677682901
Ni 5.651868923566313 5.7512680597941825 8.490968596256984 0.0046428980886500685 0.11294059145548938 1.145748103358343
P 3.9681275903395994 2.598011000498407 6.254013343908306 -0.8822768780087322 -0.14773507342685524 0.5511373027778701
Ni 4.729145040080512 4.5842090482924425 -0.006357680985384648 0.20628603438787058 0.44945094407996145 0.3920644357406925
P 3.4757867877686244 8.976224968026562 3.000941337097525 0.6503973114224735 -0.3995088078338797 0.010715843755607352
P 8.442137448176359 3.215775942202264 12.779625973170688 -0.11588656145769073 -1.1824292608294602 0.5778976015908498
P 5.824835379776994 -0.2132403551918935 12.71771792808424 -0.4943226077816713 0.1521164903240025 -0.27251585205038226
Ni 4.831092400346802 6.842027539979499 1.362160059260583 0.10978584787659158 0.08162712605418844 -0.6929686091257807
