# total energy = -340867.28902447445 ev
CRYSTAL
PRIMVEC
9.23895890450664 0.00000000000000 0.00000000000000
0.00000000000000 9.23895890450664 0.00000000000000
0.00000000000000 0.00000000000000 13.52215024502184
PRIMCOORD
 96 1
Ni 1.165762589582039 7.350848268925059 8.865825025373391 0.09227226447286044 -0.2031608584953275 -2.0847160063012162
Ni 4.741101082749723 2.37080923222285 4.955503133666419 1.334955842107688 -1.4274530781071608 2.2177040033258844
Ni 0.4451727652398405 4.53268864885984 5.027737933487682 -0.3086858742130361 -0.08724601490286264 -0.6308060195541071
Ni 7.335853438700603 8.738761624216924 2.3947593852671245 -0.818083888270591 -0.2717437497710481 1.4165361740843412
Ni 4.4688659210776205 5.987639889616063 2.1400560719215322 0.48336225211542555 0.29656877923452796 1.1733280698591406
Ni 3.6345509804804017 1.4244719154879049 10.654155781411374 0.6496442353065328 0.6832680940085651 -0.40377683908161427
Ni 5.275537896775533 8.416608367841963 1.3409535752149297 0.1300829075627308 -0.03160194317599718 -1.5307525469284606
Ni 1.8890899174334834 1.4780024431037388 7.000606729833899 0.00464444075054684 -0.2625921651787671 -1.2863139127302687
Ni 4.798271760155106 2.379503092507023 1.557616399363864 1.0044932383391925 -2.368623645128308 -0.7330935021711246
Ni 2.91927078579316 5.3940367830718206 8.912733067280728 0.013327570346841563 0.6596861929235671 1.1898620629584218
Ni 7.54637235520982 2.8678282628789447 4.214759444474172 0.0980860429411601 -0.259424823194379 2.0385320515459857
Ni 7.397763701999482 3.079511288204107 9.26134762571722 -2.5586363962774517 -2.338948486661378 -1.5813433725021344
Ni 4.871370402629472 3.593354462938288 9.227285432204265 -1.6327762343611298 -1.286634786404797 -0.7523844891902527
Ni 0.8453166928038004 2.926246199729983 3.2243162620531325 -1.8680745968209507 -0.10198306400272114 -0.7512922845673384
Ni 3.391326149618398 2.026648775851183 3.238717027223101 -0.1400878412942426 -1.625008674600569 -0.9756210353895327
Ni 8.195169001964105 2.0970588812982442 11.697200976083147 -0.6522765307230572 -0.20083735256847346 0.07615658985792045
Ni 0.8516675531219096 3.6144747228847494 12.226890813048373 -0.07158336866494124 -0.7658935794202809 -0.4427272522028827
Ni 7.179169935449493 7.438165669079917 5.267364189874993 2.180099305599233 -0.1312537879423804 -2.2145885976253536
Ni 5.107804598731787 0.9784242208443328 7.413113308244036 0.2015983991042141 0.9503206089515313 1.2100359668031353
Ni 5.617250029050169 7.606490260490494 6.747417681844923 -2.550507853633046 1.1740217534920554 1.2251324561249417
Ni 5.926283963848587 6.998428183335485 11.096682508834649 1.6466067124863193 -0.13643790324648114 -0.3734740743330149
Ni 1.0559852804464949 1.3171521694082482 13.104072674949 -1.058907551424015 -0.7165561666377337 -0.08980760498245179
Ni 0.3081128106004033 5.541019379523374 13.240362100419787 0.9762316723903383 -0.04422374570506577 1.9294064629612127
Ni 8.02706614556609 1.6582730083160542 7.348896076918634 0.03227582931457022 -0.5392148403086713 -0.9257794292770571
P 2.697711313450164 3.9249776521413864 2.669786560305729 1.300026891440987 1.9372447280587088 -0.22327485563638325
P 5.594845553822624 1.5805733643310413 9.683198487115042 1.3991174643872615 -1.1489424419259244 -0.13759078590400176
P 6.769884058096809 2.558618787862249 -0.13721054966880172 -0.26984370453485784 0.16677743477028698 0.05690108406241813
P 3.6224571833369557 0.4374683974492219 1.8672601054468256 0.7863011965423554 1.4411020363491633 -2.0824958587214457
P 2.4010206276843236 9.291066584671631 11.955203521636474 -2.1751273063059378 0.05896747967314361 -2.339943503584796
P 3.360264769942106 3.5396761119807465 12.586579187570528 1.1377373172387244 -1.737991946368536 -1.1572306500766456
P 0.657216109960415 5.01380743132352 8.694241853174049 -0.28581256915928843 -0.17314040087383728 -0.8504682181385675
P 6.275461174879453 1.2225729475920084 3.6018543050864706 -0.44185076313520033 -0.4642859522102649 0.13193410183885665
Ni 7.075693596254233 -0.19389156225477727 10.763239244736779 1.392142575731325 1.637019840128832 -0.10957913118242417
Ni 5.407849026562617 4.266689784416022 0.7474567166975392 1.240627209326431 1.1004295819272016 -1.2622800117095165
Ni 1.8260894569895112 0.7831255651556772 4.465839238156159 -0.1665288090945906 -0.7938054753392007 1.2346095423774415
Ni 5.426714980548038 5.641788703773616 8.173584946283036 -0.36728542902379974 0.292096088175155 0.354517330724854
Ni 2.4646031425362684 3.245415272394223 4.756131944913721 0.48630899344857537 1.394944049735862 3.8694701485259553
Ni 2.9338591018279203 7.979236055564851 2.7323537135793208 -1.9026147966896654 -1.5190514564414483 0.24097150158519792
Ni 1.4738726284947852 0.9001933367250585 2.186639826372999 -0.1655754440423858 -0.2814126403193799 -1.6711185815847545
Ni 0.6777968147096438 5.998532622108136 10.61269687743773 1.842242466249195 -1.2604460438245713 2.1863609702382285
Ni 4.021598683864961 0.11615773412199448 5.618183163894698 0.7559660358939237 2.217680606287116 0.3889557149083817
Ni 1.0080350839801195 7.960397818456 13.407996541603767 -0.6020551726736599 0.41513828684102055 -0.8913747265449422
Ni 3.7393392518333166 1.3441391682287267 12.978262076613506 1.0526183759811936 0.7781739394495307 1.7272287943147608
Ni 7.172989071974348 4.995412664239791 5.024452559718233 0.12949849581417053 0.4976760976349364 1.1179639912665391
Ni 0.3745326097172471 2.7018318891002613 8.629106269338289 1.0478703197732468 1.1588121356311527 0.28419405971925893
Ni 1.1232264230057012 1.6684081461818756 10.56724951492564 -0.220907126735155 -0.5219236573283915 1.5830971219684475
Ni 2.003486705997387 3.166431413128126 0.7607561979717874 0.022241070786387502 -0.4373364202046145 1.035133846043185
Ni 7.179511776927192 5.088495174721242 12.560711950563485 -0.9534221306949903 0.27899271802397757 0.469170791106392
Ni 0.3186988096584328 8.534044773869729 10.620040001937051 0.985316922521058 1.4821697529237507 2.584484210578491
Ni 0.4815687197600022 8.14332920381905 2.9677060275995135 -0.2512957663293414 0.8210206023014118 -0.08978472216431634
Ni 6.768285718214597 0.45185068470147755 5.845638939780051 -1.0107803568994849 0.5115263732544674 -1.4074272698045371
Ni 8.464687909732334 0.8529637790495073 3.9829225542989612 1.1344128808511815 -0.7121708930858445 -0.8332652239967198
Ni 8.430097247772775 4.124031020709412 6.9301023870064995 0.08121009312142788 0.23149004445732388 1.394250366102947
Ni 3.5221775239061195 8.127299610202643 13.204731131692963 0.36145005328894525 -0.7929220442929827 1.4455577581276717
Ni 5.415129326141711 3.727254693648727 3.37034170236713 0.15851262365833346 1.839115490584439 -1.146590139643664
Ni 3.192355931680082 5.304936263857615 0.3242458805560073 0.03031459182314134 -0.5325873076898247 0.9941152375389782
P 0.36777615910532796 2.167820067181861 5.50862666587583 -0.411982000600226 0.6186657846471474 0.03316748789090417
P 2.42770274086253 5.585329426200202 11.93674592963252 -0.7015653496558563 1.0320580353313387 -2.382847244926858
P 6.622106911183577 6.3332416235693785 2.7419271227466533 -1.7810918628818035 1.7299806460282854 0.5123115881599242
P 1.8445396578263806 6.622707443509264 1.3448764371454929 -0.042825579805958504 0.5904985781843121 0.028671656903079656
P 9.107728685118882 3.6599304004598108 1.4365666365272365 -0.08026958358502949 0.2152257600796616 -1.6269951089029784
P 3.321895373810149 7.599468651759387 8.697108702107288 1.0839989471750042 -0.6743507369142774 -2.334070589743787
P 8.932955300426316 0.0052652826524445745 1.012230495196956 1.5577149344499173 0.41655882133763095 1.568065424446306
P 7.1241149796223 6.058724439059665 7.0425931783582625 1.5931321376069467 0.025826217034484556 -0.6120693623765523
Ni 8.251452739319241 4.336139038141985 10.695628543823304 2.140903352126061 1.1454390567583563 0.657382484491055
Ni 0.49196439626558325 6.345104446741406 6.688731815187039 -0.04083348907659419 -0.13354721196224742 1.646338289316281
Ni 5.448324905313906 8.57851188284712 9.217860770274525 -1.094284645371728 -0.2902688051584291 -1.0637887907757164
Ni 2.4426144204572755 3.6936618392456944 10.464507672959488 0.13449157815338772 0.22522503738421853 0.2990293249598786
Ni 1.9997541666192722 8.370330422928655 6.649165973883138 0.9045220625601776 -1.0970568088002268 0.33081227379843026
Ni 7.478170360929514 7.0644867391610315 0.8002629099390065 0.4777361641778999 -0.7353283050389142 -0.9697123832145816
Ni 7.2578119532378915 0.23201058260171722 13.365969441660436 -0.3578913894034094 1.1121520125704525 -0.3194742230777918
Ni 6.169684334928869 3.263061683810558 6.941122617130795 -0.48335556724720624 0.09817783132401801 -0.1721366421996713
Ni 2.30819680805086 0.24404709820025167 9.058096074244698 -0.0920282667828544 -0.43568371509253995 -0.5831038283821377
Ni 7.76991820370701 4.633023742043816 2.8840038320452894 0.39483557072792647 -0.3260351641247611 -1.8248954903303152
Ni -0.049355442108482465 9.08227535346862 5.833685574811229 0.08985362772903879 -1.0002452616961162 0.7865323387165551
Ni 5.605331772125 3.120079556543963 11.594338103755973 0.1861373273541375 -0.9317024796297115 0.4460781709529866
Ni 1.9668819510070632 3.9275368437446976 7.178611902334547 0.46306005022296376 0.531426197502188 -0.5628715604956628
Ni 7.824908486822205 8.231062357122461 7.734021152965111 0.046129447368210875 0.3765167178140806 -0.3850021295772724
Ni 3.6721997378215345 7.621623675097801 10.735221178107889 -1.0676601008056643 0.06819671158089545 1.2622291038669229
Ni 5.06594287615199 5.831113448665517 4.79966037567127 -1.1996253129927725 0.20713064177635296 -0.11502498478834385
Ni 2.481602826832633 5.734363071517948 3.996850284775466 1.4624069684745264 0.29186623155253605 1.0378031653452322
Ni 7.632673469890437 1.850655848589529 1.7607737134560457 0.10642027383846833 1.1847602229554821 0.00560320511939035
Ni 5.177300047252032 6.508938904147617 13.363386228764096 1.1880363226035926 0.012658312193958845 -0.24215549459097008
Ni 3.4750773116545624 6.0681204602169485 6.806685602910781 -0.445555208569981 1.1020390925061665 -1.5070986549549463
Ni 0.5514180204044604 5.84673652809223 2.8518217666596777 -1.0441149664958729 -1.7572502803775156 -1.1221299497187707
Ni 4.983494407314622 8.044398432381296 3.5971350449024575 2.6815829499057173 0.30572293492997027 1.4356885786430758
Ni 8.146100891476067 7.096435058887567 9.736150655906446 -2.6954324541942993 -1.4611882655760773 -0.2602118378720486
Ni 4.57451341560421 5.203880531882815 11.191945413606287 -2.5159709961984413 -0.10933127683767623 0.7882956012645649
P 8.523530838690782 6.939335802487905 12.092601622170069 -1.4969605380796802 0.9349271572145963 -0.5801666001306847
P 8.964090591773461 0.5737846159006932 9.022560266794098 -0.02478749135732505 -0.06075876724561149 0.13939030100658573
P 5.596129769103707 8.789289490204323 12.277666283133135 -2.080649806651642 -0.6831755342947589 0.791433118452282
P 3.3250181419037204 7.649238923120537 4.965860930440686 -0.9000606843547145 -3.0598320770298724 -0.21592201481573783
P 2.8238600576798154 2.4265755878820103 8.67908349337783 0.06988181259280223 0.10412505004638842 0.3290392410584075
P 4.3153051859200815 4.113692625748744 6.181191458184913 -0.5255512267786497 0.6763862792870674 -0.26480279967684067
P 6.30045255858688 4.953273772894292 10.040764672787809 1.5396285092618516 0.5189085246511514 0.49457457589147724
P 9.47464469715465 6.872187049517267 4.720068592912401 -0.7568528093742514 0.38189546562749066 -0.044676516971768214
