# total energy = -340869.41888561257 ev
CRYSTAL
PRIMVEC
9.26036251970683 0.00000000000000 0.00000000000000
0.00000000000000 9.26036251970683 0.00000000000000
0.00000000000000 0.00000000000000 13.55347659937976
PRIMCOORD
 96 1
Ni 1.5566391530219534 2.7945551499571857 7.120440882258627 -0.27085980450419805 0.4967281318993704 -2.1045538669627497
Ni 4.899491105487672 7.698315282551488 5.585469125384378 -1.1854569919121907 0.9540726197947956 -1.2431749154489493
Ni 8.944158149775818 6.427163844649457 4.676260807369638 -0.7744538102854662 -1.7857699850837632 0.28543204589141813
Ni 3.5454501629621245 2.0273804196996332 3.5688066492275063 -0.6215040254268909 -1.81788332067854 -0.4853512575209964
Ni 3.08891429233991 7.506347968190463 7.591572936233269 2.3816298275799888 -0.9814314714237227 2.4728314846964894
Ni 2.2694555554792544 6.817664070374978 1.5098845088599961 0.6083811148916878 -1.1231015696034206 -2.146273101078407
Ni 0.8607599535538624 3.7561419302724004 12.953423754311398 0.705807669871978 0.5326215033618698 1.4695569492557465
Ni 5.45921519530549 8.723696700041478 11.373738337167383 0.48394949207746335 0.17567525148054905 0.6008711796678877
Ni 8.594005323407318 1.714954310104253 5.8678962907022605 -0.995420586613963 0.7389777288660434 0.7811679890808482
Ni 1.0738594151108276 4.351796226540812 1.988444299585675 -0.23127561445367265 -1.161835752948825 0.054133034398977736
Ni 5.113238792418746 5.720033304759338 6.608119661976874 -0.05209106426828448 -1.2168146802878657 0.986008549271444
Ni 2.2800771912521482 7.323224300004778 10.354490057752711 -1.0247177929161835 -0.4731187200105465 -0.06880863413328149
Ni 2.0068687167903394 9.089110603788994 2.254728801015755 0.1213352432770878 1.8750363728507642 -1.4612790255176702
Ni 5.0056333803167155 1.5976532984780547 10.234772091517335 -1.0164794641667914 1.2417366403405259 0.7537032080016761
Ni 9.092296168484614 1.8375337283481932 1.5452183479664083 -1.1075301975277247 1.7634600087326533 0.8183926777602616
Ni 8.858786868005714 8.486483254567672 5.405383782130765 0.9875494113960024 1.3830020468826376 1.5472878255793223
Ni 1.999793799850068 8.262919583400096 12.810732680817612 1.4799141241203546 0.22095263526110978 -0.35477804058540835
Ni 8.666402837332763 3.6002622485242517 7.842611176864315 -0.26355838574677837 0.36345937040949017 -0.3371076198888388
Ni 6.8296932812459366 3.4318162548808826 9.365953770527055 -1.212158412462777 -0.9835806565562415 0.19607181285903008
Ni 7.14522161227455 1.5228388299434328 11.482884673587296 -0.1734381346199142 0.2506303648312006 -0.28666797518104825
Ni 4.381068232363059 0.2503779767857033 7.114721682386492 0.4089650681507731 1.0241256678581394 2.1818869936272747
Ni 0.26840234633091786 5.479634294589912 11.31769462339445 0.6786326521190829 0.6231934973141718 0.25004363908979516
Ni 2.5890121441898293 3.8102780093729574 4.915710630384118 -2.396858728714601 -1.6629134200661428 -1.669183055124938
Ni 2.638397657334419 5.0054389127044825 6.837403459052834 -0.6141637830117358 0.8649746392848586 1.5205311263107681
P 2.1935668848961094 5.500099695686771 9.000429668465939 0.46123662386097986 0.705553901989959 0.09640017059830495
P 1.361838167739826 2.274465411584865 3.2598013175349223 -0.5251190243372376 1.0493484469806704 -0.9203461740766278
P 5.044202790076178 3.440039456769575 8.016894903019656 -0.18483043561725587 1.0024597528489316 1.0532590948889862
P 8.232036274505063 5.055889367535108 9.52516625673437 -0.4194153169498196 1.1511584757406368 0.42449375991399146
P 6.961366375452371 1.7343918109650243 7.5361941164869215 0.6797752503639584 1.2167036086312981 0.09563372474592562
P 4.614253420154904 3.133539979166045 12.438215153006114 0.10843833270976165 -0.07946148586143735 0.014551415451613649
P 7.239649528557202 2.9941807840951786 4.224157872270078 0.9449346620492693 0.7271719944803671 -0.9409749060705731
P 1.95450136692485 6.166086445045966 12.62002107160986 -0.6404733674405422 -0.31569007344501115 -0.6733055834792145
Ni 0.10133799877064933 7.3899266910005545 2.4228738328782877 -0.8775056818723339 0.6397190057730209 -0.9682440261991713
Ni 6.099069201725623 4.247005964634909 2.623071757417994 0.3243873441086929 -0.12107581896811406 -2.20995392706682
Ni 6.469298493966518 7.0975677869150795 9.823072117949717 0.20746591362858466 -1.1591880309133324 0.5100991538896376
Ni 4.880785173263395 3.745057276375143 4.364815370161659 -0.09265870127800171 1.4031702943003963 1.8137312461833794
Ni 2.694478412557302 2.1947614716569666 11.761625288599 -0.9542245719916277 -0.6754149165127336 -0.18922470803020958
Ni 0.6973025171823839 9.553823374487465 10.955329230977743 1.1728881541082445 0.3322618617607632 -0.10681905193878377
Ni 4.215715199790438 0.9297311333590196 13.007664475508061 0.8810247507691858 -0.04079183720538136 1.077432606811396
Ni 5.9526721311644355 7.086835026792339 2.68391326499558 0.5793872987624988 -0.35062468053866713 0.6647060147356616
Ni 7.931741239768002 3.7679118509937157 12.010169713612223 -0.19320580416514468 0.5518952639898174 -0.7432388181352426
Ni 8.82428275737816 0.7312695267856757 3.590762968684814 -0.23090254738497004 0.30381337661208324 0.22480594756892894
Ni 3.582667559798446 7.520118127209027 3.403941637757964 0.8082368202731821 -0.3485863099523997 0.4229539262306974
Ni 3.5468577380601887 4.209316289311737 2.520553988466467 -0.9739415908045806 2.0489139090009423 -0.6888874970778717
Ni 0.9089434716476048 3.889509670814005 9.867296831080154 0.514308563985295 0.4300576271550142 -1.1187245235816476
Ni 3.0160630206525885 2.6392588710457345 9.072887374747552 0.7621683080498939 0.12376056488912879 -0.5443218225179335
Ni 0.6914305213292086 1.9205436176840456 8.918797721068191 -0.45085168108223 -2.09809654137318 1.728679410718358
Ni 6.8775230534926655 3.8490141056571914 6.1577104471762345 0.11620666380127083 -0.9718931929159844 2.084726033603545
Ni 6.275664314357786 0.13895822137516747 8.97767417972598 1.4406127554175705 0.9298379156171469 0.24924891110264172
Ni 7.134674059401555 0.5112646129219561 0.19701050777158935 0.7028578432150347 -1.4855181005706932 0.5444858588996235
Ni 6.592748386284261 1.7004340617242202 2.592346800721494 1.690293097630676 1.4291451210976032 -1.065343793967662
Ni 8.761358594277189 9.206291230702858 8.392773942414031 -1.259358467187347 0.12636740638435656 -0.8628069422095785
Ni 8.745180741011934 7.4232732563172 12.083670136709902 -1.237158019830908 1.8296520311786941 2.054452065210352
Ni 6.555568030897888 2.592114365623064 -0.04857708349945128 -1.6683063089469397 0.9293267803086834 0.014393806827826823
Ni 8.906885190764575 7.464926366784923 9.793810298526205 0.8139927489203529 -2.852141191874675 -0.3131485379700801
Ni 2.133467132353753 7.346356685497969 5.7111637295690345 -0.16021520817173696 -0.7866194991137226 -0.7530501477987096
P 4.2806025597387105 0.4582471856098608 1.8424056050527438 -0.4323063139798748 -0.5779695924793659 -0.31787551113210416
P 6.459510290817478 6.8166917323138145 12.30736993520604 -0.710370606652312 0.5782321021121332 -2.102985236924049
P 3.204622521618299 0.07667487535831378 11.169501042510733 0.4704895099178155 -0.19364186326129876 -0.7788624808761231
P 7.000546969135994 7.489114433601661 5.362500895524734 -0.1419511197552265 -2.9136761751646785 -2.3575614737768755
P -0.027491238115946587 5.243495051164629 6.497915792160916 0.8719538988161692 -0.09070286310321153 0.0698527591270797
P 1.000137669349703 0.6015494430278048 7.100124572997814 0.7926687906315961 -0.051017114477815366 0.5787720337760032
P 3.606957490602545 5.579711031989796 4.847726605220104 1.1687507349011033 1.94433351658469 0.18059814270346317
P 0.2410620521235137 8.565650093471309 0.38580522194447625 -1.375011315367677 -0.7218402978548084 1.0657698257614872
Ni 2.3744032435474396 9.32453679930276 8.954388998251751 -0.3532346073576884 0.7564648299072133 -0.1292472990353129
Ni 1.3917213574862333 0.7268532599154984 5.048032876000911 2.5803843294775044 1.2014351125080018 -0.7620384673402489
Ni 6.624594772877969 5.4236461429919025 4.604387429960972 0.00890630135069434 2.030721811472948 -0.3670206053981873
Ni 4.418202285936996 5.356110319372271 8.988828286341894 -0.10332903650765429 0.44724262357473293 -0.13917304278945708
Ni 0.1364671838660929 3.9364226671744946 4.580370679850247 -0.5765277178265167 -0.24194980633806717 0.05157221565033699
Ni 7.681137310137609 6.679129047565478 7.288206239259182 -0.08673050871902482 -0.34752932944279497 0.5935281090392551
Ni 4.475681355895456 7.8563711494841435 0.28923075363727657 0.4858973598324535 0.6123652963504164 0.4782239024475958
Ni 2.489907744851109 2.3016075340350417 1.1230300878457127 -0.5899468194459001 0.41771041844357093 0.8041958174345891
Ni 5.714671554879211 9.32083265430785 3.6897442052024543 -1.6986137016812293 -2.163165505958371 0.7470646196392359
Ni -0.26865515422682024 5.794986678731269 0.5390382920937643 0.5182883745686493 -0.5655074554566132 -1.2811614219950516
Ni 7.1710117218015865 7.4036690689316575 0.6469085505629311 0.7846058111178037 0.2726662615853175 0.45394728928841815
Ni 3.1513198751415956 4.641358501155132 13.35623285385499 1.4006251592810395 -0.8837249233091684 1.4365316433696615
Ni 0.9683098034809697 1.196688863141924 13.389276605318303 0.5420795634509762 -0.3602344357142893 -2.6548211084308404
Ni 3.0986654540390015 4.253728987800664 10.81952323699324 -0.21675788045347186 1.8756722066625502 0.219823406752673
Ni 5.938809368520997 5.260265567629069 13.641980785160808 -0.25371028930810496 -1.3993113255656224 0.3007473360922498
Ni 6.762731600100516 9.108946300236719 6.46702785308464 -0.4105031020618543 1.7723876502395863 1.764370950582697
Ni 4.130973622669466 6.7425254891533015 11.68414013152305 0.0543268955773387 -0.8423581874369236 0.4268355206732907
Ni 0.8576503238306383 7.159139937092911 7.841106367960134 -0.2951585291505627 -0.8973594833734674 -0.5051261261550785
Ni 4.751269743516493 2.5741122209478187 1.503866199279522 0.3527275858142829 -0.4450641278661755 -1.5314714273723562
Ni 5.753102059201365 1.858656615181647 5.25084685294327 0.3741163359027041 -1.4121724977990067 1.5025454883666252
Ni 3.7892292054394017 2.7318161941059587 6.519411871602607 0.6520613293884576 -0.9141109918001935 -0.043338771996951166
Ni 5.421914455206784 4.630394231970209 11.064163493181834 1.2999690416198582 0.0995302315868544 0.8354704591781545
Ni 8.05788589756954 5.35073004876717 2.6718507168196672 1.002796310252744 -0.108956924217393 -0.2628708727614505
Ni 1.6915626344614192 5.9015364095097524 3.69527449367985 0.7456661966298126 -1.163082223761416 -0.17321573419646297
P 7.8937274517577745 3.7965634125293164 0.9676828769405819 1.7156269484097744 1.2613968377736147 0.44896603402374285
P 1.4223546365941093 8.05425583547453 3.964269503209952 -1.1115004950293828 0.5426824871422976 -0.7266323199268131
P 7.560715556353202 8.835080340038314 2.3822810339153566 -1.4869905713511615 0.10012621329964047 -1.044237093896034
P 4.475042390883835 6.079001996215717 1.5145600658798168 -1.2278316002236596 -0.9182065020258058 0.6408636609004253
P 3.7999619655621433 0.6429756746145892 5.215594505026746 0.1225688585738728 -0.4652033218182117 -0.7445997030385112
P 7.932139435354954 9.091083060998782 10.583638653536356 -1.8278442885459938 -0.21887672656868756 -0.2958038760440454
P 0.41804424790764416 2.439123916970942 11.414019987950743 -0.7058038132172361 -1.0224169126971487 -0.3457961488017722
P 5.1169984995885756 7.815292181490632 8.312211566883564 -0.5966324589961918 -1.9423020879769581 -0.772243947118341
