# total energy = -340863.27291483345 ev
CRYSTAL
PRIMVEC
9.27136422822085 0.00000000000000 0.00000000000000

0.00000000000000 9.27136422822085 0.00000000000000

0.00000000000000 0.00000000000000 13.56957871186155

PRIMCOORD
 96 1
Ni 5.878230254906775 4.171835695720011 10.909004985995795 -1.4413910283444917 -1.8710290514635841 1.0528718867528963
Ni 8.232563364288193 7.721553590212144 12.676998488139565 -1.1349083324303615 -0.6635217646195734 -0.01271410513255875
Ni 1.052494521887751 8.366432590259926 7.071908181890098 -0.2043610494510158 -1.1098254213198049 0.726606094674568
Ni 0.06902159704059647 3.277139790498159 5.46780736402295 0.3862267460129929 0.018543053109510002 -0.988620275862678
Ni 3.2220678878544784 2.399568094734704 6.001851842159307 0.4142458569337382 -1.1247475898472759 0.5361374869349284
Ni 5.572442124773127 8.626948649583964 9.304632517161064 0.03241852554002159 0.12005046302739324 1.2603851086796485
Ni 1.1323209666288434 1.5460648601266347 6.914989417675526 0.18516185081474562 0.042276906391340095 -0.04963231831514678
Ni 1.6077565167244547 1.4388137204326794 9.361489157390418 -1.5926719101410765 -0.03913039034255841 -0.056863545956263355
Ni 3.7944633635136604 8.678404720235887 0.5809761231165431 -0.3176184008159756 -2.5142516995144892 0.43411919881889754
Ni 1.0976182508720596 5.804272583629226 8.854434547231506 -0.5324631234071345 1.3853255528094917 1.3781570600855104
Ni 0.26911617664596854 6.968023474494109 2.2048258736135398 -0.6668994228425548 0.49831630232209667 -0.24602294796617633
Ni 3.1936418855808215 9.00396866995522 9.459855548885141 -1.0050102871849274 -0.7598049500240398 -0.3540105662917645
Ni 5.853800210552213 5.4227744944066405 4.380721382747392 -0.5338065248089064 -2.5833416123336153 -0.7172876454871195
Ni 8.960105846485986 1.2984916250602718 3.517764138185492 -0.16424027017073003 -0.7245229868932942 2.09266200062117
Ni 2.350198081001101 4.409006460287013 5.421399551113364 -1.184694145604237 -0.8567784766273115 -0.4693993621774303
Ni 2.0504734229767076 0.011818207794595857 5.073882865522028 -0.21727081553414837 1.7136914219499582 2.247565823882323
Ni 3.580572994155124 7.385494456352634 4.455367916376192 1.3707671953793423 1.4110296424438151 -0.5529350181082413
Ni 2.9536804404253103 3.097970679624569 2.488036377936095 -0.5608468167561503 -0.10911556128244435 -0.5882599186617804
Ni 7.310720905035921 0.5805607660056952 13.1793988735296 1.3923593197278215 0.0713995347889093 0.07542562522916686
Ni 8.437006213647754 4.135797903535502 7.591839789621706 1.207611673632359 1.0981870657499282 1.1414106523252534
Ni 5.42452678221803 3.7248446906262203 2.4689577649293333 -3.3489497993029937 0.2520892087649142 0.5655159400970453
Ni 7.899508152391067 1.8637388790126728 9.57731353329634 0.9307989939788358 0.7406520312446728 -1.5905422653925831
Ni 1.1913239276430492 0.19103460262500097 13.128065184883551 -1.2535799128323573 -0.4880275188015789 -2.713208290120482
Ni 3.6065698990394472 5.133841704173028 3.5668319054500404 0.6888247621607363 0.07340885190945422 -0.09693418872490402
P 3.1493525793638413 7.004719533528401 2.239970833437008 -1.7276005758318829 0.4395514255780623 0.12431875138544396
P 4.988995183128884 3.324711159599964 4.804064846615095 -0.30281321748234297 -1.1192757680994272 -1.741352892420969
P 8.22292114564351 3.5342810732965555 12.981771403906295 0.561746188641968 -0.6958688134917113 1.7181774827457699
P 0.7859270432277671 7.431526779016923 13.627113972158151 0.9517190319609544 -1.4152753050940465 0.029251183555633494
P 8.332647739547204 2.0630917494915306 7.134694786585935 -1.773412749069991 -0.47250422635499917 0.1329121494814098
P 4.121937214233768 3.1323396262744216 8.607740237480062 0.3240466729398226 0.3250725431011756 -0.2893282956220308
P 0.8667204912425522 8.183545662389685 9.851622600964317 -0.5132238155615484 0.6014633047259319 -0.6820910429813285
P 7.313520856988512 5.384919514862171 9.829992508562345 0.30083938158542384 1.2444743509866631 -1.3710572158159355
Ni 4.268489666268895 5.840505074459446 13.035276446020216 1.4459012575100196 1.2228647431366875 1.0292305931848726
Ni 0.47474483347154484 5.843101056402245 6.560755628807195 0.4630253403302864 0.016768477707590476 -0.5058213524498902
Ni 3.8247250958754404 1.4507830514618028 3.692770406586521 0.6920257855965372 -0.8778275839881269 1.0186458756904908
Ni 7.93693664918779 9.128112235005537 8.332114636112523 0.1619393899516953 1.7348965952726634 1.010004397965409
Ni 6.1284551001004255 3.735923970703526 0.2532871767497471 -0.33973143066493106 1.9753109388028112 -2.2806420376110013
Ni 1.545916518301332 6.44889198548273 4.519212383713719 -0.7849459680660418 0.866568980355172 -0.37429271357956834
Ni 5.107835527924624 1.5491151389094246 13.456218626590827 -0.23675437818005676 0.07468514751871654 -0.099063576363081
Ni 1.7377503125101519 8.72063578362679 3.0699275846874747 0.008213389048727789 -1.8973448065399774 -1.7424232426670123
Ni 9.016197599178623 0.5637999940192903 11.242694359196092 -0.45577482941546027 -1.4425354263615802 -0.8378446158372861
Ni 7.043548006301419 2.344987574387339 1.7075822209255946 1.7550591862634677 -2.187280396728704 -0.4637300797067949
Ni 0.31788262457787 2.92653388639489 11.32816891893559 0.6863891561360502 -0.0297872585647616 1.6269683694301011
Ni 1.946272562065542 5.495545431081767 12.858261073022742 0.0948384825381399 -0.4261922306623369 0.7997051286530872
Ni 6.205833904724022 6.471810797492019 8.2704684091987 -1.457532671101361 -1.008237021652341 0.10458502040194248
Ni 8.277446037806383 0.1866195790494251 6.074666354245616 -0.02249278178587739 -0.35226761545872876 -1.5258324839190236
Ni 0.18144801216480475 3.2291512100126893 2.0762403980318114 -0.41192543633067763 3.9435929957832982 1.9805210222488407
Ni 1.6927749253511464 3.3705024267981356 0.358404975568566 -1.063048570175582 -2.011253675446007 -2.2786494326610045
Ni 7.601081485338073 7.542968575275684 10.313341167901456 0.8576297688840134 0.3023555611196341 0.4671666161921697
Ni 2.953698983153473 7.67223920466303 12.401210637900602 -2.09312557052115 1.1041898203005822 -1.3660031983317957
Ni 4.550886144825101 4.427539917085786 6.577242895553198 0.29731157093782346 0.8423144786831818 1.3135308394646925
Ni 5.179475358181815 6.8898195184672675 2.597760190430567 1.7162157310337087 0.3378786937269084 -0.5567286808227186
Ni 1.8208495487719882 5.142083946841417 1.9936288355206582 0.6364192519758265 0.9269433676781713 -0.9121168441883001
Ni 6.843240185322174 3.47261723079098 5.919348754607906 -0.20959093039138746 -0.9753981207454491 0.9074140393959921
Ni 8.394228139776047 7.0574550524235615 8.095230356695637 1.6796559296318043 -2.2198470178108156 -0.367971913567863
Ni 6.39337505736314 3.8935371600877966 8.72157497280824 -1.5407304840767786 -1.1753250456845115 -1.743704680482597
P 3.0903218042573912 6.195857916972405 6.2057615880841865 -0.12244801672529235 0.6747415445947927 1.342885895588042
P 3.5323804436598625 4.237467682052437 0.6918477304842959 1.3001981269115286 0.4762552087569991 3.2987682933525964
P 1.6841710994835817 2.1934378571123223 4.198888608973209 -0.21671571436162676 0.4066737010134351 0.6906862408495071
P 2.973762215025683 0.26979020481468835 7.32948614593673 -0.6481779351736515 0.3534948029976106 0.012428969791972142
P 6.30804142235768 6.228706359912904 0.22031264325774144 0.7524297406058913 0.07416604179045291 0.21615264276930515
P 2.5819172834882234 1.7297862107642057 12.259490420824715 -0.8475821548400242 0.11590378784887137 1.382473170962361
P 6.124088287618074 8.460833619337023 7.297611196224781 0.07946122875112122 0.7538034810249663 -1.3918289011456482
P 9.393004378176007 8.135362383258505 4.5031729238528495 -1.0361381189379832 0.8592829882167201 0.20687096035706307
Ni 5.463327440898805 6.3556591482798925 10.99584985334653 2.0683295945233926 1.5557637242608173 -0.870245914986127
Ni 9.078751492636016 5.3019686204256375 0.3775141840767965 -0.377075418531028 0.04113379392583239 0.3036580819811415
Ni 3.9975062368969265 7.472858520091928 7.843420108244062 -0.6913125615795965 -0.2002439419588487 -1.731365956411586
Ni 7.936881021003302 6.280941225147667 4.641759419869214 2.1900062803002993 -1.061570442968159 0.5301866686681321
Ni 7.502508342424333 7.919525027442869 3.208825598536975 -0.5706391202562237 1.6489870397930375 0.07255627410117181
Ni 4.3626589112439556 0.28408015827339284 5.666940503173079 1.6453640983284696 -1.2225022175909463 1.1130377576095154
Ni 7.063453624984245 2.3358552807671327 11.715621078171267 -0.3375549918389025 0.062442325595621496 0.2558551035652497
Ni 7.255352318741634 3.5095079884709808 3.640487330258534 2.848443945528746 0.39041018796672117 0.9777198269000903
Ni 3.8593072838991653 3.807304202766438 12.36219766498236 0.3191512925207342 -3.429291373776539 -2.2049523600871703
Ni 5.4471210964844685 7.962618327693345 12.802856328408538 1.923069207889275 0.331633484148145 -0.24798855633297937
Ni 6.318935275153358 1.3625289367706928 4.307432176820115 0.3576337648666486 0.5895259298583976 0.3225685457323993
Ni 3.5324175291161883 2.0803457580470677 10.511660281285234 -1.48568367961428 2.504313871575487 -1.9147138939460444
Ni 5.707479542619121 7.259848930321127 5.520619835239987 0.22051451928242666 1.9800911338002738 1.3880529790429839
Ni 4.394608031868555 0.29952995937868393 11.314437101594589 0.28113598961922553 -1.5600183857721135 2.4546507000224045
Ni 6.4105827090982705 -0.04536385731401748 1.537813346094164 -1.6017252785925962 -0.2841434089869816 1.283397767524738
Ni 1.9851473916589681 4.107436800810414 7.81461212577025 0.2389804392970981 -2.536552419894219 -0.6212947376295622
Ni 6.0265071806610475 1.3707062798905119 7.446197785539374 0.39751388889103795 0.5785115810257649 -0.30504133548191337
Ni 0.7451469483156075 6.57682753844235 11.312550379004017 -0.44025847894741593 0.6162407201454225 -0.7822303689070915
Ni 3.729981026327331 5.2952468814666025 8.92506472594023 0.9088443440846153 0.7412009617696074 0.30526862100137103
Ni 7.9150006017711325 5.165021301578869 11.74433449273145 0.7390440633276046 1.6418712546838627 1.007293426792149
Ni 1.9645371493059545 0.7813071225059917 1.346731459512348 1.0534596409355663 2.5260744031810303 2.0550153939129903
Ni 2.39545160908255 4.3123154042818035 10.655457283915359 -1.3128646666356034 0.6246014334052921 -0.542253370024679
Ni 5.594025860354691 1.7778211480700825 9.88433846339845 0.9104641390762255 0.2759737286919957 -0.9002056945730109
Ni 7.090544550830176 5.3126214177551985 1.9925023647847646 0.7638428675388395 0.8890800169734947 0.3784902966006837
P 0.33627608377901436 3.2213910782765343 9.293410458076902 1.3949026549749655 1.3089776728763716 -1.35865369994526
P 6.937678299855597 5.532250761480138 6.46989347939998 0.6369812951268836 0.39178598526832525 -0.07305506811446127
P 3.480182663881425 6.464013580299538 10.830423685450839 -2.360212795356793 -1.2607010972581707 -1.3129353719725387
P 5.378513002281904 8.832837831740228 3.7181461300773884 0.250899045111555 -0.8403352434696236 -0.0010148144177595426
P 9.175257121359596 1.4132711123883461 1.4969822586795567 -1.6646530284650687 -3.6117239985855796 -3.2546857012110846
P 0.2708907157311538 5.173050302873386 3.4535794117861762 -2.1028170867773013 -1.9505722984055505 0.2634090046531077
P 6.548104852518088 0.09632669139680912 11.188103640348238 0.9073772726207857 -0.016879549364158027 0.16534481608881846
P 4.0638613896277045 0.9701369947524291 1.6685562680976411 1.4778364156557193 3.328009963826533 1.287490192426557
