# total energy = -340895.3149518638 ev
CRYSTAL
PRIMVEC
9.03540980589699 0.00000000000000 0.00000000000000
0.00000000000000 9.03540980589699 0.00000000000000
0.00000000000000 0.00000000000000 13.22423556415620
PRIMCOORD
 96 1
Ni 6.450839851533422 1.982332765227623 11.628400720730603 -0.4051464657356313 -0.1926663867219069 -1.0431531168032357
Ni 4.66640063142064 0.34149963761743 5.942336927774699 -0.6113029165241729 0.07034486827214981 0.5074362623454939
Ni 2.7783071902523613 1.4217849775653297 4.776832313355991 -0.3063155742086467 0.08986931145832264 -0.15866020497979128
Ni 3.4200110286050704 4.1932433272005305 4.7597987588289845 -0.39177081575967365 0.3481998731472584 0.6010642695153003
Ni 5.041722518486904 4.5379984229635575 2.599157602736861 -0.10857665805983882 0.12792600912072807 -0.7849621660159578
Ni 7.188987653933058 6.019579742487156 2.5792941578651387 -0.7053937222630109 0.4616770538325081 -0.7180949718797633
Ni 4.925518113239805 4.521156419123997 11.70277388929529 0.15147191476146818 0.26415436745956444 -0.6061920776601689
Ni 5.488875913345288 7.8971740374850645 12.248340063992789 0.29946641249729716 0.38330211616703025 0.7571446295830574
Ni 1.8267610795465294 6.654796156614112 0.3538158046955981 0.42591660840344714 -0.18723210308021304 0.33017772553822494
Ni 2.790649560018906 1.6801796266016822 0.2604023170906176 -0.49007745935207214 -0.8189074126131509 0.9343478876723587
Ni 0.39075798114325283 8.97417681305801 4.659493060639875 1.5841325052114976 1.0082843299505087 0.22110098791351598
Ni 8.810039558900574 2.4696575919908814 1.191405520108882 -0.7465989928567272 -0.07047265209926573 1.0316137487050685
Ni 7.055787642880052 0.5236263926571445 4.9525294707925775 -0.4459506442361868 0.7962709061605577 -0.8437473544749662
Ni 0.7862378674402366 7.549898062391974 2.5846765514741654 0.6160861968454293 -0.9270593244307452 0.0705407863330398
Ni 7.745767675714935 3.9187566133367864 3.690579988785964 -0.3801178049017776 -0.07491397570007098 0.34617512940774575
Ni 7.454384745552919 3.8877290161345055 12.691801590412952 0.9965207616566774 0.39849142231295887 -0.6419813194446363
Ni 8.031142058369811 8.650645894880354 7.1849650894967 -0.9271135747074484 1.1578220038037417 -0.30025445561623126
Ni 7.03443696955769 0.5837091571056036 0.402864526714405 -0.9317302475438534 0.05206741011920066 -0.4721031342618385
Ni 1.8451210322299991 6.406186856375101 9.24564479651253 0.3560594784009932 0.2316098578646398 0.2200722895386855
Ni 9.346227881782044 4.935204072529509 1.3026729774493626 -0.5267635019191961 -0.4957801661638042 0.6815979053949939
Ni 6.3636120054673695 1.7754309165569666 7.010828347330013 0.39507571176319056 1.3739851880960077 -0.003593630888529295
Ni 3.3676508288999982 4.4005879109506605 0.4413562759402167 -0.23304401920800508 0.13491349618215476 0.7144596891200211
Ni 5.993196345914455 5.729145530352584 4.7147174852468465 0.09416845305430878 -0.3458550270641656 0.5624766390500894
Ni 5.204070761506877 2.9362913303460956 9.213734439774237 0.9456286027925005 -1.3292767894450397 0.8310257931432398
P 0.28777780165773215 5.489860773011871 12.385303323221322 -0.5505883722529356 0.0012816949259010185 0.8381027545946792
P 3.800329497282535 6.220192945947334 12.580003754518081 0.7974083621991106 1.1372678338014737 -0.14586922386271006
P 2.3850409793527443 8.539438071244454 1.5012414676751547 0.6285624749355692 0.5816884360918498 -0.7914860831774047
P 6.217175119079085 7.84339527844372 5.951236806413093 1.336221596193989 -1.6369668754037097 0.2351091292671499
P 4.6692558209127535 1.0130140034743575 12.683563103770833 1.5463182625772016 0.28588456004780444 -0.7868470417434964
P 4.085098507481805 6.072473031369554 8.089608388007703 -1.260657388504429 0.6013815436454031 -0.028431772978131677
P 4.999897606591342 0.997915833723335 3.8641484036771634 -0.497433385496511 0.9056844582993951 -0.5947601816741435
P 0.005897411966781844 5.744650293543939 3.509262806463001 1.7894044965125568 -1.1720702861926395 0.6781845088380708
Ni 1.4387715479614531 1.1837019297260443 2.480879570944065 -0.1292231306655968 0.22300206159097077 1.034712185124734
Ni 1.8325527772188246 6.355200038957375 4.656465294820864 -0.20793976794120964 1.0253379429986857 1.584742885101987
Ni 5.951976806474498 5.624497414220721 9.173176292330556 -0.3764953776578419 0.5243978299004969 1.161829582301238
Ni 8.618073242604806 2.2409894411477453 10.200566536314101 0.15456469475417894 0.39162991930643526 0.25164620769022467
Ni 2.2475220424224247 5.3327621030770835 6.994337820931095 0.9696910430583429 -0.9966973964438576 -0.021543273388414514
Ni 0.6826577367449804 0.07207636739729655 9.143858194659629 -0.845916337101827 -0.5034371684884298 -0.4732282490052172
Ni 1.4595168488282086 0.9506877467762405 11.312870657917715 -0.3945566060349269 0.6461809593482807 0.6283161632527179
Ni 3.9640782288192096 7.045252355070541 1.5369204938348424 0.7836359910053665 -0.4871823971924642 -0.04627702868966869
Ni 5.624470307991365 7.798046556731941 8.159141287550474 -1.0486617053262908 0.7786195116273816 -0.8057456784202124
Ni 5.480753079948417 3.1043138107111563 4.455826792213289 0.5561630381272357 -1.022895137885148 1.0834736707991535
Ni 0.761054373287005 7.249515864083927 6.996069908986913 0.36681697402781344 0.2620028683342004 -0.5903625668270801
Ni 5.1275860176753945 4.33443064050363 7.300584903730698 -0.4698413348108553 -0.11419169025377109 -1.0642294778575607
Ni 8.14283779413411 7.043192281639522 9.142046594997701 0.4903736504362522 1.0945952346336116 0.7113319421243168
Ni 4.5880907348125515 0.5109713977120324 10.414733757993014 0.603556954030167 -1.2212912280019805 0.29085424534825394
Ni 8.076201646968466 7.150551020706936 4.825919887636874 -0.6998925899391236 0.06951157373757706 0.5538433888551236
Ni 7.124194730363589 5.977393414200188 7.195240157504397 0.24736660647826428 0.21928398930943524 -1.5804694545376137
Ni 2.395513019293759 5.340062714183501 2.7155038639175864 -0.23271388956209596 -0.847568013772637 -2.4210191280108884
Ni 2.3679730902685545 4.954341070454504 11.471918265743165 0.01553537663143776 0.5156254830245055 -0.7594791912535048
Ni 1.1308176762534317 3.520412502137903 3.6706243827344327 -0.3003300460491731 -0.45753809196347006 0.31092504795619996
Ni 3.6805380343507235 2.5632463665456946 2.810520233218457 -0.23284270183047642 -0.13141885276533496 -0.7109323926930531
Ni 1.2187593196925122 3.245067424344568 8.251644909390087 -1.0335875846019875 0.45677293166267136 -0.7730849549623976
Ni 3.462224463121395 2.626223172748344 6.9534616270629765 0.8982825094083691 -0.1275115472911288 0.4109692430649955
Ni 4.135019146544881 6.929788853425825 5.782389393134647 -0.2201039141075693 -0.3283828384213312 0.9215702762917161
Ni 0.8240673211287953 7.383221858084903 11.521932873068007 0.9674593255143467 -0.3255152870655491 -0.8440810836653012
P 0.17116138172442957 5.442424871639717 8.180948249066986 0.18715445576474218 -0.5157126434216732 -1.1355778476935605
P 8.53351084242538 1.7705608306827587 7.9587286701875275 -0.781149477138087 -1.3852080533950208 0.2745943318459658
P 1.7922187079378165 2.99293431428934 10.336406694106335 -0.6651803832689189 1.179495117901801 1.0236662117232178
P 4.048694841457347 6.11088255836632 3.722278916935283 0.18787719286337967 0.6203609129613832 0.16103924673492911
P 6.653720942849676 4.16223380081782 10.512169810034353 1.2789901253753457 -1.7030182585068285 0.6468941833652214
P 6.349064995713243 7.7251579059949576 10.245039726817696 -0.3864874558735473 0.7592012550017698 -0.14846166718023462
P 2.4424248668983726 8.336023890750875 5.707633123195067 -1.3201673709446036 0.46252448943446794 -0.447568639455584
P 6.881765650417636 4.046969078188379 1.512958587084566 0.11969127991576159 0.4722864539172382 0.11320155842635989
Ni 5.178337914438706 2.965394385264135 0.4441689990063408 0.32647276588281193 -0.6503654297432734 0.05726720915258524
Ni 1.4681908422219736 0.8620232705543464 6.894865187524179 -1.0990041623345845 1.3404942554274137 -0.14192977959898784
Ni 6.792116314529158 0.6754519974413058 9.2017408368254 0.36019638338750226 0.274350848376592 0.3608263036620173
Ni 2.8030551776539476 1.4910142873393184 9.219778225379539 -0.8365444089686238 -0.4749696571763562 -0.7914027794349789
Ni 6.526149992092831 2.029524710535577 2.3327151142048557 -0.14977935755039365 -0.1752340501780724 0.8549355098813018
Ni 4.099573233957651 6.84655465848482 10.305686300836749 0.15758419830679313 0.07194023778372771 0.2299918626452426
Ni 8.18310861554662 7.09374539938756 0.5046420931575193 0.38175791160836187 -0.235025311304092 -0.8648540545465945
Ni 7.494754956473068 3.826134627628987 8.502813037680259 0.820779175714567 -0.5291042342372307 -0.6911768073326806
Ni 3.120044459147141 8.46303464610104 12.276018234787708 -0.27038517886062463 -0.5906854973841376 0.9690140715959762
Ni 0.15907200343186928 4.899965974367338 10.318408157814272 -0.665552164786041 -1.1951955593561934 -0.15387203956252854
Ni 8.62239216848212 2.6860014438870428 5.90821831688491 -0.22496252775145126 -0.6971952456126186 -0.2052755908454852
Ni 3.652112635166572 2.575010470085988 11.392824095565723 0.10242606507741071 0.2128338628087173 -0.11621437711075468
Ni 1.0964831190697777 3.2453204158185525 12.583732668136422 -0.5055233615934971 0.1948032305592516 -0.7641478003737678
Ni 2.9331018306919296 8.271791162588086 7.859718649761612 1.320905791772525 -0.4571285152298772 0.7340563803050261
Ni 5.55465369658134 7.8915991896476125 3.4764660760247827 0.8352053784422261 -0.07674691514375169 0.6873960001340097
Ni 3.2131362861637696 8.32659995834494 3.568612799177882 -0.6638012435332051 0.04794927418576904 0.3888711256143754
Ni 3.3726293396916276 4.2500128068807665 9.207228944728913 -0.6810397188986786 0.7550764342001189 0.15858975675317205
Ni 7.202197423038981 6.150014918145901 11.449066810855484 0.4943742869552131 -0.5290124458543728 0.3703347573730848
Ni 0.5661190213358305 0.012943224517259065 0.41595141424724824 0.06004374345645789 0.11352114654930771 -0.549995475863943
Ni 4.610408196981927 0.4303357866252423 1.619466190550218 0.2942928387161577 -0.14209510153225852 -0.042448141861881734
Ni 5.84312722479253 5.850780216880571 0.385199397043415 0.19240670530261703 -0.22721944210642803 0.4333069873302473
Ni 8.087893467230478 8.669023918383393 11.30218538230577 -1.2204252804572595 1.2356179290372977 -0.022858906876044503
Ni 0.05314808743833946 5.133712025509741 5.935804326500019 -0.3033495496017872 -1.0062030219414477 -0.6479334232630131
Ni 8.040141326515842 -0.13974887606530018 2.5210681701275326 -0.6431876810479116 0.8743146857388621 0.7378592989908841
P 8.3753731003653 1.8083469144043487 3.5464624920895327 1.2300507193621655 -0.5910379956275498 0.5272949489426338
P 1.9420167667661847 3.2229577766002517 1.555381643107906 -0.7945557232416639 0.4148436384187371 0.6254488690072519
P 4.571601111954613 1.063847218925736 8.171135794040291 1.7410934681119952 -0.5785650599715197 -0.6134878399906338
P 8.543052235158523 1.5702367603357077 12.41693538933823 -0.030253399567902736 0.24273913500858194 -0.7297479827376594
P 6.437250595216524 7.863065365546039 1.4937565342091184 -1.427771123568212 -0.9959628322706784 -0.8336197791226609
P 1.7546494740510707 3.1043680231698674 5.857635382284581 -0.5467569143219875 0.8066422220925528 -0.3193397543824565
P 6.776033285111552 4.081538556026447 5.989467432296113 1.1585028319208501 -0.5264922505356804 -0.2833466241172991
P 2.4530595442155203 8.33051229078192 10.197274032988384 -0.33913159229740303 0.39894599335187425 -0.3455860896734952
