# total energy = -340896.6696892493 ev
CRYSTAL
PRIMVEC
9.01828772844447 0.00000000000000 0.00000000000000

0.00000000000000 9.01828772844447 0.00000000000000

0.00000000000000 0.00000000000000 13.19917567307575

PRIMCOORD
 96 1
Ni 6.357739536938773 2.00456695947516 11.39677544179189 -0.3266329456097601 -0.29148956493940764 0.3671026235890323
Ni 4.52451102599684 0.34220974976217305 6.003711321109817 -0.5198076394266532 0.036687585229020686 -0.17821473007295113
Ni 2.6847262198770734 1.6818926245881207 4.803101264985938 0.2867502504822094 -1.085310724007892 -0.17507489889238878
Ni 3.26282551806779 4.1066937555855345 4.641305066697092 -0.10235458840952695 0.07803940870293012 0.8217052870732623
Ni 5.2253852933086335 4.600778685307619 2.494433134198358 -0.14653796779496053 0.4662962977720743 0.7158300871049865
Ni 7.517410174095263 6.117699772498071 2.5442600757211187 -1.4506817096177984 -0.40276896664239026 -1.5470566834051225
Ni 4.981197116513319 4.568375977503004 11.424876426350528 0.8809375903720182 -0.182045416672951 -0.0994027048700546
Ni 5.5953785839014385 7.735661755386521 12.386409871162993 0.11542890509498185 0.44582363174001927 -0.15449270386566294
Ni 1.8911710095905978 6.34883848695181 0.6068396793492273 0.7624102488573707 -0.607232088888909 -2.2427889713189697
Ni 2.74465274182577 1.5000027794138144 0.429145141625716 0.36655934949105257 -0.4228744791430136 0.13678860171768054
Ni 0.39033854770586085 0.11193949641658382 5.001695684517742 0.5993084631664581 0.062138678312273626 -1.572870302034117
Ni 8.583227490872506 2.2505046840895933 1.4089198770244318 0.8674709233441511 -0.08501661135171165 -0.432048689443114
Ni 6.6522227043899 0.8600524566733695 4.978451949729092 0.10424280657117531 -0.32204892578350347 -1.455791520040538
Ni 0.8334665444529394 7.441791831500857 2.3262619083150007 -1.0168898122313326 -0.3894359969789099 1.8814731296150435
Ni 7.618956093905996 3.9017712035554006 3.8120933503939494 -0.039138874982990665 -0.17623806596255454 -0.15361852879082574
Ni 7.701897286135066 3.702025148680805 12.43386139569835 0.5513841286813537 0.5645270938212149 0.2872135632718731
Ni 7.8666343480518215 8.91695824651336 6.807448178240548 -0.44312474475161745 0.44990500089824453 1.3829516532606763
Ni 6.978910177315641 0.5743449850097925 0.4958994092128415 -0.8204662724598386 0.9093783622112146 -1.8121772714326985
Ni 1.8425985118907209 6.639975869656066 9.079897963686042 0.031042985348733634 -0.6343744536316558 -0.17226931112279364
Ni 0.26188205731650976 4.555921722151439 1.5084943991379516 -0.09541852341132599 0.7738190049149447 -0.2676022167988488
Ni 6.215052188515555 2.1418343169741987 7.110356230086631 0.5028815530952758 -0.07934115823348917 -0.06088552263146287
Ni 3.5261595197084143 4.162120151958249 0.5561641169513165 -0.3815558228998848 0.3779354525384781 -1.2085323856744152
Ni 6.01279003136501 5.560387627519054 4.71498357560133 -0.16112177914640638 0.37712426949109246 0.4752365376844976
Ni 5.113756927818645 2.801359735055778 9.330563074727188 0.36527611190325476 0.27167844375075145 -0.047305727064499176
P 0.4138852969621509 5.348205353868348 12.31582102763417 -0.12467973426928851 0.7256519582914148 0.4982723364580387
P 4.007149895650287 6.126727078513217 12.69574615850118 0.09961250688801554 0.16170799066717959 0.16367025659987297
P 2.434171131946201 8.403502034752782 1.2710528033915192 0.9626603614638067 0.674283888232084 1.2881517372699558
P 6.3274831816132835 7.843809061813725 5.709475254742421 -0.23808518117633837 -0.8223143814121708 -0.12271181190964028
P 4.725402403412817 1.0815903020124993 12.579975693457989 0.5230459438582928 -0.004221751390831439 0.4051374668745668
P 3.8226447470350293 6.157677841993718 8.127577601615908 0.3926984697802656 1.4008735278464197 0.49865337394654125
P 4.714923153073556 0.9861227081300457 3.8514662927830865 0.0908249905033726 0.6727957337223316 -0.8748972977152092
P 0.27433901815439315 5.5143673052460365 3.55313862927376 1.249768252395751 -0.5740774565138113 0.09434380228990848
Ni 1.3944437215643792 0.9073389465433165 2.748820994413383 -0.45073263900586247 0.6998977321454463 -0.9001313896916497
Ni 1.8470355094526107 6.3816650542796145 4.776399016853824 0.44187004640891 0.4084187087289998 -0.28709812073993135
Ni 5.851723412553313 5.777854617778027 9.1496553210864 -0.11734514828108823 0.551638667894321 0.7891990869154408
Ni 8.545756505365082 2.3272773675131084 10.3454739609407 0.3866278381061535 0.6400758748918073 -1.1633485900489255
Ni 2.4208601392605313 5.051855400857644 6.863188411026178 -0.9745157181404959 0.15897413667578428 0.2543288967287104
Ni 0.5361381072238106 9.14328119532066 9.27181343932692 0.13009704863011787 0.6832945763711264 -0.21334859766160677
Ni 1.4701973384746958 1.0301139156643937 11.463906673806024 0.5035860353614683 0.5039344198398225 -0.9794782043520939
Ni 4.060727543038881 6.879654902587671 1.7379358718413913 0.7410837194654527 -0.07602623492764327 -0.7520908692092337
Ni 5.5846558397935375 7.90583684480291 7.822702661216475 -0.5443920136342367 0.394524724355727 0.9018550572509759
Ni 5.323666592962042 2.910895857793005 4.912495800605845 -0.4539786567469859 0.23230328438723863 -0.5814922609206437
Ni 0.6926685273086159 7.590323030371443 6.852550438822915 0.4063253165350809 -1.43891994109618 0.49904006786199867
Ni 5.006583596466003 4.627499871843961 7.201219086255464 0.33795608393206317 -0.7796124716682703 -0.8240100239470388
Ni 8.236808004399174 7.320549971293442 9.01577613428655 -0.731702792471185 -0.6803676325323186 -0.06930022905771936
Ni 4.616903383764243 0.4230938705606181 10.430450580709847 -0.35039688079857717 -0.6512020667119559 -0.19795051793898166
Ni 8.153244550316913 7.074900831886285 4.522882323233267 -0.10166347587977329 1.1822058319647446 1.5857983229496948
Ni 7.152178539422535 6.258908121733992 6.9519004055720215 0.6882899727031888 -0.7950992544499597 -0.1918958271044695
Ni 2.6831570378125025 5.024917775415845 2.5171754521893623 -1.7108457249710474 0.05679335483996026 0.9047143810766418
Ni 2.539630988630635 4.991766549729854 11.523249712538757 -1.295947836275607 1.054120671558333 -0.25497167251903186
Ni 0.9794491752117558 3.1697748252962845 3.7502423258442215 -0.05896028058429201 0.7745409706826338 -0.0960193902201185
Ni 3.93758282412098 2.64382828503323 2.542965951432234 -0.8379670003477633 -0.6688105238223384 0.41341050551663644
Ni 0.9828941611236298 3.2927752516105473 8.165432766180519 -0.7222100224894014 0.465173754131857 -0.22289304681693226
Ni 3.5717920556091527 2.686106017899368 6.935216573276297 -0.0033411485580910195 -0.09313769779694926 0.1751918840862273
Ni 4.0192434194927555 6.940492271596837 6.004199210475871 0.6140807363796262 -0.6618549184401118 -0.30292300358732993
Ni 0.6899909976823454 7.314769248860166 11.13160441494119 0.970199350153329 -0.5780842636803593 0.7216096699012412
P 0.2322533748168486 5.6734318641822465 7.868068255800481 -0.22220964759666248 -0.40508218815659913 0.27969077253226676
P 8.355867438976555 1.7031126556107368 8.070411577540574 -0.13725705671366684 -0.1380687539816848 0.08067710343609331
P 1.6787813153221616 3.254898443155389 10.26387739541179 0.9307437152608679 -0.7109293073692595 0.624625087554376
P 4.031048358127946 6.031665307578497 3.9201288300533337 -0.41798526937151237 0.21819204179683716 -0.5907235497109246
P 6.8254279384827035 4.071747890641786 10.304926837489454 -0.16238830456365583 -0.30923711873081583 1.539946811833219
P 6.3763172096572545 7.702934389223718 10.129456209519523 -0.7029457749431507 0.6327037507974523 0.3301445583074443
P 2.4068367018443952 8.42233221952763 5.790649764405688 -0.940870776392541 0.7851082046755189 -1.1313854068787677
P 7.019654801268118 4.044647936020894 1.4899753452896976 1.387473709500746 -0.6611895169419709 0.38875645441338214
Ni 5.4580661349637625 2.95084687242547 0.4281828903252004 -0.005443796723390625 -0.8740424059140817 -0.8171446642857733
Ni 1.346376247977238 1.0284725872980036 7.062403288753629 -0.11860627438169895 1.1011687740860714 -0.19386323524348548
Ni 6.691181707372349 0.8385429386147033 9.210306011539606 0.418692322740866 -1.1456894822062655 -0.07855748598992922
Ni 2.7374290933561074 1.693526215756491 9.154248335025972 -0.19369379954515675 -0.7166554112197593 0.32291435910759225
Ni 6.4647505391123214 2.089816833362448 2.489047412767544 -0.8481526826315134 -0.3867918744878435 1.0534244168222566
Ni 3.928862139888566 6.881485614996338 10.469361786767342 0.5199161399800595 -0.004694834372508044 -0.27504633178171983
Ni 8.331364751221159 6.971857876312799 0.23283866169035808 0.13440184665305885 -0.23204720251237457 0.36795982938300503
Ni 7.384273192375381 4.111085661708787 8.2997078558116 1.3095242894084609 -0.7058238678218941 -1.2254456164899865
Ni 3.1957565122389777 8.421105732396702 12.337638971133114 -0.17372969771840402 -0.5196078647110213 0.393031170529336
Ni 0.20927297402984044 4.8248560804707905 10.061823560707747 -0.5353535575810522 0.5583381914016836 -0.019900081358036694
Ni 8.452651702867211 2.2970931584894383 5.800707860708078 0.30329118556002604 0.8196358061387432 0.6457397580458041
Ni 3.473032786706191 2.7116999184697823 11.492799464027126 0.4675635945202722 -0.6850953770252911 -0.10688204396623527
Ni 1.2065116236127023 3.236564264205547 12.549829361242773 -0.7214610601385189 0.09347914029676804 0.6856512495287611
Ni 2.9579532831546755 8.439124271276084 7.893265351710889 1.0210719686334802 -0.3085604043787654 0.8092009839586645
Ni 5.4831459931337125 7.7328841227664755 3.6535184844813386 0.701514698923579 0.4872412754548576 -0.2448068161708881
Ni 3.058110386655387 8.441622336976579 3.5796560025074613 0.2735332375713031 -0.5289869919330761 0.4788620502522269
Ni 3.423486313931753 4.41285560564367 9.3143148257287 -0.47577286980394184 -0.16782515930851097 -0.11135139259149854
Ni 7.4575016887220205 6.126285182414573 11.345259374977784 -0.6843258458491182 -0.7437232139708289 -0.6179877847435162
Ni 0.6601657165102265 8.901004895523556 0.21508165315507077 -0.49825228185338055 0.24812276791799845 0.3618650293391768
Ni 4.6932612259522966 0.2774052359817155 1.6944704304815517 0.04137804872615455 -0.1118175335946397 -0.5535549110804273
Ni 6.139785559142519 5.537571359568684 0.28120013145741324 -0.5678867543220671 1.0075363960408907 -0.06903334854957788
Ni 7.901931926216938 8.716851460129668 11.486279242000203 -0.559620657658533 0.23398709984756477 -0.6539881140975253
Ni -0.009449361880789247 4.823341008132584 5.77551076479767 -0.0588792908347115 0.008806028327404188 0.22679983807050616
Ni 7.861151229113551 8.89079619381612 2.5010588701916925 0.725144422527377 -0.6122429118399392 1.2375681107851333
P 8.305897106678929 1.642500743794756 3.674320968782175 0.5765284891574652 -0.07060274991922678 -0.25300940658633847
P 1.8827569471409162 3.032453358070881 1.6685338349774956 -0.09462019587974672 -0.07735369548981516 0.2531343621999769
P 4.567988191130725 0.9936078869438031 8.104531367328489 0.822702617989525 0.5983574121070985 0.559276901165869
P 8.585932977190732 1.5517857875446521 12.370993108292971 -0.9790796833620944 0.42594231943506 1.1477394227567588
P 6.520537666994134 7.643368598784118 1.2740423657731583 -1.4014332570046315 -0.3993632833949509 0.5301144206692999
P 1.559081582316134 3.15172923155372 6.027258070366107 0.9427384257288991 -0.32435571953980913 -0.8648666529520848
P 6.834933213747402 4.052439736617384 6.050093276720704 0.367537911354238 -0.005081785398281571 -0.13793325684508503
P 2.4477887464146035 8.55537000008251 10.188523288647797 -0.19571365818866293 -0.12640982958651778 -0.018627899513832435
