# total energy = -340882.42654262175 ev
CRYSTAL
PRIMVEC
9.12299240771588 0.00000000000000 0.00000000000000
0.00000000000000 9.12299240771588 0.00000000000000
0.00000000000000 0.00000000000000 13.35242155489470
PRIMCOORD
 96 1
Ni 8.934693755964059 7.354691839506719 12.051962755966363 -0.08527886387416281 1.6324473902668013 -0.48328974700627736
Ni 5.183264577097292 5.556057412163008 11.530803609142083 -2.153311495982427 -0.8888517030127723 -0.36923715343353186
Ni 2.0371641844743245 2.690443418338352 8.20120426134626 0.6854460754964905 0.22338489885168622 0.6355648743953313
Ni 2.2124077438991665 2.9075615125000382 12.547203481616924 0.18696085169669738 -0.3620146675431636 1.2976992717490747
Ni 2.4279384373976254 6.88357139324412 8.08155348020593 1.0902238450387935 -1.0683789812495599 0.06841345557739185
Ni 8.228273091851205 4.591091145775176 5.460686562776191 -1.6773802462237501 0.8582288359205928 0.09385837801305771
Ni 5.3822005475704096 5.707745405424336 7.198758005620876 -1.7724699255407472 0.33572822304280886 -0.4909423784555287
Ni 3.4922814590988414 6.910840017280814 12.949511933727107 -0.6302905133702693 -1.1149755980621765 -1.2678906730280746
Ni 1.2885405579012004 8.507673854563746 9.178748397242087 -0.4545288728235011 0.9214193525361486 1.0125024817969142
Ni 5.602393090143057 0.6487250360991842 1.1298524926347349 0.947718909662626 1.4418455993834072 0.50847653068455
Ni 2.896221633049516 1.5518848541351271 6.201118654547526 -0.43038004349143943 0.11160387492193682 -0.9996227976207688
Ni 3.822926069658192 4.5466712961817795 0.5672631007994682 0.22891534175161224 0.5461005116849111 -0.9241462645490084
Ni 0.4539226934450785 0.9805392142736247 7.118736590808076 0.35478061168856967 -0.48493088215412616 0.12838829346912725
Ni 7.9642993091473775 5.0345324333468 1.7147977771437783 0.4294361915209314 -0.2474141718867481 0.03247149026514407
Ni 5.27328114229303 0.5342479039020471 6.3755676013415234 0.2429363386210526 0.9594889057143605 -0.13399278414009827
Ni 1.1851314399835269 8.778918662144537 0.20210529800418045 0.5778852602956758 -0.6185151180018961 2.5076524490304166
Ni 6.415789962169686 1.6436621568481218 3.7532984799926012 0.9860242330007277 -0.40140216820185065 0.4260559621947888
Ni 4.200316892851875 3.3642676309011534 6.756258210856408 0.7312320234823536 0.09024546385081877 2.4706365339277
Ni 4.103439837433457 0.7707979716997845 2.8227824571937172 -0.7645044123822382 0.23202740501803265 0.5304844024142089
Ni 7.311001829298715 5.684244577214725 12.582266790289598 0.9905185213266555 -0.08463711652510585 0.46610037971118434
Ni 6.2635637123616315 3.7314954406532586 0.42516884625911266 -0.5828958261363897 1.2844879152651234 -0.537592731324216
Ni 0.6044219608074501 5.262807947112659 12.390913851030701 0.9713679165401337 -0.27507821346091976 1.4874446281694447
Ni 5.373159662183871 8.5958110833421 4.284698185693157 0.17922594494628488 -0.227757316887769 -1.1638106172870084
Ni 6.234862778531107 1.7572434111996909 12.439289430092922 -0.7443626473270407 -0.6758918561491521 0.6561244437142377
P 4.843980492813368 6.524946565247318 9.380476915663557 0.16530882064456048 -1.0550475542479767 -1.162094148816534
P 2.652546508251893 4.9606361955758995 11.943874455289096 1.1517927668905261 -0.4119053817260197 -0.5779693353690498
P 0.34590737670635235 1.717229966895596 0.39172304412431047 0.9153168391828365 0.9358697236335238 0.8277368379793228
P 6.63725972366677 3.9531841539659593 6.9254066991139975 0.4490187416385492 -0.8599144511531319 0.7925857439994866
P 4.381453905313754 2.4509831159913658 0.159404220163381 -0.5707501919127912 -1.5118156008146415 0.9379204355149653
P 2.1990243141695482 8.304222002893518 11.771120560467672 -0.9482081905942185 0.03919569636285508 -2.0453169356783034
P 3.344470737572406 4.653547151180064 2.640134677204077 -1.3149084365385095 0.44690349506775934 1.0985423922068178
P 6.575807247416796 9.05001750184825 11.00936529875289 2.4235933164959684 -1.060561284977354 0.22714899387980877
Ni 8.515063478340837 3.484526915629056 12.903206361621706 -0.18349860417970978 -1.5050132331808275 -0.0914633954183199
Ni 2.0406309215549343 6.373039620170373 1.710018241468695 1.1011294362077035 -0.5250915135334119 -1.541654795663261
Ni 5.158668989809595 3.1020180937453143 2.3803364880839215 -2.8356025707897032 -1.399796235621841 -0.4362640130760422
Ni 1.082698482243815 3.5340191489509243 5.824539777670091 0.4791950081116134 -0.8855439787957782 0.37858825563112863
Ni 1.5146721684724727 3.972388052794076 1.4448119425027879 -1.352217200291297 0.9266222368933268 0.034802709501481996
Ni 7.7077698881745444 2.298638267283185 1.6821383769467357 0.19112912414177408 -0.3215606732931753 0.3046201887840947
Ni 2.25302330569621 8.91167644634727 4.632435634658378 0.7486661597984009 -0.16175092808997302 -1.0493150226395735
Ni 2.4142083339599463 1.9450128390763164 1.6338020267514812 0.43564283455227554 -1.9761331775937905 -2.5153565025428937
Ni 2.7129407173930487 1.3026082120546236 10.452341844530466 -0.6437839198710138 -0.13503948023705775 0.8893276142079266
Ni 0.9333094830464703 3.2768146265466043 10.660720112052086 0.07525079021419943 0.009277568647184023 -0.9826625156173464
Ni 6.940416758373809 7.5157673918626475 5.7317270153290725 -0.12897296232800368 0.30392341982738624 2.576112441575028
Ni 6.477333668342833 2.0186536330623297 8.103798072373435 -1.0658107063017515 0.005245307559339353 0.19874755991898027
Ni 8.26853285694787 4.80187788326859 10.470782148901616 0.3132074162324735 -0.05065818847649985 -0.4648834765849478
Ni 3.442989931607956 4.499231736131325 4.921248588544778 -1.1964520574711135 1.416474210498154 -0.0712277850977354
Ni 3.3915545009224823 4.96347344618661 9.357911194166482 0.1533112819630521 -1.3570986967533143 -0.015451301558063712
Ni 9.001309845865677 8.779566394599073 5.02184600023023 -1.4853602348365904 0.18139569890409404 -0.44033946869699647
Ni 0.6128807992841389 0.9944517775576522 11.663273106787585 -0.2611209799498793 -0.6106274877237032 -0.1328427296960551
Ni 6.941940298090814 7.505859822205956 1.5289323177637928 -0.20036684068995816 -2.0999467072080416 -0.7691215994392755
Ni 7.148484844156639 6.57726692618758 3.664185091036286 0.6494164355664429 -0.25788884616582686 -0.2612351369302404
Ni 7.851457017173518 0.17734002305937974 0.32528758947057596 0.7498995179848698 0.4834854079568512 -0.6845415614043502
Ni 3.5203802754364184 0.48488339247262224 8.462297003076255 0.6714150513247211 -0.454920708945281 -1.272898153544995
Ni 4.036942346431964 7.611759517026279 6.187004473133284 0.3484343577555677 0.2394571218232005 0.4936057842203048
Ni 2.3033183623420084 2.714692331917988 3.7198508532593353 1.4160198965695547 -0.18468182585453355 0.8162632901220845
Ni 7.6246138132014885 2.053047314098909 10.71228691382693 1.3379007836686247 -0.2628150798228506 -2.087930399473456
P 6.920784078906774 3.7798655459200874 3.3078355373234434 3.3596638432863877 0.6739195629141297 -0.7818624440447115
P 4.083834526943374 2.6552104220085724 9.228512495735012 -0.5460393194296725 0.5452875288653126 -1.9091993918857182
P -0.22578858606013813 6.574347568646013 4.895972426030203 0.9482344158464638 0.12312138864323313 0.46733039546354355
P 5.588398419928174 6.074234252798731 0.29498465818911646 -1.4364694226731582 0.7794312088953995 1.7406062440629313
P -0.04821866359436003 6.736308051256729 0.8873843397207033 -0.09797548550522481 -0.30714244098531623 -1.450163375220483
P 2.227323836338108 8.709383214701353 6.825277296934429 -0.5051207268384398 -0.9575289537745123 1.4336962308033954
P 2.461173498409896 8.593375244393355 2.3036933173262537 -0.6808908520256403 0.34907070578798594 -0.26930171598845876
P 5.2055520473286885 6.445184243416334 4.771167154230543 0.6037510723188441 -0.9696445060911235 0.05222090497792942
Ni 7.471046483522777 5.923403820815239 8.050215089296445 -0.3202329556206872 -1.3969970756101489 -1.2669347368727084
Ni 5.764198481884376 8.222014719121471 8.434056780357759 -0.09024392118892201 0.23720354990233342 -0.3967523281346651
Ni 0.526627468419327 7.582246636879506 2.838230420084762 -1.4220501619240349 0.2466233005543366 1.1571416899072653
Ni 1.5074923735186827 5.278663707760292 3.9524506653836404 -1.320155800980378 0.07296276551097111 -1.6043388049560434
Ni 3.4861964232231393 7.018609925526202 3.590559806137212 -0.26184320282788454 -1.0805485267325583 0.4383561197183805
Ni 1.8828305234409517 6.551156922175195 5.7773921533737935 -0.3636367765276189 0.6137380083282269 -0.22764238857645955
Ni 5.522685506265976 5.401842350029761 2.527867133746213 -1.1771646699964113 0.7298821943226785 -0.5048021671567564
Ni 8.039253814027095 9.058784697465267 9.233626845228144 -1.1053578724667545 -0.7670145803986017 0.13751545258137607
Ni 5.540238143484645 3.9519160580338415 4.877813109822428 2.490144779163957 -0.09082241940021132 0.43318485993008615
Ni 4.3594674938288325 3.0356300786516304 11.335471220634336 0.09454409122617265 1.5058974355579935 0.45344849527512876
Ni 4.35334596598386 7.850170675256765 1.458445342221903 0.28473090605933543 -0.4385016441573093 0.8294895590043715
Ni 5.268455079357127 1.132710726127775 10.186762415178777 -1.3206666791785255 0.45294378772456834 -1.2150953836039138
Ni 0.07414438316193339 3.4203466646761815 3.5489799440522205 -1.6838609688520871 -0.6068975883676258 -0.44352866505825544
Ni -0.08990070319330647 7.530719976270858 7.065607020449263 0.5004392622023704 0.25258106079966824 0.9583007989435302
Ni 7.80585117857886 2.1946544008495157 5.9069377319815715 -0.03595276394552518 -0.30105484003033955 -0.6425703591788868
Ni 5.859853056332264 8.1946001272077 12.745967939834474 -0.17613573605673535 -1.3055948724470676 -0.11626477073271589
Ni 0.43744748161909475 0.9094428228449328 2.740036916874944 -0.2849404509669803 -0.01452930396442659 -0.31742736785109205
Ni 3.7068451154116566 0.34529248702415993 12.845310027777053 0.023620724742733513 0.8512346639909468 0.1418629309167944
Ni 4.135406802513609 8.010735340042919 10.723369524894101 -0.09482562702233345 0.6339047130840889 -0.14177011409267196
Ni 8.65342277982645 3.024290199201108 8.03132137220712 -0.26793800287171277 0.6846552041640789 0.715858883460393
Ni 6.775117260574927 6.849834567654393 10.47597586842791 -0.09179532483644191 1.4644553663631232 -0.0990671759075068
Ni 1.6700276046453937 6.319952927875451 10.563087672869788 -0.09384526538693515 1.344189444890814 -0.6855864577290967
Ni 0.8833556263133416 4.805590941141769 8.626251771807553 -0.036973234790239555 1.5322905808395417 0.014414118542800981
Ni 6.088776302552659 4.221391005105057 9.375215685994116 -1.2060854667958196 0.11990313881625156 -0.4319903254013528
P 7.364645024124998 0.2824004025865016 7.008605652150947 0.2647477780691892 -0.9492931961282812 -0.15052549168779883
P 2.3673161534485354 4.81252441530299 6.9718336070172215 0.8589482305851207 0.016845867912745182 1.1604486427933112
P 7.353168299789715 0.023920485856209938 2.651844037843454 0.5835110911228854 1.433217491394764 0.87941729707275
P 0.8521705016747899 1.516733964736204 4.833042025024812 -0.31927084881773404 1.8387048854095818 0.3778398075008783
P -0.5142931828062088 6.7231526963350445 9.474851534289314 3.9382898384028304 1.4717385302880976 0.48918271545194464
P 0.3549902278575509 1.4949300130976297 9.497817755149125 1.2751985195433972 0.9715314387011913 -0.6768987001471117
P 4.460495510751666 1.9872614164981732 4.527805860368638 -1.136816862306984 -0.07830706054201998 2.032679449419951
P 6.604608534162813 3.774802285183933 11.483870375165242 -0.04540131095293471 0.23134503423902736 0.49394439850664607
