# total energy = -340873.91450147063 ev
CRYSTAL
PRIMVEC
9.18254867338341 0.00000000000000 0.00000000000000
0.00000000000000 9.18254867338341 0.00000000000000
0.00000000000000 0.00000000000000 13.43958816974004
PRIMCOORD
 96 1
Ni 8.35754249036919 2.052088405953091 6.066374495179102 -0.5619500771226581 2.063277891032098 0.8500259883948263
Ni 1.699010231029934 8.710391101578189 12.15300293773091 -0.7919522241805457 -0.07563439880586328 0.144737424251112
Ni 4.503764595317695 5.8919731050237605 1.7871828988733487 0.31672082870237067 -0.7756977099948963 0.06968615164222838
Ni 3.2995284461376353 2.6925344382588956 2.5929800014675406 -0.3890333622238526 0.3597474687755417 -0.7360857520302292
Ni 0.8562570434757742 2.042051880370115 12.26065362759318 -0.8082314209565437 0.25480120837943854 -0.4722802832696512
Ni 9.0526614168388 5.479768499882138 9.700345133924568 -0.7898102381368785 -0.20942329446527155 -0.664173025050327
Ni 4.8390745387650425 8.249023131412548 4.775649757562689 0.5117616291937251 -1.8042230495826281 -0.5108653426317008
Ni 6.432347723053927 6.972887626958286 11.840464796473153 -0.7060174718899389 -0.745225252437652 -0.45675082017548435
Ni 6.5188106003542945 4.860818813770063 10.611750727579883 -0.007422003495683991 -0.8549802470763083 0.1314723317110897
Ni 0.02286362767525339 7.899443507493154 2.5840701745936507 -0.30574221820367986 -0.919264768086991 1.5626897619566893
Ni 7.38513814484274 1.874791758234792 12.861792842506043 -0.35232469394890936 -1.1036614586009381 -0.6274281042208096
Ni 2.827095504949591 8.727452276814391 8.244501644498497 0.07864978859341938 -1.1690248144980964 2.17491930406019
Ni 5.715245775316572 8.410994105573677 13.430946485997879 -0.26675375275562446 1.1020475771465987 0.1113598772319308
Ni 1.4424590066358203 2.8323387401809534 6.65541845712042 -1.255976952309624 1.6897624219381864 1.210119784766193
Ni 1.241315280290816 4.8438770116652226 11.483697991790912 -0.3480967719104908 -1.1147233728420542 -0.06559141274756446
Ni 0.9927069604065597 5.291562984467063 6.218094072120803 -0.3614523672817904 -0.34596198495567515 1.5773568770505608
Ni 5.07509358456489 2.9394072564641194 12.15121509552505 0.0849829299002988 -0.80631697754265 0.5494018081440022
Ni 6.001732108036855 2.7782627116739587 6.8752495880527205 0.2899242773348168 1.447893862460016 1.2917877913606461
Ni 4.984415917472586 0.9560594090784196 3.280119293233027 0.3719869482645271 0.4246783651209718 1.0262841089620391
Ni 7.177943118992538 4.693797437897464 8.077300290673998 0.2414569258620487 -0.08437280712012567 0.8089353890021035
Ni 5.131244869047871 7.5575129465294975 7.586714369225216 0.8014673627598327 0.11070373170517063 -0.05925724299942053
Ni 2.2975838418733683 6.330494894356424 13.107226755350926 3.014738270015027 0.13632194649390716 1.0734322274027512
Ni 6.2896233706877815 8.719876674247185 9.605595924797964 0.5965560972323016 -0.560426184278964 1.5955759711617488
Ni 9.3986139340745 6.717768880140516 13.13952269691349 -2.022818497465471 -0.8620338114889798 0.8299844963629189
P 0.8142386194911998 7.462868418456547 6.379423186137146 0.4519238311004862 1.2118133704185325 0.2821086379451399
P 7.370767456336465 1.1682864715429588 8.535549867346521 -0.597016581808488 0.36865685545002963 -0.807068510996694
P 8.167050520361105 4.861186115712716 12.140019732313007 -0.030655262992011725 -0.3022455179043311 0.3895622381441291
P 8.026199407902487 8.21952878541756 12.914691668286837 -2.0071108569222273 1.8587872579817535 -0.0130563189633259
P 1.2047136417055075 8.458972921832641 9.788320376973807 -0.28415343628931067 0.5551142851477473 0.6373083394489991
P 3.4549889933652507 5.648608020370865 4.177641791710939 0.9501123495954669 0.3592890410818844 -0.9581138797437045
P 4.193734208073396 6.941611866541437 12.312221902086716 0.7874751622457987 0.169116881536741 -0.23837802982640882
P 0.21824346828518504 3.944969784863512 8.230336645080108 0.5741466191888498 -0.20952845258456815 -0.5487724020901195
Ni 3.7975256025342845 0.23593181158846657 6.355245535762053 0.6338265515479858 0.10199052020188888 -1.4186647903915697
Ni 7.042528075285176 8.488054053142143 3.428183297590481 -1.840372502919992 -0.9059402830639429 1.8153222448195832
Ni 8.497126411125656 7.2697686046556305 11.008446926447865 1.416889700769018 1.2529587343085906 -1.0927831211255372
Ni 7.596401039707817 3.8719042459213893 3.6485791552596085 0.6254380703739745 0.6120395375798815 0.7074179517818914
Ni 6.457057961245865 0.5674135505385206 6.265576112502331 -0.60373076060387 -1.1374907484455572 -0.4877994619511728
Ni 0.6353836932811981 4.358111009958897 0.17316909213774287 -0.6682425671340104 -0.33456685574485606 0.1000205409597116
Ni 3.4204534282073618 3.947311334747921 7.268425197800379 1.0975941693609355 0.3290986335414332 -0.19240079176534605
Ni 1.418281356260728 6.640277352789433 8.379609991083743 0.5264660252834353 0.7741499058918022 -1.1523175290457446
Ni 0.5517820981140923 3.402437267920263 2.5645425668125372 -0.17166895853463338 0.8596349722395003 2.2662559440926584
Ni 3.8455778791817807 4.871424657364151 11.296135254775479 0.3750018238314509 0.6044370426422752 0.18269616288307247
Ni 6.895341004315805 6.544778847699816 1.4824131937026883 0.2258762978149723 0.9772428872636718 -1.0431307482057326
Ni 1.4820541560537455 1.4432027930696911 9.280842239182444 1.3875091907243717 1.5143129133151985 0.5236033590236595
Ni 5.038179739328326 0.8258224045075989 8.216305710870786 0.041545427541954255 0.8693997649357479 0.2314334801877756
Ni 2.886442316333648 7.3614747171873605 2.5866908739544754 -0.510229765930231 0.07401408959362092 0.9373650772321276
Ni 8.68140179575435 3.1584845001591253 10.156014414449958 0.38763699609695823 -0.44368498813046164 0.5450458451681517
Ni 4.8913507877530416 5.333775160226388 5.867791781629241 0.7711381156486719 0.2148380377229397 -0.12038702043120557
Ni 7.398939515337902 4.996950096265597 5.853787476810763 0.06722689146845842 -0.9939195765884044 -0.2713861093213133
Ni 4.035702547247214 2.0341089758602573 10.121299789595026 -0.11949536185487161 0.6477745290876457 -1.5195132265692153
Ni 3.4722521846699124 8.626627893556316 0.6458729185084933 -1.4774427797617267 -1.5187858614848875 -0.404148106378104
Ni 1.8431854260695555 8.393354429777796 4.666601483808627 0.023292394869037305 0.928756252517194 -1.085608200643653
Ni 2.57115951130942 3.7492253970754983 4.693547672576461 -1.0024569246354542 1.482380840493292 -0.8942762164624535
Ni 3.8475521271235373 8.911112430689142 10.730476489267978 -0.33627329691300156 -0.6318635142843441 0.42858309949201673
Ni 4.565774345785981 1.314445097072903 0.9743326807253749 1.6664265754257237 0.69021984273605 -0.19986059047750096
Ni 6.829667416969562 2.1039422577070392 2.366819339808483 -0.5501841948359815 -0.26976040079243213 0.31413789846654283
P 8.535693115104156 5.567406743398994 2.4146503170355316 0.8056847432752898 -0.4134529287187976 0.548189790113772
P 3.1454452811949665 1.8307981680536043 7.696543159607415 -0.17210553185141975 -0.007961163828605644 0.8965657838275785
P 4.9825702252107575 8.096895849314503 2.5143590206428006 0.41319016197571423 -0.6502718415882027 -1.7709876845682662
P 3.701512874724955 6.026561719360154 8.04929168103704 -0.9648668821968223 -0.6110758881150316 0.36236742289689206
P 2.677686257227173 3.1272730175822403 11.326427564240875 -1.415831948928465 0.19278131503321638 -0.26434668597602856
P 1.7437751552906915 2.624050991051361 0.79984497461351 1.5257779765320043 -0.7414328752747553 0.06281539266432407
P 6.623344733233158 7.527844132111752 5.977014523806063 -0.007416089958413034 -0.5795616195568342 -1.0261375560818455
P 6.909041366776738 6.64787132045377 9.436929036222283 0.0676737491978899 0.13549456549660535 -0.2197151633095829
Ni 1.3576949008202195 6.194583993026481 3.99991723722945 -0.6130312120691893 -1.1579415601007415 -0.13699454708089956
Ni 7.595491967399751 3.7708962116919875 0.8789627313156871 -0.7391345661588818 1.5459559941417762 -0.22830547608175517
Ni 2.9968532802949497 6.83937337080415 6.083712065127149 0.008329345801301784 0.2381242619443899 0.6430321293066539
Ni 7.5402956679676665 9.214962962748315 1.3576939825653631 -0.457349887212064 -0.7362413037714869 -2.0610289470969216
Ni 2.1771363523290903 6.7540307644288715 10.656423826354978 0.4743837027658991 0.9478464363794256 0.046928289120422406
Ni 2.3570041136459556 4.629225756379179 9.332207579352666 -0.36475006419645567 -0.6867280275327076 0.07010986944320828
Ni 8.185360522202325 6.833239428361855 7.585988947888478 -0.6738912807793556 0.45552697507071227 -0.3438328544278143
Ni 8.628152196618323 -0.04954995031866131 5.415857961860625 0.011175814111161399 -0.6308962652750684 -0.3384350804510107
Ni 3.102672969973098 1.4329367037725573 12.519366423919804 0.5813475078126633 -0.37959484251877207 0.4757574431849742
Ni 6.539710080891213 2.0786627015039896 10.29815108370786 0.4625962232126678 -0.08748332772464933 0.10648635118971339
Ni 9.015132340848293 1.8075571376322757 1.264710577528059 -1.759710826102866 -0.5722761416390144 -2.4210607798821013
Ni 8.436539955685149 6.898196776919927 4.996314663904809 -0.15731911757086453 -0.7807866944820295 -0.8932670584716487
Ni 3.296994062733334 4.08256109258109 0.1627211883789962 -0.17943780384677482 -0.45838552756542994 0.178294434270951
Ni 1.8745346468749353 5.072210264315068 1.942679258040373 1.5787085059824488 1.6157447328001397 0.3563775238620443
Ni 1.5294544717530338 0.6074861924818941 6.59136558959613 0.1758338885456004 -0.8095647950559863 -0.8282379459854574
Ni 1.6511599704508966 0.9140446581132716 2.2608481380789915 1.2221106385794822 -1.8519306400712365 0.5354841696216455
Ni 0.9859302395646234 1.6633635774955216 4.514693664621316 -0.12245778691730523 0.4342824638696392 -0.927022557655539
Ni 4.1487213550013475 2.4372044928241006 5.403963806702685 1.743868973974603 -0.5552081304131341 0.597138709208649
Ni 9.152953212280028 9.398522108588837 8.064814779388387 -1.2503243820095369 -1.637733578366405 -0.24316773790556828
Ni 4.588335867613403 6.6926821574573605 10.0501377929707 1.024854575604364 0.3125062764003908 -1.1348301708942585
Ni 5.094955437113817 4.02757599176603 3.6452734377757374 -0.4131155999840369 -0.29000449575344894 -0.32214971302742584
Ni 5.646725597914772 4.96999931622348 13.014063372361722 0.5385309268677693 1.0826959120928645 1.1795727652172718
Ni 8.69444101471851 0.6089774383690627 10.464385515168326 -0.4316144301191728 -0.17532275323713675 0.750181825111979
Ni 6.4364431397145 5.953505362966598 3.745250271801143 -0.1805986569240954 1.2178058405565413 0.42687820098576806
P 5.590656956368888 3.593709754556485 9.108720875836116 -1.0444278697506013 -0.5037827247533065 -0.7653485055500883
P 3.0704330419567856 1.0551942034002941 4.2064832585028595 -0.7379701135371355 -0.6874535928448225 -0.3689805573380355
P 6.368584105809474 2.341292773049 4.749671409413743 -0.2862206032309845 0.11824760549069958 -0.3089180448285002
P 5.200655753660602 3.338489999704485 1.1376690998583139 0.7106354302779245 1.2072715166841208 0.1653774690989668
P 8.531882357449136 0.8069256378129911 3.202774686659005 1.1345501777599947 0.7098890390302033 0.4370255738324151
P 5.506324430335905 0.7987357227466998 11.674782236181523 -0.2577708325307238 -0.28243928181168126 1.1559543544673834
P 0.39328029080131527 3.827570901443248 4.861730640842698 -1.5649261074863758 -0.8570163036697306 -0.7750557055355233
P 1.3540035162965631 8.068420766210377 1.0787538682568738 2.1638651031285576 0.06386903073981903 -1.9452483150894757
