# total energy = -340894.0148679985 ev
CRYSTAL
PRIMVEC
9.02359740973694 0.00000000000000 0.00000000000000
0.00000000000000 9.02359740973694 0.00000000000000
0.00000000000000 0.00000000000000 13.20694692835958
PRIMCOORD
 96 1
Ni 6.3617084203066465 1.925392067559645 11.467209348866815 0.5836399033912658 -0.05630433101868367 0.2560808464228106
Ni 4.554823258603229 0.6852565053053254 6.257107780544612 -0.0380474416910248 -0.8426186401871617 -0.6566664322606368
Ni 2.6159138420012766 1.650776925099996 4.5390166228773206 0.950898335831872 -0.8976057950563187 0.6441449027548584
Ni 3.169105486219355 4.095413863114594 4.583549881217507 0.3389662703641323 0.3838219932262422 0.03511561275621049
Ni 5.133542660124839 4.41225944183459 3.062004407592418 -0.15221650623697655 -0.8780322437997654 -1.6424626084109584
Ni 7.226927042184247 6.060978986706518 2.660909108533028 -0.2355585580997427 -0.1869737072125038 0.0064704382156920825
Ni 4.921127175174287 4.545240198067227 11.71837847796423 0.8575462080312715 0.47816116753046034 -0.5654436920982133
Ni 5.605269266189409 7.757252890358794 12.420407143927056 -0.4477303618444289 1.4248562639142623 0.26421555971480304
Ni 1.7697350108307996 6.354254928778645 0.3704655997341498 0.9970182701183863 0.48785782599293404 -0.050933039404441306
Ni 2.599996216026222 1.5030064925787456 0.31938752613335974 0.48035586118893403 0.18607562087826665 0.08569615391723952
Ni 0.5381267482059736 9.125293435256767 4.62731793849041 0.48623031769184 -1.5693358065182972 1.5955327766286393
Ni 8.55184381467021 2.2953054231273136 1.1445115972768558 1.1948057801169423 0.6712343027724827 2.0662418587564284
Ni 6.78689131050992 0.7459401984358464 4.902629702676405 -0.10343470884758316 -0.1562557093033567 -0.05555639710906561
Ni 0.8907860830100927 7.326051260628673 2.520295291182308 0.15137344151039092 -0.09328527911840709 -0.2696418729366969
Ni 7.6398739341890085 3.622261528646362 3.758710053394993 -0.8547203085467022 0.5447979908234036 0.5536312728443175
Ni 7.513372120955288 3.8735596951879048 12.709758723450118 -1.2212686022941612 -0.23612831456028366 0.17335174555369498
Ni 8.021283352960882 8.9300408327351 6.9656740428900505 -0.14889412673196292 0.22435523318475553 -0.3494674270057723
Ni 7.0554696662477365 0.5554511530299568 0.4759361142943678 -1.0907012988958442 0.011155502396187239 -1.0205896296804229
Ni 2.0880063179544575 6.378420122860956 9.023831202702286 -0.6495197939135265 1.2649817269113957 0.4322998862219716
Ni 8.987909163448265 4.940645216548461 1.2666712553976538 0.18445865410013393 -1.3645392121917599 0.9062686129376392
Ni 6.498713701020505 1.981455678774504 7.181607828502549 0.5717696343162411 0.384853262704234 -0.31263071779339713
Ni 3.4684091914158226 4.333393199758643 0.5113230542171411 -0.2860761072333202 0.6320434915056341 -0.4517919335083122
Ni 5.885587322263703 5.758850895495202 4.7285094631201465 1.2051557558926986 -0.36448961144621744 1.369560319555435
Ni 5.374914869425702 3.145860699081181 9.43485787316085 -0.3986580297978102 -0.3166532086892288 -0.10858128604552914
P -0.050647648000444176 5.71954410482211 12.387059537037368 1.4828608654535043 -1.1682149170022913 -0.7413058627785878
P 3.9521101113516495 6.284177670659445 12.678286220119169 -0.14709204052621763 -1.479685038828684 0.7808008355494166
P 2.5485797575195 8.363629618191935 1.2389489591841838 -0.931541528571815 0.053429580574049916 1.5789658734088936
P 6.618231249795784 7.603544930688119 5.795816062619244 -0.5061674229353993 0.8806311148751931 0.14656702126068308
P 4.723600626084756 0.908152898742286 12.68438797674294 -0.044046082476620924 0.10891450101523177 -0.9520352776497925
P 3.9691556870131444 6.260247090111915 7.992817512314111 0.9402506263100388 -0.21941537268097697 0.9260475953367793
P 4.787758404249514 1.1624108052610493 3.8364203726322765 -0.6941353757403722 -0.3675826485492444 -0.01208675596120499
P 0.1192558644480242 5.35618188103329 3.4934623074912987 0.7948963944105342 0.3112227817022769 0.3591247475898782
Ni 1.3994787585584536 0.7867927313592377 2.564260965240276 0.38646328750383124 0.6939525703056049 -1.4454811392534654
Ni 1.8359772400161014 6.441603352496629 4.604086686748473 0.25775669146333674 -0.4654810009596306 0.5960989550902249
Ni 5.825589422542539 5.710195657820888 9.252774308818319 -0.9709040895298376 0.11147069177818221 0.4102056254260935
Ni 8.6797623327101 2.640837018272875 10.217765945799986 0.26680826014264375 -0.5484728685718296 0.6504780440617378
Ni 2.505943259372034 5.260603936403034 6.684445505828862 -0.6924929550409429 -0.3681035540497209 0.4436523351203133
Ni 0.5676185718875321 -0.020830974809190668 8.868385298154742 0.8473803232418631 -0.2359437093533033 0.5004369482095252
Ni 1.4389930919738514 1.2077363354609907 11.268048626271568 -0.3408920266319355 -0.05012699856337818 0.5499525384411497
Ni 4.272159067181138 6.664062101455251 1.7100881290520555 -0.7467851407256042 0.6291188616596713 0.16133132405405118
Ni 5.896153954926281 8.213792781845124 8.11065035543772 -0.9615280476315762 -0.10539414656679913 -0.4472449375675781
Ni 5.1285616343095155 2.896267992465537 5.175445539796244 0.7389674444533983 -0.22330827997747993 -0.6395251445946599
Ni 0.6956697368105479 7.324697721004944 6.751258928735377 0.5301100497939257 -0.6468059945267892 0.5261361527478423
Ni 5.050841389114992 4.390702067427332 7.1896370255505095 0.5968813417822043 0.7864724320128972 -0.05788427391129387
Ni 8.086587128007064 7.076648049560351 9.184375439832543 0.8474538567922759 0.30919700952149975 0.09076739779255981
Ni 4.609858179704053 0.3990640872640471 10.34493550524808 0.2558005961782304 0.06095314264460469 -0.08985439905998718
Ni 8.463448653643209 7.065639260620688 4.659701825168003 -1.2941629764610423 -0.176062973837271 0.30514649360121
Ni 7.1232007890191404 5.932690501169476 7.250442537247166 -0.013907354109711534 1.077214320153003 -1.9190989103876177
Ni 2.350087683498375 5.076513523978386 2.5493242043125512 -0.7046077360266059 0.559500844251217 -0.07761311979878892
Ni 2.3439787079966115 5.30122817230989 11.405704508364567 0.5547407038584123 0.02560278816976881 0.2398124482800902
Ni 0.9772375611374187 3.164647829058541 3.465423283005876 0.14283866456650238 0.5327917103911469 -0.22445062111203926
Ni 3.570691668982284 2.537228071875159 2.3396239198472 0.31799866697352974 0.012088298623101762 0.9206835028113887
Ni 1.111950848088429 3.4513636157543273 8.112103154633855 -0.19647856137914546 0.12323117474822003 -0.4570184720145742
Ni 3.488197940714742 2.707656757697634 6.922500640691839 -1.1500436454099032 -0.034792682199152984 0.4613093860804442
Ni 4.376697444120482 7.074374102992486 6.046153216027939 -0.44804712175389927 0.6382187670784105 -0.5582847124559288
Ni 0.8094067690327541 7.289072558108395 11.120315190500033 0.38515459599473667 0.6247176472681821 -0.25452327212770354
P 0.2849597946239358 5.503618440447354 8.044985636491877 -0.27703945095234866 1.1474954250667526 -0.7676288169438328
P 8.604505529630762 1.8412019029636957 7.940043002384913 -0.3978131652990117 -0.5138699337859796 0.8738135777327274
P 1.9320063645209344 3.45563177736782 10.447117820882385 -0.730151388823665 -1.4723000592185225 -0.045095863897373946
P 3.9018216025313683 6.138906774643347 3.8464311516893774 0.3612307381892876 -0.27980441529199557 0.1764550670693671
P 6.921577526668456 4.0146887599553915 10.6105802894414 -0.16049931507105905 0.27895363725592603 -0.5141800088272306
P 6.302098535277618 7.671655044554167 10.224316175219085 -0.6021986402300596 0.8640747531784085 0.44303089948623053
P 2.4089666571305908 8.380242061173837 5.587040696896774 -0.25940965368572744 0.902539227802194 1.0562014653467615
P 6.848188608269865 3.7659262243089677 1.7380342104833155 -0.8657894218766701 0.7316130609708561 -1.2885538578043807
Ni 5.156200913426063 2.779259003792903 0.4428195115004627 1.2038817742762815 -0.16593462715401744 0.30413116496281817
Ni 1.4273526512097812 1.1476752705573854 6.781925624810333 0.22689008379146733 0.17572924464693607 0.23938461671405228
Ni 7.366585260560614 0.6922940089889675 9.511115393202 -0.8493235630111632 -0.19218944708548838 -0.49807667550746476
Ni 2.4888345185280984 1.7011195755052264 9.169688632555333 1.2633881571720305 -0.3637635319134703 -0.5849894754406247
Ni 6.430711870324356 1.6266568490051438 2.4366023268081416 0.21528849499679698 1.4515944512400547 1.2404732002470702
Ni 3.9688398611009412 7.054251480586381 10.69557987073234 0.9542528541264018 -0.9547403352857814 -2.858841486712986
Ni 8.41353011232008 7.173732934971692 0.5078417503049099 -1.6599065149190186 0.9348780491442157 0.870198092467327
Ni 7.601749234787306 4.035190373456141 8.447889264488568 0.18479701127615913 -1.2507470713692526 0.03494077774124305
Ni 2.9986497296044052 8.274575734548051 12.35684221611749 -0.39401127505441824 1.3190144882870833 0.07777792751142734
Ni 0.2684727796471663 4.9914029524383015 10.164621468373635 -0.4801270330075796 0.21502212870928777 0.7609164379206638
Ni 8.717354639859803 2.2415518528702854 5.547036382137587 -0.9067072431369545 0.9871439484274676 1.0014637074842494
Ni 3.7271879202778413 2.607512872736665 11.504637426542171 -0.5087107581825432 -0.5880876547499743 -0.404064288415046
Ni 0.7761791759897033 3.5597640924200444 12.543905903915595 1.7055353685017272 -0.33483682157679107 -0.6815457120008198
Ni 2.907872338839641 8.473338516493923 7.709964727704445 0.6875772629068804 -0.4472079136820556 1.021431665965744
Ni 5.630409008800804 7.980117701204534 3.5834672783107884 -0.05451895698348675 -0.230162583895152 0.37827740925892916
Ni 3.1719388958316945 8.24773955560825 3.5781974973757364 0.2149750775214362 0.508110405594383 -0.46968758284181045
Ni 3.3019238176971446 4.2796306059041225 9.013371950849857 0.6538559593950352 0.06056670583946343 0.10590553898557889
Ni 7.05194143962855 6.014462341637695 11.546318325715285 0.06820776732448898 0.014627262994871585 -0.994180543559275
Ni 0.6517735444532645 9.079363324024895 0.1734958066098454 0.37571659051028844 -0.3846961683010794 0.3173039548993503
Ni 4.6404842695902975 0.21436367964897232 1.6301598095513545 -0.6464964337061705 0.07384799632940184 -0.4459185054466707
Ni 6.037842482738242 5.678667208185492 0.5225754802890755 0.22646559465953897 -0.9118877588966295 0.09733399526648398
Ni 7.869596679128309 8.54829754085604 11.656715724505878 -0.11964165762474878 0.13099487785403893 -0.9183579400020054
Ni -0.07358653518365561 4.828292404181455 5.9165409687388895 0.37535432207486324 -0.0972954287190647 -0.4604524373967877
Ni 7.839836854601252 8.619385441894291 2.645337988701649 1.0621844224030739 -0.06475863243362395 0.4236951752720961
P 8.545536320023633 1.4919435620541335 3.515715401265154 -1.725835770621976 0.7839918316828886 -1.5404795444082373
P 1.740796333675472 3.300083003808873 1.3861355649477323 -0.29616511603820606 -0.6407258497709805 -0.43637945560798397
P 4.787289177179954 1.388379733643875 8.38857715817676 -0.8345386913925046 -0.852784782086886 -0.7467995389033074
P 8.513773256853456 1.5707285917526577 12.372783303446022 -0.3089854077313259 0.35308291227117256 -1.9865931965848498
P 6.354877557005561 7.755854232747608 1.3374541588406919 -0.3548919404554533 -1.448995580164627 0.9898222665905791
P 1.575375744460794 3.2942898542193126 5.781116622305547 1.0716833630324445 -0.3033228101289098 0.5267215929376671
P 6.874772126479904 3.9849199118308425 5.985150989905967 0.09904249331715846 -0.19276254598013898 0.244150927754444
P 2.4429946432711396 8.619349347504325 10.071882347514215 -0.39648801872968487 -0.4237172867592832 -0.21755980752947693
