# total energy = -340887.6562409348 ev
CRYSTAL
PRIMVEC
9.16330569936330 0.00000000000000 0.00000000000000

0.00000000000000 9.16330569936330 0.00000000000000

0.00000000000000 0.00000000000000 13.41142413215691

PRIMCOORD
 96 1
Ni 6.834625559434101 2.3058908659271733 11.271885722464278 -0.9629480679075546 1.2693798559790912 0.2775629275559865
Ni 4.880284911558206 0.34571410873609937 5.829905757311058 0.8702623700463593 0.2895342409852497 0.183469036493355
Ni 2.962313423474975 1.340390011627915 4.6992289895347055 -1.4099351238280555 0.47206353927315475 0.3400556467735692
Ni 3.720769388503579 4.614814785996794 4.378883492258921 -1.0471653232864224 -0.7307265446008447 1.2144610924540247
Ni 3.6697389398048283 2.6420925471548915 2.7548002892898826 0.30028659440574734 1.0077940205776514 -0.6161972685019967
Ni 5.357198313062099 4.676712915097181 2.513113523325814 -0.24375626341918666 0.5742875156420884 -0.012433340667346329
Ni 5.668613252732963 3.4556016520258543 -0.02606135736112712 0.02165974436162076 0.20001768488065555 0.5898594019384165
Ni 6.1679400996520375 8.264257003972256 12.29607663258516 -0.8475759841924372 0.5620333808650836 1.046960663474784
Ni 1.904125733372545 6.965908238282547 0.3524518873190032 -0.31079957812192927 0.06294677603586578 -1.5748048000526684
Ni 0.37795519937114236 0.32547053407901905 13.991467763140626 0.6598530575187346 0.4186067050055952 -0.49189317240457214
Ni 8.053455159419418 0.07173585395637276 6.794093509922665 0.3926858713747753 -0.18265656789438864 0.9789459859977077
Ni 8.799174129710858 2.7698931698881433 1.4874344923809628 0.6460400628950422 0.7855339793590277 0.3030962959404006
Ni 7.137207072539047 0.6181016136695154 4.7465446341568756 -0.49725340827522096 0.2551735041171928 -1.3211868133480535
Ni 1.0139289242171785 7.768677949029801 2.3821240702554887 -0.7870524728860833 0.03743191959421295 0.8226522243675639
Ni 8.05255715547392 4.106168857316788 4.070769175253039 -0.28871328774585114 -0.13957901997862412 -0.47733532919505534
Ni 8.308158400940423 4.2310005690465555 12.48146221648874 -1.6558102333624578 -0.4125381302140121 0.4244703628752238
Ni 8.371715088348312 7.238388292602183 8.881326829435006 -0.006310772709376227 1.2391706793855628 1.1832694973425686
Ni 7.0795973704436905 1.3383924110144605 0.3100184519025595 0.07541636925778625 -0.8398004540120763 -0.3059818450183117
Ni 2.302472952950942 7.127017476749316 8.990736697896685 -0.797357197246201 -2.5381588451493897 -0.10778887205122083
Ni 0.32892326761640267 5.483633603265972 1.299485015579931 -1.2550068750868708 -1.3103215884987756 -0.3625810815695949
Ni 6.596233001821118 2.1168060555664763 6.555061353581155 -0.15128422423069432 0.3235985296588104 1.4328621649378743
Ni 3.5057982399180716 4.793719163873326 0.30032459094396574 0.7139382693989124 -0.38121026663500795 -0.8288791791138822
Ni 6.4133884025510755 5.779672516196576 4.822506604640428 -1.1028009103728555 0.20529667389140774 -0.8682839061637498
Ni 5.787562122289165 3.4255643363795074 8.985345925232027 -0.12993969711664718 -1.603593956370219 -0.4319545870674109
P 0.5155935469603784 5.799364459858564 12.273035500738688 1.0453267274157867 1.9323344352412848 0.7110504063281561
P 4.325043574073541 6.534050810248175 12.563379419259835 0.23971783168375488 -0.3288659487053368 -0.8026840087757531
P 2.5177831438424025 9.073331068949129 1.1211322686984901 0.15947987266760918 -0.13063826584556856 0.26557361640459426
P 6.435710214910594 7.7984770187314245 5.727616693604956 1.2654478679145367 0.38310362700297895 0.14493719896674392
P 5.127694161848432 1.4037176163966465 12.712273055076164 0.1295208644116737 -0.18972067383002164 -0.882250652756487
P 4.32851646688317 6.377514061258992 8.142571971373957 0.05695122057406321 1.2417896050656485 0.44611905149325104
P 4.907967257674012 1.2102985625030875 3.755896004061451 1.3119367555046952 -0.49880429770210877 0.25045630114718154
P 0.36470597585282244 5.766752255348086 3.514235811683525 0.3902186407812054 0.0031807117208267803 -0.42079060003079144
Ni 0.5483642766571537 0.024923274809792083 4.646763567184272 -0.028578325858324975 -0.3679256337109599 1.4641864289724524
Ni 2.077880333520814 6.467479395308971 4.775432871285209 0.47567465366318085 2.114226099945191 -0.9885968788239102
Ni 6.351343660561626 5.875181650114169 9.104519295774603 -0.7348660206905151 0.38558525577425207 -0.27913181470500315
Ni 9.127293775429097 2.9120343658326613 10.34455278484035 0.49748326489784006 -1.7549249746784488 -0.13743446283179556
Ni 2.8171941532214078 5.497112825754005 6.799189224148088 -0.3074311758703286 -0.6587598244545558 1.106562434297817
Ni 0.42903512991995113 0.32402273179954294 9.40095223084456 0.9157282156886424 -0.42906081045938366 0.0405475824050592
Ni 1.6103868101390824 1.1245483490136086 11.842260259091697 -0.3576229662333712 0.4716485632229232 -1.0472475985875835
Ni 4.123753240698526 6.954151717240978 1.2556697536840886 0.3955598504884607 1.8975767200451257 1.2841616422739561
Ni 6.172494262518492 8.148405331697466 7.9727960785025775 -1.2279300734747367 -0.28719710821164085 -0.33693741285956164
Ni 5.6349839213046256 3.427387834187202 4.790453361769495 0.18253444049422757 -1.2136871904024775 -0.6687848127907257
Ni 0.7660056124846826 7.836000755025442 7.09342296588213 1.0102432534490924 0.2921017446021098 -1.012003687783625
Ni 5.281628532056785 4.862938774121191 6.975268554918528 -0.46195241898108186 -0.624501417492318 -0.5284884550301027
Ni 0.6844787665307132 7.903076151770792 11.286558007337046 0.4096770066161332 -1.1828156976346016 0.06302853711639468
Ni 4.945197768189908 0.5497415214837693 10.518136947505084 -0.4890973548269899 0.39826953611013993 0.08036420018136482
Ni 8.571291883582427 7.075180657160731 4.887847387642077 -0.14374729242370082 1.1993224370403732 -0.8966732559397204
Ni 7.703838398842629 6.201908473386329 6.800758898391596 -0.21132436814272634 0.3885255693494986 1.6467242119007897
Ni 2.4583591072449167 5.631291109161404 2.4288358530408396 -0.34375289311949836 -0.5087493247299626 0.3422709092573331
Ni 2.711092238069166 5.696258945626505 11.230028658967957 -1.5745985975791335 -0.4991192578393662 1.2601966468179264
Ni 1.3408298502950977 3.553887267530038 3.484555864954264 -0.471540319779833 0.10337737324708647 0.5793806138942795
Ni 1.4204039958328876 1.0900851567787366 2.8862185850607114 0.10896823707130265 0.7018000913744816 -2.353653911192353
Ni 1.744665889907711 3.777050411291822 8.33234311332157 -0.8522332804587903 -0.27097936080119783 -1.0433801452123772
Ni 3.8588329134710917 2.406714717073224 6.542078782254815 0.9303454513811847 2.114914127151151 0.9281893242701305
Ni 4.268267732784717 7.254882242621532 5.852195498101095 0.6618860287883633 -1.7648820858911605 -0.3242968412774157
Ni 8.451124294385908 7.464566163895282 -0.004002531871361881 -0.19911214234725064 -0.2964417667383604 -0.12552922675377734
P 0.7356659077546478 5.911953995351751 8.014707205501741 0.20791842778497097 -0.7897747569132528 -0.5942079087150993
P 8.988231450154856 1.904703021623222 8.139272265039532 -0.2038260028831522 0.1371336437619251 -0.8118520484282664
P 2.1858607263141483 3.3793996029364646 10.39992847303864 0.3514325211519431 -0.14024467858708103 0.5571446853142147
P 4.15791404384971 6.464684587111249 3.546717897254961 0.26790097898619025 -0.22671242056302243 -0.06403409556277359
P 7.377294841681796 4.228773885793944 10.175341351591854 -0.32220961973108375 0.7515406531327187 1.1116239079811243
P 6.55645509235779 8.166035531607038 10.206240934291989 1.0497320555723342 -0.9057317665975627 -0.6852463007808586
P 2.5832091455858177 8.574031711946752 5.781450197476439 -1.4300781744348339 0.47197175089029686 0.25510125611836065
P 7.193524748549556 4.346229136542838 1.4053431868041093 0.210131890496522 0.2794532026001639 -0.16160437520977974
Ni 3.2376982456591294 2.0329526463292225 0.21206271539876254 0.36231522950271794 -0.9040533504538752 0.378463042907174
Ni 1.7846545553990645 1.2001639465467546 7.082519548588785 -1.2117748038711131 -0.11028567033114554 -0.6099667142112528
Ni 7.112805189815978 0.881709755539855 9.17492921941553 0.09980893916953777 0.9542903922325565 -0.4034099426604988
Ni 3.1575926283984934 1.7481662726340395 8.942375520109398 0.30289960654856224 0.018731772081548383 1.3987117443084105
Ni 6.422606687950777 2.348115377976705 2.479946938828574 0.7810911130963257 0.5721535000182211 0.8670112100989132
Ni 4.334060266750785 7.240459199660169 10.452609233069882 1.1003043692032468 0.2309938215471957 -0.8378078490620797
Ni 7.328729322180381 6.300835520280154 11.335389262699882 0.9702358598182194 0.17403308789143576 -0.141262321218318
Ni 8.471347709770743 4.26101955808177 8.116070775345648 -1.0379147512224318 -1.4300090117597954 -0.31110965316318034
Ni 3.092578975405562 8.488602214152094 12.284945048983214 1.0142942835900146 -0.046172641901320484 0.35927490001449736
Ni 0.2976369934213686 5.245396821847616 10.168072101286104 0.6318300899432473 0.8383853188321044 0.024172226370829338
Ni 8.93550578992634 2.2787949713676103 5.835310274934065 0.5521580307329007 0.7715417788449938 0.045492328004844235
Ni 4.19089278058284 2.9439776490367993 11.279034017136553 -1.529357723463463 -1.723306576442219 0.22082587987525842
Ni 1.5659722680592034 3.479801942026465 12.58880759220633 -0.09361772275716136 1.080458023901281 -0.09043778236728296
Ni 3.5963591888298603 8.687620047746666 7.85965766100597 0.7039539044926909 0.42346326176694815 0.11899091141462734
Ni 5.808170396507784 7.813257430609873 3.564823672723423 -0.6008326131204685 1.6581141989052863 -0.3213315880015047
Ni 3.1207469767163825 8.441502823541288 3.539609921127179 0.710152577104235 -0.22396956771056267 -0.9020424906714337
Ni 3.7544353731541826 4.583696200293622 9.414082331390517 0.5422677682023822 0.3863403887727217 -0.9551967060969098
Ni 5.4021168369481245 4.750285095489041 11.298883569654281 0.9816374167869416 1.8621080948248705 0.32787401710571273
Ni 8.109488772957372 0.093963284268558 2.4906084448549692 -0.47969148813205775 -0.20144773245896272 0.005364863856339147
Ni 5.058547858045097 0.5415403630019267 1.6115835378460415 -0.9608788440833517 -0.7011835408364053 -0.3479659027595814
Ni 6.166226561511139 6.069260462008503 13.821411473118918 0.5575779161968913 -0.2349263238323825 -1.105811157954089
Ni 8.226751594289372 9.678008439964009 11.517140679615867 0.5089586125272912 -1.0505211271325328 0.07159468151885089
Ni 0.6714577093209944 5.08539634335437 5.815877652819602 -1.3162492668371202 -2.0600827811335685 0.800286455077854
Ni 7.493962048151987 6.65204669602548 2.4592928480821232 1.0201677116516559 -1.0185299189379167 -0.04086048565978769
P 8.567452458550145 2.0007253006525287 3.590707261956564 0.3218463228543941 -0.9838238829152992 0.18507726152073933
P 2.1423166982630684 3.583952073093084 1.4531279926712748 -0.6072212902556317 -0.06345893978559394 -0.1254649491747452
P 5.169552141675313 1.3640771565168126 8.018878342195524 -0.23389813967818426 -0.6880441752409698 0.7894366568475437
P 8.969629939855258 2.178117733110621 12.787886819948195 -0.3014497614759131 -1.6716235462456306 -0.9324565841869167
P 6.587234635755007 8.19489078083533 1.082628058708878 0.6395999636966533 -0.14005955915946847 1.11976504903102
P 1.9568513936010619 3.1348493039829255 5.722453170918343 0.154424826742205 0.6189637755035404 0.2467307726664783
P 7.17955070756094 4.197517850507278 6.21234547842635 0.7727856785544239 -0.5253249697004565 -0.747576783388964
P 2.49321632161914 8.783834756192864 10.14228197776974 0.5442287485834949 2.4246436121373534 1.1424925725355226
