# total energy = -340858.9550689053 ev
CRYSTAL
PRIMVEC
9.37259032398606 0.00000000000000 0.00000000000000

0.00000000000000 9.37259032398606 0.00000000000000

0.00000000000000 0.00000000000000 13.71773333509892

PRIMCOORD
 96 1
Ni 2.2179110446173884 2.6935137713479427 4.403186729498143 -0.9505633210899566 2.2431715514693686 -0.026159689114503334
Ni 0.6202049257795906 4.257124280866404 2.915869105751136 2.136388752085159 0.5976318467949836 0.1459404434202777
Ni 2.215380445212193 5.951473053729586 1.6094190450476982 -1.0613632120533592 1.0310486202302178 0.6013581466066353
Ni 5.914629400908015 5.3104628518031305 2.409176559439195 2.0331988122585307 -0.4414219031278978 1.1715797197094662
Ni 6.608932151789813 5.179940158037372 11.307691954555771 0.5757108783521763 -1.1318728880381475 0.15603562287275063
Ni 7.111209270769207 1.1833551448214474 10.474518343648185 -1.8700175794799343 0.6618580037639054 0.9438712537817616
Ni 0.473267077205462 5.240702661533237 6.835519210753918 2.3848730171076347 2.1237085855143296 -0.8980721931697759
Ni 4.887327886073635 0.7288191895096281 6.474879740483325 0.031631510862351976 0.5163016831559236 0.3813858729809238
Ni 0.16987257725751315 1.3631776640365743 5.143601687837801 -0.04319016223422884 -0.05397722554740381 0.6191866901476241
Ni 4.067329325476728 7.754675091377741 10.27747650136926 -2.0618709833822426 0.8349968619758458 2.425310299187075
Ni 8.237241652767777 6.736174438919207 7.983062624955689 -0.7462166698166439 -2.508296767482635 2.9564742441668113
Ni 8.963401838383872 8.482944109831498 4.01395992128019 1.9998354063067365 2.376003225421831 -0.2650403696089435
Ni 4.073730804712834 4.1747579565224795 12.315383198517964 0.9936835493181982 3.223525730668513 -1.3653015442790808
Ni 8.14306586453294 3.5732251053170776 1.8612905411058631 -1.4271142067105034 -0.6233760456386233 -0.9220806402692313
Ni 1.061445861623743 7.63390926420757 8.263370560255943 -0.005171516898610448 -0.24393572641984443 0.3187525144204188
Ni 1.3263996193477305 0.8932162994615289 2.9274330077738413 -1.4996730519148365 -0.7732430778068167 1.530243468502526
Ni 9.199787940600316 7.331605733780972 13.782618172837147 0.6250135812420461 0.3185684234340707 -2.408935200263161
Ni 5.691224336381184 3.915015359055117 6.425056924490217 1.900453013151656 -1.4540845646517602 -0.10497299986898051
Ni 6.325945530156209 6.373024051683238 9.369884522768142 -0.5199590774028529 0.38202839166092917 -1.707086772149247
Ni 4.270611438437058 7.041561551583988 2.948900926061251 -0.753815050989192 -0.22282722657600335 1.0884312719147449
Ni 2.9669403507841405 3.43804423412768 0.9954806332026033 1.0151874848282452 0.7486016251090527 0.06568345824073848
Ni 3.116020773521335 1.260716505897318 1.8940074423788873 1.7271755724793223 0.2563608395570746 -1.1943874616326011
Ni 3.713748353028554 4.453536285071147 3.449954921994801 -1.1492651153726658 -0.30917181271051913 -0.8754318300624406
Ni 9.018325218067009 6.914778521383685 2.226579753468742 -0.802239979259799 -0.9715203829575978 0.62572526259709
P 1.2779620722142073 0.039837258192013746 9.570286438701745 -0.09290604140211742 0.6004682878025143 -0.4948468557162574
P 2.9323461196560765 6.776635911631169 12.04333345261 0.5340307250045706 0.5705923261786883 1.1030968443467195
P 5.898705369836062 3.2826560580582758 10.466246095370312 -1.6066774803915491 -1.7088112110395215 0.6296184270039092
P 6.843237538939764 1.7261499720551412 0.5130115467526186 -0.06309307180574295 4.216975309599034 1.133199577269371
P 0.03093985813515353 5.101688400874488 9.30349002970716 -0.05186712118293648 0.376857388982951 -1.8980752569480988
P 3.828393878674308 2.957427171538683 6.387963960764282 -0.979914263448248 -0.9678732731233138 -0.3313560621170422
P 4.205762485531322 5.409568622582906 1.34664066555314 -0.9799446024655509 -1.1953570246347218 -1.4364676229009457
P 7.880230312237005 5.214618742478942 3.4491320085585926 -0.8426561782933165 -2.441753275234446 -2.2287504909480327
Ni 2.1780587902807516 4.945775359743265 13.146513584720614 -1.5306342761830414 1.1629238438066811 -1.018408562868704
Ni 3.17727065171746 8.530847419312813 7.394091856649487 -0.06497254821664294 1.739986093980429 0.12006306143288355
Ni 2.2059047563282936 1.6622945137307032 7.220013798084154 0.6964817644853618 1.0235507691912757 0.5799341724049044
Ni 7.039377738023208 2.0158942313596566 8.340052408528566 -1.2961599522864131 0.8930081483833072 -0.2851543667499992
Ni 7.983938024898079 2.95141934109894 12.43169610799403 -1.3725029471235264 0.283498319203815 0.23597636236345168
Ni 2.4117830768265467 0.5977566345374271 5.157565910259287 0.9846798031576912 -2.2315794757563956 0.2934875692060429
Ni 5.256617320014801 6.410420687337796 12.345411103608209 -2.8426782466895624 1.1311254683491618 1.2925305830639418
Ni 4.108146956623496 2.6751997297266374 8.615614064055519 1.10642873693343 2.3174882599050735 -0.8403411570068947
Ni 0.8608236898159853 2.6028527045092096 12.808590461777328 1.7676277669570977 -1.3879712179624548 2.581473191666309
Ni 1.94207570945106 4.057919244725556 8.282095121336312 0.8909114137552786 0.23792937232476444 1.5571945431700729
Ni 9.163853429046538 6.1529368841543315 4.602875391303095 2.700856196313032 0.5583171083557611 2.1077050109972215
Ni 9.24315491633306 2.465263077589682 9.160675183645422 0.08342689826708859 0.3940619257866955 -0.19814437911734264
Ni 4.979394841470809 2.4930621806852757 13.104674341221378 2.248399118416896 -2.8098905107355803 1.558344083393484
Ni 4.316293443996035 1.7805109963149002 4.327464634481415 0.28044256309662674 -0.4310894108536382 -0.38678107585456617
Ni 7.318418499102785 4.209605247591063 9.357908226768293 1.608587038709436 0.43304267792526707 -0.2516140689007086
Ni 2.7363652546092556 6.610600472879165 6.1127181615334605 1.004799456725702 -0.9124690853213963 4.034803908871181
Ni 1.7132439150886432 6.1512685630649795 10.363020133855263 1.0580302910253843 -0.21594258364102809 -0.42503883378418406
Ni 8.91061540930957 3.6892015387981565 4.923568881333154 -0.17284935199597976 -0.2156967861788092 0.4221093188422149
Ni 3.8876380225270557 0.9851623484426776 9.890321035627412 -1.3271335178497918 -2.7379726415493555 -2.289851472024411
Ni 7.171906166132345 1.9935593484612073 5.712640705421451 1.1255281767670424 0.692145341893537 1.6287241757789435
Ni 0.13425673377698139 0.6390560168302205 7.619597318682629 -0.10552887237245052 -0.9727591404607053 0.0522576717531358
Ni 6.911282545168358 9.2106320276811 -0.03641532544076581 -0.10468657897681326 -3.095808238014165 0.11407033418455838
Ni 4.421378927444383 0.19698748125466536 0.1133511709129482 0.09042004175547008 1.7563485944988528 -1.9268597852799587
Ni 6.639889817846707 9.229620895810458 4.749395222345846 -0.31776366814458823 2.4685984204517486 0.22541555612846986
P 2.3940969987613454 0.8922827894587235 12.975507861284996 -0.9627323523523225 -1.2473724984700647 0.5484528139671716
P 1.161235831501959 8.407569737918227 6.172760850087403 -0.07854180226064537 0.3185997908926384 -0.21824192119816607
P 4.96094021099366 0.33555654386990796 11.469451617572036 1.2400813641252901 -0.511451554152474 1.3567266581258763
P 6.260984106165797 2.5018161801091754 4.016428661588814 0.3519711672642325 0.4095831613507462 -2.1390606424903678
P 4.367702102283065 7.169872314017798 8.407571612436303 1.1641497457939822 -1.2593427834580635 -2.792684431269939
P 1.1137542885881766 2.5350513856307453 1.4007317592096782 -2.0269104081466573 0.010092094128679393 0.6180608040732969
P 6.852872561860286 5.863014545632413 6.062525128219962 0.8399197531987599 -0.09037376189856694 0.6184881214187027
P 8.128585212380987 5.207364357517381 12.805998003275562 1.207559737348501 -0.014701567876232747 0.07721357036752509
Ni 8.872422103471893 6.434789422350792 10.932868943248579 -1.6553050115912653 0.16113206355905152 1.016070401653831
Ni 8.385740974900816 1.4592185977589451 2.9759249159316243 -1.761658179637224 0.5651264179681106 1.3978483678668505
Ni 8.010481200881465 4.230806047052369 7.276695475724381 -2.158424134618644 -0.9010850118541708 -1.2357801656467748
Ni 6.943814806410708 6.582538937252661 0.30323610317036437 0.39373411013363163 0.9557464079527926 1.0709914791717428
Ni 7.107910118952064 7.261414404353156 4.001298488922861 -1.9312702556428285 -3.4854411814952293 0.30984518462845995
Ni 2.1447860943976234 7.537727741629355 4.3731588244078985 -1.3096430743745122 2.059296794897163 -4.454595892434129
Ni 5.076785428209284 0.08115444840654748 2.3413836758920805 1.088131995506771 -0.25034162994618825 1.304046039902709
Ni 5.815401786453176 9.134676555163672 8.936513751074148 0.07993199773995266 -0.11427576532714512 -1.8681982668830084
Ni 1.340889644090073 8.514529739444496 11.621485343540998 0.10544042642370227 -0.2291266864314699 0.018493687928813313
Ni 4.101014415337 5.22559404582518 7.2984792503079206 -0.321838095324278 -0.3490077137605344 0.5343677966290151
Ni 6.35379149620375 4.312731859647982 0.1504535072292727 -0.58742713834784 -0.363115099696194 -0.24303995407845239
Ni 4.065276728181403 5.350558793489898 9.612824877444044 -0.25110344781287725 -1.1779347153932165 1.535060687385511
Ni 8.335091496435345 7.884410487550772 6.271802887252528 0.03231233897946048 1.9722058175149262 -1.922242855333238
Ni 5.548770335049447 7.610787083716393 6.322667935296961 -0.31471639667783213 0.13759541388969204 0.9818397626057347
Ni 8.469157029368377 8.576004559809972 9.871541176263744 0.454122895634334 -0.22538238889768925 -1.248662935146714
Ni 3.2499175998273553 2.1841509740340004 11.552389669929727 -0.7473081031086097 -0.432750600606145 1.1895704998599317
Ni 4.961596292320933 5.582492915271277 4.975147183506237 0.12943061869071257 1.3546078120106606 -0.17494325841053096
Ni 9.184304421276675 0.2921689484383086 1.19968594631631 -0.08058197261912574 -0.6917720177145182 -1.068498794656876
Ni 4.787069286675937 7.499946829768822 0.7978398823977818 0.8094007586742963 -1.133957538481318 -0.6447270005105735
Ni 2.512566541286062 8.18965701135971 0.21706544438729566 -0.7764942377542626 -0.5104868762463595 -0.4593890291292798
Ni 9.232910675037212 1.1564276926320873 11.220941132427587 2.123473329575072 0.6442127798783164 0.16394176509370476
Ni 0.4501045945756098 3.885960328847315 11.098250175191389 -0.7867984478937482 1.3613402456384878 -0.7728484134715593
Ni 5.099410861409812 2.765663972167188 2.128415928023124 1.209347682486859 -0.2973403672932299 -0.5357407657171419
Ni 6.22572442112007 7.953327144685602 10.896722611151993 2.3484127173980713 1.6219338923299873 2.4719794211088395
P 4.615766452124969 8.447703169966552 4.4528033485026794 -0.8030809871038556 1.3270766964699272 1.0816160487651243
P 0.45867020493267774 3.0729068577291123 7.0626986174306445 -0.05629121839256111 -1.9500719617303643 -0.9687351069029768
P 1.3834318318685295 8.169046685092948 2.071240314869364 0.12441028265798573 0.027696180363687786 0.3179837545751943
P 7.023397471408917 8.20152271079296 2.1571269841636274 0.18424576675837948 0.6466756395965121 -1.8044145967681442
P 7.4076455596119075 0.3754237943511685 7.1561021042173785 -1.583797747579898 -1.9521198453983284 -0.7393911622543782
P 2.0624478878248675 5.314999185551704 4.705114419050116 -1.0920369869881321 -1.961850442422531 -1.5254100516696247
P 8.201391494527506 8.88560933815008 11.98821512304676 0.26007094141881015 -1.7055363969429915 0.5146014126353654
P 2.53080560218425 3.9621594887148737 10.758941783388519 0.17844098715114431 1.169895647138824 -1.2314154609201762
