# total energy = -340859.751325971 ev
CRYSTAL
PRIMVEC
9.42612796375228 0.00000000000000 0.00000000000000
0.00000000000000 9.42612796375228 0.00000000000000
0.00000000000000 0.00000000000000 13.79609108256388
PRIMCOORD
 96 1
Ni 2.2717250726306815 5.650746801348626 3.1421704734534943 0.15883889664950063 -0.31545790282954705 0.4202511825875536
Ni 0.6030572620121227 0.3054791211573853 9.972283276033687 -1.3834275644558303 0.07227859495975293 0.7590086793749895
Ni 6.40282925828893 3.1839291621182046 13.002939830047412 0.11666380594334747 -1.4837165285855802 1.1970038162095258
Ni 3.4888266911917514 6.324912886084579 1.0893879559238173 -0.05833113164072535 0.11831111173878335 0.5507069001086708
Ni 0.311607046825187 1.3328167631510306 5.804732967325822 0.37469663388620633 0.17182502449652343 -0.3459581283009332
Ni 7.719084314935843 1.0408990120263575 13.56132290207341 0.48252792913958825 1.519848241311131 0.06701657522986523
Ni 6.743951396409335 0.13285938579069526 2.5379424863714735 -0.24549252938400298 0.8237346587984652 -0.3653499025639837
Ni 4.831522036253036 4.5551573959603475 7.843891902379458 0.4523614328585371 -0.5764629260268523 -0.9699540669117426
Ni 6.0655247019181955 4.7872757924679865 1.1988743152787626 0.8931238480255652 -0.9848898622859683 -0.7645126399123543
Ni 7.264594138041941 1.141070471912111 6.380968182748605 1.1589892846389653 -0.013442498658151041 0.27900171688504205
Ni 7.263538411730922 8.394438091771692 0.3504907665179245 -0.2804636461425492 -1.301538442989507 0.44542562497065225
Ni 1.3144923707526204 7.162000163317509 8.661930860600707 1.147407750448953 -0.31403454011945914 -0.2019033319391426
Ni 2.361942541583965 7.212250850496482 12.126681336224548 -0.3225150667866446 -0.9771408144681689 -0.775065475727536
Ni 8.999020501258128 3.56033329650777 0.16809990709763775 -0.6347097254838876 -0.35022256000424196 -0.830494603230118
Ni 0.5388021767949198 0.8059292118661882 3.2133028614967674 -1.4353576776662185 -0.2052866465890787 -0.5451715721127385
Ni 5.523201866398581 6.802270848965385 -0.15016387116363836 0.5521775711169264 -2.5696353184911165 2.4762636503064903
Ni 1.7315419681164368 8.04766970311289 1.847683173681916 0.30086920638209474 1.4713901458097434 1.1095492848402826
Ni 1.5256847635954083 0.7494827308994189 7.964345561402897 0.3521526871474193 0.009768135130357371 -0.8212000653020696
Ni 1.199493611873709 7.475107849684788 4.0913551474355865 0.8559392685554678 0.8582537756212575 -0.7656788923063137
Ni 6.245450628924807 4.940789709443556 5.424154000943841 0.6297683223182121 0.4840070847882761 0.2702707647699474
Ni 7.222317954962276 4.015360762684958 9.944898489616062 0.9858869360919149 -1.1452467382418923 -6.063453925416764
Ni 4.134346773613523 0.9511717017174757 4.441941117844059 1.1962034317954173 -1.393398045404981 -1.3523503834350517
Ni 1.3816252527801294 4.672748339977923 1.0950869927777673 1.3679824335453536 0.3174085987980147 0.3649513815739844
Ni 4.454684299985731 4.610780975972188 3.0947532802842748 0.1518681217586223 1.0847697639027576 0.14373058025315247
P 7.422095307067165 2.5868499503422298 1.275620905025993 -0.9889758594298838 0.17541274184778177 0.6585549075326014
P 7.061960669220633 3.4551282843891196 7.316563208314654 -0.24506675470049408 0.29722672453350096 -0.27613519397052444
P 6.243895317841608 2.449982575020771 10.83485691754996 -1.7971640858533178 -0.9567977320354425 1.5074385547928684
P 2.9247389266351367 5.266943156654148 13.112038775550724 -0.4973649941524209 0.28630313564246174 0.2210094566409742
P 0.31135725443909756 4.520931126002205 9.713758525171672 -4.094870278035457 -1.9140238098575553 -5.002254492634778
P 3.1798665010463347 5.907693618420778 7.5587675615436405 -1.5199030058084662 0.0539851959672038 -0.2622224405441742
P 4.7461401708493325 2.588857715558722 2.633038919062111 0.19464202239103898 -1.233588814422411 0.7095457967581715
P 1.8753941041206228 0.9414957815544263 11.72395945308171 0.8263379007492672 -1.0317808704105522 0.7914326042316498
Ni 4.073435135918809 3.6769062187254336 0.7971101267180644 -0.5593010695355852 0.5502423017674265 -0.9910749080507577
Ni 3.3089478948240245 7.235901005088874 5.082273059537392 1.8345396982882984 0.9805948344550403 -0.17055849907927403
Ni 7.094970968695547 7.0032924499368345 12.084754862485408 1.8732013765245543 -0.7298220305087044 -0.36736847565590924
Ni 1.9879609220330787 3.3513560436925673 12.891591810456516 -0.569506292203361 0.06106112897737871 0.06926757604757103
Ni 6.742330102431697 3.5118829997341954 3.4713449946166013 0.2643032343326029 -0.10877823254768362 -1.007699661091632
Ni 0.7210459886218861 1.1992862370626158 -0.00629288290389847 -0.4211572393415909 0.31215120705381727 0.4122277980624449
Ni 2.6299744849218216 9.097316161716266 13.457093494179675 0.6185619120794315 0.01648565635984903 -0.18269873398623376
Ni 8.907709601482717 5.285983934763606 7.751388597440261 1.4535369196784063 -1.973353300855808 0.1529587837196398
Ni 9.540843752005564 2.2175436901687156 11.676845781226909 -1.8553532925995402 0.36048768937567593 0.08929775522556879
Ni 1.6803298159042135 3.9071393896776807 7.977603410121191 1.0798275894061338 -0.16876181219016742 -0.30040357959958586
Ni 9.023745234417094 3.5753679703120205 5.975059325804378 -0.8717808635734148 0.8125835272776523 0.4701681220226548
Ni 6.121478196402229 4.804271100849845 11.54120285990368 -2.2131145841829882 2.2785697284630047 1.2544319764200074
Ni 6.5948489072333825 8.904297343227457 7.91447286194778 -0.6903247437450305 -0.08680275671785696 -0.2136897830511094
Ni 2.7231706102526245 2.6340937027603535 3.793083243576465 -1.1085362701947359 0.6705838136726774 -1.122378318284151
Ni 8.463720130932348 4.663840649228695 11.51332037393943 2.0899091204663813 1.5043403754835187 3.1212642161934245
Ni 4.30359289784884 1.448343385185452 10.294904753166252 0.006045691973447652 -0.8195864409580464 1.0042739232395348
Ni 1.5604766012201676 6.016791621311313 5.84722500873158 -0.18518087697813915 -1.4513694797134424 1.8712774200289641
Ni 1.5659814598419122 4.910230203190651 11.011391323782421 3.7803464569844056 1.631964279982796 3.826031103505714
Ni 8.564400601718058 8.011445094066033 3.286339327350986 -0.23732053509617193 0.12072486338659855 -0.21200391070825422
Ni 6.345650367193891 8.366593310318553 4.642881654116625 -1.0031187265891692 -0.46502051638344427 0.5388536003145107
Ni 3.6765574519976862 9.23237372050455 7.744752603485282 0.021225999258311833 -0.38304629140248225 1.1870037675740204
Ni 6.251030896568767 0.4016030017757122 11.748819922480665 -0.05401373521229407 0.9733535795115946 1.1553030940366296
Ni 9.375141851814384 8.406871154309503 5.692142584093923 -0.2016220532532979 2.5533635779142863 1.5314565149740205
Ni 9.226218459066194 2.250129813893666 8.369039390476674 0.07199423095011472 1.957579582961319 -0.6430519268009958
P 8.714954714571663 0.09070291453379722 8.169686214121748 0.027003268061721236 0.9231936708277519 -0.8662182818839728
P 7.926214046706761 5.742849495857302 13.777686468614638 -0.4952952561075857 -0.3632284853456067 0.45927332948702193
P 5.4392621985447525 6.389123668501231 10.017341109420334 0.5943089530693377 -0.927172452969842 -0.4291716250056351
P 3.1611744896646234 2.038550949812023 8.599144366091155 0.5297570373298812 0.9390656048630022 -1.1893360152516228
P 7.94869536145481 0.40660073472305636 4.425041013352747 1.3172363133407379 0.7468275639277653 -0.6722185210626229
P 4.986581838184027 0.5169495847695935 6.342946011134681 2.152645323153338 0.2026828904176445 -0.3652131198758033
P 2.3849234411041937 9.50624986306412 3.4960951783205654 1.9224701408526956 -1.6600728652935537 -0.05226589928325192
P -0.2256680972698653 6.956444594885343 11.047895888824256 0.5884234408228383 -0.8001496723896735 -0.29571697275719394
Ni 8.678089128835971 6.445378799074128 5.445261928874787 -1.638641177782339 -2.267798863099746 1.041543863334587
Ni 1.9467875959033176 2.5476749633011844 10.320496690080699 0.6294366500104063 0.9845785016931367 -1.100542453355982
Ni 7.077551484563724 6.5282061838502745 2.1931092817452797 0.0043708753741860205 0.5094255248613807 0.6012810135117967
Ni 1.0273159618997583 6.786463232683424 0.18869034061362908 -0.5151315741072224 -1.5816354498212568 -1.1428705247002318
Ni 3.2104919901936775 2.2549936958265775 6.2159525046595885 -0.30608108960033736 0.2032071383522307 1.5788560873039068
Ni 2.7813298186364674 1.7537027945200696 0.9249614108208608 -1.7151160702116268 -0.06315889204667187 1.0163115711303592
Ni 4.752804443187643 7.3833350696483055 11.750227243357763 -1.9341591471548496 0.7408124680819371 -0.011578448866218768
Ni 9.312750312058686 8.821724463901289 12.106717740205724 0.6978128245919595 0.6041143691955337 0.5205609726529099
Ni 5.4867227519017465 2.0629269162432413 8.42132706386825 0.6000350569198376 0.4614873064192052 -1.6093617120919315
Ni 5.488796500012677 8.633654362495383 10.04196781085042 -1.2369636444319148 -0.2258045640367724 -2.3919952299747127
Ni 8.568161626701064 7.461562504069296 8.125483330524471 -0.16492444072194823 0.7965521848464024 -0.5747500571008037
Ni 4.8493939745181525 1.2038390567788875 0.8987143580259158 2.9857089726622124 0.653201613640488 -0.2015240942228529
Ni 9.243920727031325 2.9970184744288657 3.672588109590808 0.21748935930285768 1.201353865648105 -0.15948244377077048
Ni 6.87974419316422 5.986373506975062 8.37988320787129 -0.8393975621467028 -1.0341593979450576 0.9299790691807017
Ni 5.703457707877386 2.502995117638394 5.506654299086128 -1.281224414022503 1.5141650748834243 0.08831996469333177
Ni 3.2779170821822725 6.38556059220154 9.978519602170923 0.0746164990643102 0.20506887415131778 -1.0911998357988175
Ni 4.2914237668887845 8.345620176014817 2.5506347674231495 -0.22821882990521988 0.5883069698496319 -0.013376935527538254
Ni 7.742762747911566 8.430615570179665 10.425430229719371 0.7267950707569225 0.5562972497122548 -1.8596038403457782
Ni 3.636336164773398 4.659099306956884 5.365493322562264 0.26625495874233507 0.3760364357435524 0.5681886018332021
Ni 3.8174403577521296 2.0244494626576905 12.503135429091332 0.5124000341086724 -0.5922710967037026 0.10878800273969652
Ni 4.204939044535177 4.149268333884451 10.088115304608083 -0.2885459089300515 -0.822886708975873 0.564103376020235
Ni 7.57993581669236 1.3312237475567243 9.5710384671135 -0.9229247334370815 -0.5902394109856545 1.1015971198727414
Ni 2.670817896579389 8.718508364743576 10.181749744880513 0.867910581984731 0.5555171770131206 0.3420737056448625
Ni 5.011608207431856 7.078503523469197 7.72429319314539 -2.086049637510975 0.6506968449407632 0.17773161978894553
P 4.883573113837409 8.647991502844139 0.37071358105061436 -0.90586212152784 -0.08686497741436007 -0.018612215784548587
P 1.6779827100877505 3.7089833315504284 5.438226267102065 -0.4599474727359111 -0.09377507427063206 0.20728002287002367
P 1.9697213647846612 8.71756575196588 6.422300810437797 0.0644362160971987 -1.0163023151589787 -0.2753561497126548
P 5.116813219550506 6.650679862056316 3.5800442723021706 0.2549343915231932 -0.39782807769734707 0.3600194914900058
P 6.710158728328933 6.9893323546991555 6.375794181211832 0.6037641849449666 -0.07095601949358749 0.37006916241652393
P 8.400913841554464 5.338760824186805 3.755006400421435 -1.0702222051058858 -1.3468893603204803 -1.5377837427436292
P 0.017969969993996467 8.596713367737475 0.4204439459762998 -0.4325156017772035 0.8176126050611273 1.8469473279240318
P 1.1179670327307822 2.67565350012897 1.8964379343826858 -0.9345468910570421 0.13558455410725037 -0.12708937215204563
