# total energy = -340866.4227551032 ev
CRYSTAL
PRIMVEC
9.28834763518326 0.00000000000000 0.00000000000000

0.00000000000000 9.28834763518326 0.00000000000000

0.00000000000000 0.00000000000000 13.59443564465730

PRIMCOORD
 96 1
Ni 9.125996468891794 6.947200932005198 4.418028493252048 0.20046479972040315 0.27419118287027616 -0.07347672903291216
Ni 0.8556054178266282 2.008874507817592 1.8556130588151767 0.41605205690454156 -1.6147600002893676 0.18585373467544766
Ni 3.8293627517466122 5.0962190432509065 6.402476504827939 0.6283017650750147 -2.359434265319556 -1.9848908691817624
Ni 2.5735967471510537 2.9510751893377987 9.51749102744812 1.826453064625422 1.544167791893102 0.42352188291902537
Ni 8.673263835302565 4.0764606601495155 5.022410118718604 -0.372586529521739 0.47580449437282574 -0.2409509327599076
Ni 6.42815878565093 3.260423602650533 13.220289827396487 1.2554071958490831 -0.5023156532894768 0.9893988058999152
Ni 3.782605210458028 5.231243750782124 8.733622303827715 0.049255137481386144 -2.1240942509885223 0.09209177303093817
Ni 6.794231137114118 5.0634869066793975 6.505073733585477 -0.08547401060410441 -0.5296837608897844 -0.22776271620440774
Ni 8.464201709890673 1.6279686654052838 3.930518428972965 -0.012519986843881663 0.33565083283765423 -0.9395021781797884
Ni 4.2646611570881925 3.1210147951017917 1.3948710831812217 0.3357516200815766 2.092065504687752 1.4234668397659034
Ni 9.167589688973296 0.4616373723324493 10.629081444560631 -0.7142735412511441 -0.8765731427557355 -0.8859260447255453
Ni 1.1918900388741451 2.2634588243012654 11.323716084964198 -0.4945702050161031 -0.2125836944711242 1.3822060333439035
Ni 7.03651768151474 2.2907387008933537 7.9368390618506055 -2.6617345477212226 0.39858655312992647 0.6047538025517456
Ni 2.327000409512868 2.967617736225953 13.515003520396487 -0.9679082401263073 -0.3052133422834034 0.4252548064497322
Ni 2.9481122064869725 8.171869549188326 4.709343579903719 -1.2545759581970393 -1.5283753049455355 0.09941530327554492
Ni 1.360863656498684 5.252932042182372 8.769090787571177 0.02846828264302194 0.1803924544505603 0.20649866461930888
Ni 6.416854866749816 4.81055591604979 8.979939991041059 -1.38347075898894 -0.9326884976920646 0.569758003202851
Ni 6.786215293226148 7.384542773795624 9.304642971597369 -0.1951287322194704 1.1249036558091658 -1.1854353946456357
Ni 8.969004819535487 6.987930335769689 7.907814833599003 0.2033500916879982 -0.7827643870336907 0.08697887728440504
Ni 1.1934040395157897 7.989567152908817 6.249579159047318 -0.9832703244046743 -0.0010173855209208284 0.2856287352832565
Ni 2.3751419145781703 4.699030727680296 11.330608038805305 -0.7945094433847606 -0.2653195914122592 -0.26124850666667915
Ni 5.219540432938736 0.3557334918667794 11.57265773034481 -0.7469378642533846 -1.1017148763975284 -0.05430966918615808
Ni 8.524808177293934 4.231018762462198 8.064015115748758 1.13075034439793 -0.14104532011150547 -0.483448898291961
Ni 6.309462993015487 3.363487106452308 3.089090744762327 0.5780855492319399 -0.7886866660553965 0.6606994646794299
P 3.090140328029234 7.134026753514652 9.236779518296457 -1.2492211216430291 1.5954371315910394 1.0597819836091684
P 6.551879574281035 3.0797002254451327 5.608357160912325 0.7292026517571506 -0.42339538464349014 -0.21874688585904264
P 7.289522978924305 7.2762313536593135 6.641493550910407 -0.4624869513283132 0.9500580993187637 0.22303600015269975
P 5.8760686989103315 4.674992484363877 11.216360435785099 1.7247857320909068 1.1797141758911425 -0.06826381737340502
P 3.295273482450845 2.4588485022008806 11.601477614951529 0.12901847085395843 -1.7674192504907176 -0.5607614561311955
P 4.647601147601851 3.2234559796214177 8.152882309239553 -0.41414558391044803 0.18782139992477978 0.5814791482945212
P 4.168257398440155 8.401663266208503 13.349314262446093 -0.3516726621872072 0.13197703926165014 0.4445221393197764
P 9.053110806100472 3.5751499691627293 2.7638434670428245 -2.072628479009063 1.2385929525052217 0.6685423577626164
Ni 5.029575149976056 8.659702847960226 4.033605153643476 1.5156347174504154 1.5019556773014262 0.32845380086858267
Ni 1.3425470352390318 1.156724355259012 5.115871328880304 -0.028863204088595454 -2.2831794593208747 2.4524102407276605
Ni 1.4672431003560853 2.9528957054467697 3.9610789499002 -2.4450342599785637 -0.26547540026383315 -0.7771233866978293
Ni 3.26710192449926 8.314575720097704 2.0801114889285968 0.6936355532858183 0.691811355592886 -0.16636991491922315
Ni 3.184788589000763 7.0815475901693 7.005525252428999 -0.27261535374272405 1.6787349604794315 0.8798219887103363
Ni 7.704452038209892 2.728108407726263 10.159365996411996 0.16794188739203336 1.0957568590418807 1.051071343209048
Ni 1.4819465544402786 3.2540239312266483 7.041414498313973 -0.272641321884653 1.383545063870301 -1.03555987783701
Ni 8.309764356095423 8.960264484542925 0.9967892285816168 1.8123420791453368 1.0812578940947573 0.5986852277601625
Ni 1.4366658604033598 8.641246901488152 8.913884978997375 0.4583952977574428 -0.4322170967001782 0.5642162474490153
Ni 1.6749212619912581 5.202970021008097 4.396440516004743 -0.03242778151140222 2.239014334767886 1.0665478415780922
Ni 4.462428651946464 1.3930384922205068 13.599329640797098 0.14033980940404864 -1.114488631123429 -1.4970728952878283
Ni 7.888927907803173 -0.033742708778937154 7.794859239715317 0.17446734721537696 -0.15131713435115876 1.5561241929240297
Ni 5.429698583355007 6.6304868591291255 7.686565467439247 -0.3417386909029469 0.5941220338695122 -1.3189119012709478
Ni 5.502584246146331 6.4202636902803905 13.273035566314936 -1.3805471575842418 -0.8712674142721059 -0.053291512334288874
Ni 8.341511927832487 4.54929327771739 0.9282690891128271 -0.9646483384281128 0.10503342079327072 0.6348825036163259
Ni 5.404369259736818 7.177551949875062 2.3345314016616134 0.28392769343174973 -3.407800550892615 1.3486279402781418
Ni 6.935804129629137 7.762030504329863 11.715983434032088 0.4943897135741809 -0.33031399400577305 0.10833446014204569
Ni 0.8098064339995023 5.503178700385995 13.263316239496428 0.19872390576989646 -1.172281116651865 -0.474091368336461
Ni 9.26808960886652 7.660536731254702 12.845001577549004 -1.1810899731927464 -0.5403458685893211 -0.8624732130192436
Ni 2.7809405282764152 1.5055946871619186 7.845307970298316 1.1184039070174352 -1.3815704566424336 -1.3287306871335827
Ni 7.565990642105615 5.559196724126847 3.172873496834494 -0.8055734145084062 -1.0548323529133767 -0.27500802234461674
Ni 5.276190064309231 9.234066391993242 8.02804413240583 2.540639445479399 -0.02611238081633567 -1.4218989810581513
Ni 7.426971945151654 0.8840481955250595 12.216884508894356 0.6527390721817725 0.2863483870581004 -0.12945838660485445
Ni 3.4705538880243205 3.7726481019436533 3.67862680442802 3.045297373748807 1.843895942692218 -0.9256069082549349
P 0.27591965067912 3.8352236990158017 10.217414452915202 0.6031280940228645 2.1388968632189935 -0.4305394518874392
P 5.843317985643835 4.694804529570184 1.5284356624862647 0.4241623447165018 1.142812931989419 -0.6636912003179022
P 0.4993880030553722 0.39710193393890836 12.657928685996188 0.3383054968516819 1.3094499845271 0.9248160369225235
P 2.9041504577943087 1.3319397424000246 1.5803259446004494 -0.0014601294852942595 0.15373474265371587 -1.5338525260100229
P 6.546975326803805 1.0024356150236768 9.985697119128858 -0.2045420551135703 -1.7053695323478242 -1.1014770493551096
P 7.720075038696066 8.731743271129528 3.594925789813807 -0.14652614072041864 -0.4016099133372825 -1.4280608868944888
P 2.9134109402465773 5.115873186549803 -0.01002398461633698 -0.6575341795775709 1.250530327372756 0.29662508639376006
P 7.4133459393768515 6.877816976219397 0.270119077668647 1.5763939989166593 0.47937935620827765 0.2168686949997233
Ni 0.8887480993574043 9.113485064816363 3.01005248059048 -0.522704501358474 -0.6344397596519525 0.14271885115918648
Ni 6.03417494996601 6.786206004878653 4.888056029876506 1.4326726746348872 -0.5158633100669245 0.29589952108164524
Ni 5.147416414641982 1.0130243311676947 2.2787130773918975 0.8595796935215326 0.8858160015102421 0.34263446324433894
Ni 4.887268378008952 2.0841379875675723 4.5701233258091225 0.021469482727685604 -0.242661230582795 0.5532085834846021
Ni 9.099682580439161 6.756975575312667 1.7984349204722294 -2.2176186427009292 -0.04569004583794712 -1.474273123784493
Ni 8.208047662680386 5.752533677230122 10.242632316363455 1.1020763735020052 -0.7234346389251218 -0.38006484017665515
Ni 1.913148798536672 7.41172047856527 0.4342999079858935 0.7143905264449826 0.13299828143731288 -0.09836526474447575
Ni 3.4489677684465154 5.672300931570449 2.1158381887324134 1.0015858348844107 1.1257526340730224 -0.6778908888570518
Ni 8.191523692487221 4.540617961157291 12.14798726251728 -0.3323670198800598 -0.5944732465613439 -0.2179400736870311
Ni 3.1522979494641183 0.8758484423566919 3.525785188732368 -0.6478413777698391 1.4073519364819118 1.8364991360075147
Ni 1.280946714653833 7.05844746994985 10.991441243530167 -0.3377521954513732 -0.1522949248833958 -1.4586786117803459
Ni 3.3101719918324277 6.85704823122113 12.085942958921832 0.5097091175400705 -0.2621944155197162 0.14057660800520305
Ni 1.7595845494059277 4.315310515977078 2.1351960337462272 -1.8499596323877945 -0.35124740172433055 -2.1610353469892463
Ni 4.398849913344883 3.934534710429696 12.640323552154635 -0.26527716821009795 1.1625420349872302 -0.6446154146333737
Ni 9.116318010802262 2.4124903598545706 13.524546368612596 -1.209883243275355 -0.17192555463012973 -1.25051412942284
Ni 0.5089447837927231 2.007750617770727 8.955850661813418 -0.8877800672151485 -0.42586004413389883 -0.7412531551637814
Ni 6.093638950627416 8.636797783038165 1.0503170463591265 -0.6559092423796381 1.2001158794759461 -3.3750822347239873
Ni 3.9582664382787884 0.15117157081609606 9.596393681746545 -2.6512858415840723 -0.4799362571530122 1.9038833789894436
Ni 4.94685312718779 6.634016431177132 10.226590411405267 -0.1491386386426012 -0.24633045190426608 1.8434475423008898
Ni 2.5965854072005663 0.1545488139651881 11.85112610357649 0.022504094639787052 0.02373025373740429 0.2817977915729405
Ni 8.523600692119617 2.0853176076994058 6.323669520508711 1.2862753461828493 -0.3126417735369906 0.04943768580583744
Ni 8.38527862122776 9.083418683975848 5.5437836402940555 1.1875511554370581 -1.1529057974490466 -0.026783695851747422
Ni 5.255384165920986 2.65313286674862 10.649106192924569 -0.5429704506963615 0.33188828047142843 -0.7801845421216563
Ni 6.374834382683556 0.7765885168540185 5.880517817360318 -0.9224547357791985 0.24143867102960356 0.24752112977825758
P 1.542599463581013 6.984019941474398 2.6660455274358252 2.718680626088963 -0.07434550479111067 1.8834587925865047
P 7.147030440007305 1.4536914013612412 0.6568979422018875 -1.382788902430567 0.4532235237485162 1.0848438116738026
P 4.244904841966853 9.083502279103302 6.196955097481048 0.21998718602404696 0.15633078551566626 -0.5718228561516796
P 0.48635366501598587 5.533783805381205 6.421684807447088 0.37008818857991743 -0.30365756776050934 -0.027856874311268154
P 0.7973888422337675 0.6210644264018815 7.330432576630193 -0.5313691190120075 0.31724481952664074 -1.7921308943047844
P 2.9246498407152277 2.8244099945518575 5.409606958889108 0.9289765960581162 -0.6990636662799251 2.7775601740339906
P 8.64472074345119 7.809846917232849 9.949346242373394 2.1486292600154093 0.6471111844720339 0.9512955712702907
P 4.248165051937511 6.202238309536063 3.996016140166962 -0.9389329359398797 0.013044491888783987 1.5112782402539329
