# total energy = -340870.58600118663 ev
CRYSTAL
PRIMVEC
9.25347541849473 0.00000000000000 0.00000000000000

0.00000000000000 9.25347541849473 0.00000000000000

0.00000000000000 0.00000000000000 13.54339663059529

PRIMCOORD
 96 1
Ni 4.014962614017502 1.494908179450275 5.125146455949219 0.4361503703163134 0.4938690651840204 -0.5848956301752378
Ni 4.77984562436829 2.8068196324376458 0.3509528542611237 0.6207553201863245 -0.1626703545804489 -1.0669057391381433
Ni 0.5376861340283221 0.40360790445286443 9.837665645123396 -0.6321926154889886 -0.15559493579090622 -0.39345077456525784
Ni 3.7540331190336342 3.9270175852804754 9.395582715945608 -0.15489790972388162 -0.170298560549668 -1.1364263117367848
Ni 1.0440511050443242 6.783963293125158 4.198723677535718 0.40228019993142977 1.0361067514794158 -0.9299965526821983
Ni 3.3663217597057002 3.7341474007301967 11.632368840937842 0.3100894394287821 -0.09853855709754643 1.2060810959204453
Ni 1.1391305631959394 2.28954111271663 11.94156446280432 0.929010020399213 2.387984823263739 -0.6378773245785917
Ni 8.086297399233024 0.18042888708216714 3.4808020540578677 -0.17807254806813202 1.4214153565535135 0.9329756899151803
Ni 6.863487659388417 3.315982854368008 1.7355318483545417 -1.587448714068924 -0.8995073829544057 -2.5974726524183587
Ni 2.959585255272197 4.4340340009537895 5.102013693181996 -0.6450267911391795 -0.6863055952833084 0.012917479392616463
Ni 5.089263329640672 7.140379399171461 3.9582610191007297 -1.4929884408058096 2.033785795110252 -0.6354401758920089
Ni 7.190838599687349 6.2707285420866 0.5566576089774647 1.4397246963856625 1.7978377148815747 2.3334560960882396
Ni 8.490211593716527 2.55687401257066 10.518899089946304 -0.519129382412706 2.344688988689581 -1.0510487175012286
Ni 5.440673305578943 5.127933602693284 4.909048197836684 -0.8341712807507569 -1.2310961299075442 3.075792199903555
Ni 1.0415526667279316 9.267447993520591 4.760814927177575 -1.5996357430534194 0.3270954870684754 -0.3667295565203297
Ni 3.152723790604607 1.039211537490719 12.595195716316237 0.5446840909533588 1.3071344490200456 -0.061924248308622386
Ni 4.98625364320332 0.08170355968366773 7.092893340252079 -1.6773216250716725 2.395897650352912 -0.1256780936268158
Ni 6.543289655454563 4.48904591129066 13.000184239275788 -0.6343004058606108 -3.4048491815737747 -0.7357574221565328
Ni 7.110333365048025 4.604436747607024 3.512466521001811 1.8851824601458307 1.4351476185379413 0.1768769850981341
Ni 6.988585391237729 6.363966558664281 11.863081112506224 0.8082908134395692 1.239305405191214 -2.3449419852406517
Ni 0.571029181381871 2.07916335300111 0.9103087766202927 0.05165886182687232 1.158477120889237 0.36194936152286694
Ni 7.96088504922535 1.5232700810789566 8.500079499718753 -1.7471468733949267 -0.7227309279898778 0.7482347286879372
Ni 2.069345415765211 3.5433407411597533 2.6905719243135118 -0.38046438960791895 -0.45715294070990947 -0.3478640870743945
Ni 2.971078071527604 8.472093289185056 5.167564386476422 2.0250119055723643 0.23814714476252533 -0.5083770289922084
P 2.8257152288897722 2.1311771373583097 0.9552751142302157 -0.5738242028524246 -0.2957876780941293 0.35606796304142546
P 5.489198529768438 7.4061207012831956 13.03314881949178 -1.3185352346578196 1.0291305772718986 0.5050443650745495
P 1.8485852568237917 5.531829290226296 2.0654089873956054 -0.35300140830095983 1.2943820344503836 0.16798456770451067
P 2.846942701103865 2.001711765192933 10.330482603031877 -0.26325088180868855 -0.9197478783709966 -0.3991362549858094
P 3.3230895233568587 6.473361143021302 5.616473604343111 0.7067720906677764 -1.5952247584699173 -0.6477076804054522
P 6.389607938570668 1.0737640140589069 0.5563624231171207 -0.5595131855463912 0.09623639132693103 -0.5668940513914946
P 2.0156382454380113 4.260031652429898 7.915952949473836 0.35402470735915154 1.114418954227758 0.7667003915922924
P 4.305799340996116 7.773261585139497 8.752812266329805 2.106821322840688 0.14915792191631083 1.2930736000516054
Ni 2.7004231740602958 8.68620945289992 10.106610500365264 -0.4774949947013712 -0.5542735344140067 0.9614444867788345
Ni 6.005135295578799 1.2101602391834625 2.696909629509428 -0.38796584019128666 -0.7055675288367139 0.5804563634569617
Ni 0.4433210441656904 4.542234887004089 4.344261410855697 -0.44535003453771044 0.7968175226926472 -1.3156293738649343
Ni 8.121108973108095 7.188793581658006 2.7835739772724226 0.39568891986715726 -0.9737503007293811 0.4998695057418294
Ni 8.507969012713408 0.15448029179761638 1.1194826592063214 -1.7127072036598183 -0.943224107116066 -1.807115283528759
Ni 8.317319662222143 3.929247672814737 8.265480768547093 -1.1435243562341468 1.4214235840836293 0.5437898612738634
Ni 4.500770064427215 6.13064018033893 11.467640325305391 -0.4595144989635505 -0.7657619389384231 0.6007989316690556
Ni 0.9430031553591042 2.352177886656122 4.515395182053358 0.08807673833427412 -1.4615729026090054 -1.677418555660853
Ni 9.119947598100955 5.128646120287218 12.18674084152957 -0.038078552039276355 -0.9759002571928483 0.727399794220457
Ni 1.6757118322799012 9.059300321339332 0.7367376400428616 1.1501855703044062 0.8132458434519995 0.26786421221098383
Ni 4.264343771894488 8.837790630902996 0.8782325300279076 -0.751239576952532 1.2312444825599504 -0.7535386573993539
Ni 0.5172785197210158 7.03876698749624 0.3579762419727613 0.3114883766588377 -1.4097404913187463 0.8298592836389644
Ni 5.803446549119179 2.2719502562741756 11.226310616239862 -0.0962387053197762 0.9174621676606136 0.592211961330993
Ni 1.1480694202834782 0.15548706990437025 12.06925224237496 -0.7290483855674735 -2.8548516488273026 -0.449056279744704
Ni 8.020801301442548 2.5584563568377092 5.361586628694815 -1.4771964680788752 -0.37168612919465666 -1.7052067815177148
Ni 0.9823951994808974 4.570791111612935 9.939485334644125 0.03864496606570764 0.4025100565540487 0.35089413214996984
Ni 5.090059128511818 0.14680360873361833 11.778014839918198 0.9849659669395424 -1.5636091884471652 1.011030782347394
Ni 2.8214031094251832 7.726883167207049 2.555299996431333 -0.5147099131887716 -1.1838428533475354 -0.2338320623269392
Ni 6.774765338730734 8.576787108117161 8.297253501151411 0.11275830024135419 0.21956166845085412 1.1805418139987605
Ni 5.8585972615847375 6.264750797077749 9.607536342495505 0.7978979002410194 -0.18200222213984138 -1.5913591048669238
Ni 2.3226963145226875 0.8904545201326913 2.895510491279492 -0.6943094394243914 2.253793292849273 -0.6234099842003522
Ni 4.377328704646918 2.970347046983178 2.686712299788447 -0.9315114466648281 -1.2422883990789377 -0.31558388688445005
Ni 0.7937769868061093 2.4939226204728073 8.78902759239968 1.8895404800042102 0.7483594271912595 0.02057936681324843
Ni 8.030147311440906 6.448062141699014 7.975489809205953 0.6327191774164199 0.7461840168064956 0.7281508134538686
P 2.3015521235858074 5.685122361149864 12.207272452405169 -0.5728214726195232 1.156356989222441 -2.1502894213266512
P 4.088657290875844 0.04579637433948014 3.4099426420148693 3.488640148048502 -1.4031643807631253 -0.13480653829064526
P 7.285631200106342 0.7186221115539645 6.552742080418249 -0.9458160362129582 -0.1344779513066329 0.037537077713509545
P 0.6315487601851015 8.76430878397531 2.6231251939412012 0.9449835130093337 -1.7181954804678992 0.5791376446455381
P 5.802780298901473 2.9839496555946496 4.162765598077677 0.6469661742537374 -0.026588806232121953 1.782854354098865
P 5.465306056683526 5.345057145863065 1.3800179561447141 1.3992745587904158 -1.2442848606836763 0.526577354050319
P 0.6659800162275681 8.118166367979901 8.111005103487098 0.1212650521607847 0.29572288629446486 -0.23541637609492358
P 6.4577875441824535 5.057116756636417 7.507023371407056 -0.9951583340915119 -1.477353819592346 0.5134806687673609
Ni 4.526161600501962 0.656058440068915 9.498905169846271 1.3314252032466103 1.1557970029539129 -0.3216303501888461
Ni 2.173335970578627 0.806990024109729 8.137359926334943 0.500486570500538 -1.1675780547492407 -0.793784135182962
Ni 3.970138779926366 2.18005399360715 7.6415096792408574 -0.638343722692049 1.149617613616078 -0.324925218890034
Ni 3.2364029672532744 7.775926586010315 12.46898479139484 -1.3334188366378714 0.5807934350814062 0.11373711921485574
Ni 4.359719341253972 5.461391836654511 7.524832609865314 -0.8225858899060028 -0.0543844882881515 -0.1411191107722344
Ni 8.119147236355966 8.040279866835165 10.319946596116896 -0.851544739032198 -0.1233928971370649 0.08400051138237147
Ni 4.099409829111579 5.1986579139976925 3.046830721280634 -1.551268150383309 0.9985341925422803 -1.2252867223146189
Ni 5.631109826139549 7.376167201912221 6.514752863143734 0.2606401836587189 -2.886423767206629 -0.6589765684510522
Ni 0.7987238946725672 6.051411925283541 6.436770125856443 1.0905722295171476 -0.553004437893596 0.7429750229508947
Ni 5.89587025987522 2.583116868368031 6.409385391213729 0.3387901497975843 0.27406982680106345 -0.5718279983580024
Ni 0.5152501579471147 3.569851947739255 6.459265324179223 1.4493485926286718 0.7080306456652259 1.3079068084096959
Ni 0.8127938037839569 7.007841873224445 11.105354739910615 1.5279356463049556 0.20327347281379182 0.11282437759259925
Ni 7.984453650676655 1.1360861698400386 12.042096993918342 -0.24138570630448106 -2.817118653052903 3.1006213431320924
Ni 2.0274734402775163 4.173317335900577 0.07779396639227527 -1.9471673864890595 -1.7142408666955253 1.2818828735421086
Ni 0.10184189786131832 1.1561291972226564 6.819574367261477 2.1360488522472374 -0.8457083348560791 -1.058995740262447
Ni 2.8018135023296145 6.306160098803148 9.5776457667562 0.17448637337877046 -0.5538912113739235 0.04820921271537504
Ni 3.6479882927156284 5.74204048738739 0.3873291908002784 0.44524179109462025 1.200899808829822 0.8558513368273518
Ni 6.2079344590679275 9.12975628186161 4.859993674863123 -0.41205501993000654 0.10127138264767721 0.3484806376124708
Ni 8.805588537047267 8.04726624064582 6.077354968482944 -1.4327649772383775 0.07864490349741295 0.11884333009316952
Ni 6.0642557489248485 2.906701644241883 8.808693077992265 -0.3808300004774538 1.0491864674815092 0.5000654238027195
Ni 7.809146562143093 5.059189535091499 5.8599436422330164 0.3198508896909201 0.22909454764195386 0.08507831782758252
Ni 6.079662785209272 8.058176087960735 1.8457888566044809 1.4636210433872856 0.1306405798384137 0.620202533006648
Ni 8.97784197874968 4.749734815918135 1.5200433942607114 0.567862328842035 -0.2611754873368986 0.051932941423865404
Ni 2.8366991040066547 7.650218124794773 7.352262699309488 -1.826619414999957 -0.052236845817529395 0.0354637401242486
P 8.322825479993455 5.741124393338047 10.083342636859449 0.40618159186836506 -0.005175116443036249 0.21650719789524647
P 8.599800501053712 3.096740265366916 12.867932645713871 -0.8022530918859215 1.1434551935591082 0.3953374500650095
P 8.50850571427767 2.7670111819297873 2.869033522558401 1.9879787640784665 0.013224469110074 0.9321377673949172
P 2.2374810609832005 2.159455757709778 6.118866058436049 0.32515867505707874 -0.7912063471534567 1.6304743257008307
P 8.670284222001728 8.17799008544464 12.557667322108967 -0.6901069713072696 0.022472470070903233 -0.3386603090879393
P 7.016142240520017 6.840964700639898 4.858165188154533 1.1721129665051169 0.4368119151597122 -1.3035495598822644
P 6.853827031231697 0.6155420987047449 10.29131541835856 -0.7175779230340287 0.06973808792608634 -1.752188292473576
P 5.529812032622691 4.34647761817709 10.844319755308943 0.050235242006468325 -0.03127875550862355 -0.2320351183275165
