# total energy = -340873.3173971764 ev
CRYSTAL
PRIMVEC
9.19138979555477 0.00000000000000 0.00000000000000

0.00000000000000 9.19138979555477 0.00000000000000

0.00000000000000 0.00000000000000 13.45252804571003

PRIMCOORD
 96 1
Ni 7.755547423121785 5.060990477138208 2.947785242366843 1.1613395300386968 0.04302509741127429 0.3439400694296399
Ni 5.7939302610338235 8.987129280405588 10.189038574869922 0.06220089900877675 0.2715087509421066 0.25499455533716725
Ni 3.3072641634381865 8.366048707089213 8.972930421859754 1.5030751356178502 -0.39141086131709363 -0.7387915809971664
Ni 0.7542610501881915 1.2380434041233443 5.3770290530132 -0.07369295880877633 0.46555556295130784 0.7853519452552088
Ni 2.9990676811101302 0.8114011614789024 6.369489558564272 1.3334748866867874 1.0952963744656943 -1.4817987427375772
Ni 3.9826842316555044 3.29772350110612 7.2902875573673445 -2.217597559655007 -0.8309016088605496 0.8077310842813572
Ni 6.85644569930411 3.183612400092049 3.9887689315243176 1.9431220127750923 -0.5538171636028785 -1.0129053736622877
Ni 6.549039676475628 6.879580426750941 2.1619830198677468 -1.869218994838039 -0.12768458253388332 -0.8399071547932696
Ni 7.541700554318451 8.384881864236037 0.3009159826813993 -0.9208200283892528 -0.22570069146905647 -0.27127375211316507
Ni 7.699149056966139 2.1811259268417307 6.25491429237894 -0.7479776183718087 -1.518756808019165 -0.02797411661542279
Ni 0.264080570001255 1.2553783647767909 7.567585345512638 -0.6712561571493536 -0.8237994505981295 1.776743870325753
Ni 4.879791423945184 3.4228918437246962 12.429543635491855 -0.7725452804088437 0.2833458527863507 -0.8587353432433662
Ni 6.7161575209088005 7.099594717928857 11.498144288004962 1.852231716251423 0.1534066698903358 0.9374648360347855
Ni 1.9458723118231924 6.879534469803292 10.333142099059106 -0.6753305843290434 -2.0836932214636565 -0.11371655038956544
Ni 4.273812303626482 1.2181440457910475 11.319696217698246 -0.3355415609532995 -1.2971166597727273 1.9437447339607556
Ni -0.5215038165659822 5.370703538738704 8.541749471065433 1.180644658125212 -0.38994173297073487 -0.4806355972128819
Ni 4.754154320460582 6.382997224617457 10.54033807839858 -0.2676477253248036 -0.26574048099976166 -1.882771793821809
Ni 1.9879137275330885 5.0995115906581425 1.2559344438433515 -0.4987338494754895 -0.06964192866785425 2.2613258537808925
Ni 4.9585340580480874 5.483647333282473 7.768054146855159 0.0013035493027719483 0.8965117906611915 1.0252412695198214
Ni 5.3747293673528125 1.213116355718176 13.484813501395697 0.6012987541236096 0.7936386107440332 -0.3634280029509225
Ni 0.49999320764908894 6.023310578142738 6.42082438822788 -0.30681565377351677 -0.316913404329151 0.40048119904947804
Ni 7.607189204719197 0.3070448012199561 11.786902819755124 -0.7278494801633657 -0.6094530077996279 1.5632662032854496
Ni 1.5021395994868 8.213710617020165 6.8423727627948345 -1.4015096187685216 0.4988670326192441 -0.6841106445145186
Ni 6.271836559642493 8.572579229826722 6.439160291201135 -0.7775687017653641 0.6190414228190113 1.1834080798029618
P 2.166364555256664 6.653315990692674 8.162966793703331 -0.44073670413541516 -0.6023557346332142 -1.3538207973329912
P 5.43351749478624 8.341140041463104 12.741467226274297 -0.4126168059707474 0.10777447387351761 -0.39897504681759677
P 5.125789773324209 4.135472699811518 10.005842232732045 -0.7873368368957214 0.0868210115503021 0.3804476774373706
P 8.3506898951847 8.725321741035085 6.154652777108566 1.666919198791426 0.2611837148670147 -0.27555978108302864
P 2.2429839783781538 2.939121438595932 5.566010455721217 -0.07664947033393896 -0.42343369408059334 0.6922546137778917
P 8.888202354894961 6.216541160230438 10.615470334694129 -0.05003855261462995 0.6452934145370047 0.40851846753165777
P 0.7164375631335799 8.442447536861984 0.6860591015982108 -1.1985950719560456 0.8969869305253971 -0.19261753576184246
P 4.860176998688315 2.8934402326321838 3.379880736419392 -0.614656149267122 0.6310929546669066 -0.5630865047199464
Ni 4.533009488370485 7.477278105103179 3.8369299339067457 -2.6665751636429755 -0.011180442096851713 -0.6437073009968075
Ni 2.491712170447568 1.3108484005899135 8.454591200708927 -0.22140489230718 1.0744979496631044 1.1040805484162275
Ni 8.04183163281049 4.035001620859862 12.141686779054579 -0.4522058811172793 0.5961454920574443 -0.4735534935551199
Ni 5.371080385709431 5.158354866428749 3.5770810796450703 -0.9048192820856223 -0.6075421639301601 -0.06863019957388825
Ni 4.862980372494944 8.78302528450398 1.5468253779644567 0.06446655511450188 -1.7778196198884348 0.7230736560412773
Ni 5.3878179060434315 3.7310423691051025 5.578427103837197 -0.40577664312046247 0.6194420006915397 0.8199723635425555
Ni 0.5633604853463269 3.5583821167853826 6.9266927320645 -0.4600076365498852 0.3421575236079204 0.14151480354875628
Ni 6.630420239373621 2.4664726147983824 10.778043956143705 -0.6119881155166557 -0.02222924371184559 0.540743618248372
Ni 6.984812645479101 5.205819201961304 10.06971503685343 -0.5332133713095978 -0.6940795828017724 -0.008675159176494737
Ni -0.2439670522929109 1.303008145320884 0.750043121532907 1.0445751939617427 -0.3367445801224652 -0.9369326176803994
Ni 0.8305422301749799 0.7302632512644993 3.2652916831497647 1.4077789967170011 -0.6810615732755497 -1.9845399136002468
Ni 0.5962573876128965 7.950671431452652 11.883020856625405 -1.3217241739087622 0.7762996052449535 0.3363925960996852
Ni 7.685270058775947 7.538520333541096 9.124836516620894 -0.5937240271001452 0.12450567058526944 0.009445204573299863
Ni 5.162867838687943 1.2059470718848313 5.156932039329516 0.9449747712585854 -0.022153139058271525 -0.13375238599451802
Ni 5.05565027982132 5.956930362957588 12.831006985658009 -2.0567061513518516 0.273554834837858 1.0354714318882619
Ni 1.0989868719250453 4.514856494048876 10.665647968415918 -0.5801174920603042 -0.3579705793807771 -0.8903802238421569
Ni 6.354531491243265 3.488095561050014 8.108659468665746 0.3380872101932887 0.6514257526869878 -0.10298759400783553
Ni 3.793608157635331 7.597409566259352 6.400550940341715 0.4691296534558114 -0.11206873037349731 0.6817210612364194
Ni 8.723639716751109 6.5904009293603085 1.3744041017725148 1.7282348669817718 -2.1755173426555046 -1.3585056044031703
Ni 3.4982520464805855 1.182646899426461 3.3946512993939884 -0.4099153478791843 -0.2700560776559801 0.16733562126660212
Ni 3.43925251708797 8.084911675537269 11.475597809488045 1.0803734346072749 0.5447455403189135 1.6965100250746652
Ni 2.317755932204128 6.48372566247595 4.692026042071978 -0.524506073343587 2.175888095731362 -1.0663694070186989
Ni 2.8211775281478806 2.964875712058794 10.905466027475018 -0.17000519767896527 -0.03601781285550571 -0.3114904335413668
Ni 2.626899127653767 0.4644363172525578 1.2448689299882696 0.33329441679033567 0.5617865549616003 0.16946449468414684
P 2.6730582858730716 5.280048863805011 12.192630974663166 1.5661856909250897 -0.2914980495798399 -0.8782572153263777
P 6.111593874577707 8.823292762034601 3.6454870770826155 0.08083214095671885 0.2727166552072787 -0.6673496230060959
P 5.475862226350623 7.6965662765082286 8.56790173169494 -0.22743927142671796 -1.3698593388530924 -1.2828071851285907
P 3.3212902238608586 2.1542411124666874 -0.006865967978857117 0.8992572146168125 0.5995614597175287 0.5607910238175503
P 7.540487290900501 4.184885609924417 6.315961663358824 0.8178108371148626 2.195815945003541 -0.3939919917807086
P 0.9929182367496623 5.633090135649593 3.188652958110262 -1.0531979026337475 -0.4746940349174663 0.055368706578291745
P 8.267333183537772 0.4031591615344257 9.953363994210914 1.4951543381088768 0.3672198658931869 -1.6084895938996235
P 8.73891580614985 2.173782006607317 2.6164494368971902 -1.5756092982318348 3.1473118052100957 1.1854443935067003
Ni 1.8642619641869511 7.920845372428031 2.505600360027291 0.4334905640959631 -2.3859824481217293 1.128176927243799
Ni 8.98450054300003 7.297292315328105 4.448400909469581 0.7565453054361615 0.04171383479901848 0.2703774655511408
Ni 1.8972682439889266 2.69012669623015 2.084724795173927 -0.2570149282013058 -0.09987578785173122 -0.538040360384596
Ni 8.555428096963874 3.066100484951904 9.563792463818583 0.20156985985912385 -0.08693542564097932 -1.0901364275313097
Ni 4.6361184961172315 2.1216760193621482 9.374622637625203 0.17057701102203526 0.014766873896529406 -0.9400197412461553
Ni 8.272471170285003 8.416371564765575 2.4847892158536253 0.08642506166346406 1.9663545009404713 1.2161415654802412
Ni 1.9195481722094752 0.7884769168523059 12.581261306767631 -0.3462949428150617 -0.5271651082329889 -1.47634209049838
Ni 7.70412159870183 0.9071533810458929 4.191282817037248 1.263156757887515 -0.5816961494013336 2.291962347719827
Ni 0.7378957811301525 8.60267183914771 9.110845383478436 0.801458106788452 -0.005035248431062296 0.27926705473128677
Ni 2.6660452556617353 4.98679758085262 6.272295209980037 0.7188814723368007 -0.3653115931268805 1.3392652681163193
Ni 0.6433366039241468 5.519319116048129 12.707136467241058 -2.1994522562045473 1.3766105415339969 -0.1976558695166983
Ni 6.652764507320879 6.92400241234909 4.564254697938527 1.2496001022490026 -0.24826803524661117 0.43602310070982975
Ni 6.375322414359966 3.5041988755064497 0.7266997495437457 0.8626549900127466 -0.7676226462962458 1.2160266371689314
Ni 2.179489859505403 7.011954818760982 0.1280930427669994 1.9258647683565413 1.774692387113363 -0.6509799233988208
Ni 0.190982368208681 3.8264030354781178 4.485610411703593 -0.055214954609246844 -0.13452500249448446 -0.36309350242963917
Ni 3.113482097978689 5.014656682517836 9.224613645663041 -0.3575275783060875 -1.4456755146524585 -0.3443625016790392
Ni 4.240502707970019 4.469487795329145 1.4353577205791936 0.09868562419837197 -0.15074609233903713 0.36445901531859815
Ni 1.6302308039758935 3.4628743881798876 13.149899487982044 0.839194444996961 -1.3571064100627983 -1.005603697794552
Ni 6.56043699949274 1.2248721429269556 2.241567585251592 -0.3549024819784146 1.2563438487307395 -1.296306505166606
Ni 2.720329602225497 4.103357984793945 3.8564496878514567 0.556289536402771 0.2509468676303549 -0.8112221281537513
Ni 7.142702334824225 6.306386992885497 6.910146392632722 0.18864672403955254 -0.23087169414703465 -0.10699183007122218
Ni 7.015723288468253 1.2957837131503596 8.639522877190055 -0.6413614264724503 -0.16730193981518926 -1.7524009227050141
Ni 0.30124319614866474 2.172908824601974 11.605966640302656 -0.829832544166087 -0.7145216527062082 -0.44267454458807637
Ni 8.927697755705067 4.056702491540024 0.9313828029857392 -0.7425515622602309 -0.8422196049765303 1.5280834847367295
P 5.154917286744555 1.5417361055817351 7.374568003662031 0.48727418557532204 -0.9833911662532547 -1.4292659629461837
P 2.3024522686367956 8.844846570482284 4.569406471770052 0.5232817140181827 -1.0216813200827048 0.6828353773465208
P 3.8655399720965566 6.7338049888062645 1.5856498073388778 0.5607717405438407 -0.5588161594793666 0.5449363161734808
P 2.2669918878303292 0.4596834497266314 10.419843557355975 -0.19586818148865623 0.3198861138042297 1.3376552433167221
P 4.970317419425457 5.942545838343249 5.705257249682784 0.2732660999528455 -0.13358166474460864 -1.5809525648216192
P 6.956190658482902 5.4195006257530975 0.09635333644224785 1.5486199141271846 1.2066953324656766 0.838922165172181
P 7.431100564104813 2.043034490544074 12.88752116332173 -0.6883995016978596 1.7416192587084778 0.09617005686536985
P 1.4634070840076785 3.181158299087558 8.863346080189174 0.160073283277234 0.557129258695247 0.8140300299161916
