# total energy = -381168.05474955053 ev
CRYSTAL
PRIMVEC
9.22300099926122 0.00000000000000 0.00000000000000

0.00000000000000 9.22300099926122 0.00000000000000

0.00000000000000 0.00000000000000 13.49879423764310

PRIMCOORD
 96 1
Ni 3.660212503421973 1.2921147695313628 2.720519669274785 0.991985335680169 1.3541483558757388 0.5260127397961005
Ni 9.214312921893148 7.861639927869163 4.24695031272783 -1.7232890929407225 1.102099513430457 -3.3237954115245527
Ni 5.3727946650328615 5.829194868964848 5.357266820568077 0.6815886494236133 0.7514239250491962 -0.029552773956452328
Ni 2.913011078312346 6.144234136741119 11.920298986209744 -0.5710764649039584 1.2515546548722123 0.56674492740814
Ni 2.4903486119974803 0.298995857556211 0.14103259732051282 0.6518450996125935 -1.7441754494714283 0.4030944683026091
Ni 4.92600482813123 6.385378720594927 8.307967692421254 0.6986445764646356 0.5345043222068795 -0.3119511752278692
Ni 6.559656547279757 1.3345221280779784 6.467488331498137 0.5981368114558603 1.036135804945138 -1.974425193763748
Ni 0.059255014452901544 5.162473350483705 8.341876977856767 0.8249312502097276 1.4165168908106316 -0.8987460793083489
Ni 7.77424277049906 1.6811686202429519 0.8575942908451653 -0.6463658216655771 0.16272871862221006 -0.6356260666505699
Ni 8.599987272029518 3.3016775629824044 3.2812467711919604 -0.007638490381864264 0.5491218150097381 -1.514601905310527
Ni 0.9421756660133791 0.9609905880305813 7.215929327940661 0.38573669375045183 1.2708852368800243 1.7691783992736694
Ni 6.733556230924046 1.2076874184796624 12.079800643010378 0.41328554990299793 1.537033494841166 0.46112349532188324
Ni 9.165624699673144 1.0543826960434195 2.682534739702311 -0.3501582824252098 0.8525968344457961 1.0213146807719056
Ni 5.381851652003887 0.10240297997891977 4.2823168323195775 -0.1766872376848312 0.2409339634790431 1.7098877319331518
Ni 5.633252212957268 7.405396514953986 3.1401569912653167 0.22368880324535026 0.09347991162771643 0.7762378987690826
Ni 2.88151452993551 7.239871316207552 8.035197438176766 -1.5884828117603933 -0.7036093766690785 -0.8125925261387166
Ni 4.297761669775463 5.442741904532107 10.298648235947875 1.10039847157895 -1.233343016960192 0.6391772743369379
Ni 7.174286556176019 1.6593746689063593 3.810561254041297 -0.9316667412957697 -0.6593354944523677 0.17344610503971422
Ni 7.810719739409862 6.409201732149061 5.35420201733949 -1.2913399051899503 0.5170568161543934 0.39370248556474774
Ni 6.732670822829119 5.407676054772596 3.3896013537089686 1.6930894294288905 1.1470873909950567 2.0980536039503868
Ni 8.49764885305752 5.907986966412376 13.165306355890586 -0.9796101019442677 -0.2076083527437199 1.0376604691197806
Ni 8.265017099116397 2.8334903637867 11.63528612045269 1.1908329115121232 0.6571210032995521 1.314835160098413
Ni 2.5494219333309016 3.7854424108482334 12.084687911234356 -0.892104148511799 -0.29307850669308233 0.2733136653613293
Ni 5.4620548686027055 6.137067864972803 12.671061412001155 -0.4040056672629687 0.7383886891317928 -1.1803710927488509
P 8.435946976442283 2.5136920275001953 7.374499461641424 -0.2177765515259733 -0.2610818991818278 -0.1555622827807579
Ni 8.624243764630126 9.034980890666443 5.90242918601651 -2.955300021353052 -0.3062415264376016 2.0675580064646906
P 6.290935190469364 7.847630189367138 5.9894555787468615 -0.6539107238923706 0.9330335397363092 -0.12938819548855135
Ni 2.772544773252547 3.0620639972927406 7.790288947619418 -0.8001041638637189 0.06669467311407222 -0.7875556377747468
P 5.408865821900155 4.117442777442953 9.037969142986821 0.606626079873794 0.44018494539700315 -2.0617257160536298
P 1.9529058983766916 1.6497550788750153 3.9269748948223406 -2.106421259188792 0.36564069433152513 0.19988321618532026
P 7.541260542520362 8.642449968582067 2.882437752334491 1.0341393433403996 0.12651858725024018 0.42084227920433326
Ni 4.9194380514271865 2.3495502789020835 0.6687016967934437 0.21950227596782843 -1.4348838233535932 0.7465838233480754
Ni 5.270493138064819 0.5324456916850432 10.400645403883285 -0.8626094814867917 0.34802143858786516 -0.312170747437843
Ni 9.155691527608179 8.805826208098106 0.8615675596711508 0.40500814038555405 -0.3635215911059933 0.4534204702506708
Ni 6.692181848488179 5.304830370746212 7.464090770946768 1.0818700737574594 -1.8853696364559724 0.03408382905758646
Ni 5.123081913260434 2.0306926887164387 8.156187532048463 -0.5828192072621834 1.7241707242147273 1.3605156928546633
Ni 0.4215658514972947 0.9491298087589529 12.639609134029065 -1.8177203127381145 0.9238158777927832 0.6459873552802359
Ni 2.2682864171895494 0.008195558678669558 9.18762985773238 0.09440216633166969 0.9567949038219652 -1.6157048807011398
Ni 3.7646998816243666 4.250106423666207 1.4304671627645233 0.19844879773163887 -0.05514939147863405 -1.540798875420869
Ni 5.533247213235444 3.1830236552611755 10.926977168212838 0.12322706098316195 -0.9618975151558531 -0.11972701824970348
Ni 4.0770275871099235 7.781123129236724 6.126157977103122 2.1293367303343844 -0.0065611981572854736 3.4254735426923455
Ni 6.034019274924665 0.4767350765121469 1.948847777941609 -1.275991190648022 0.3698570464057178 -0.5958649847025479
Ni 7.732305785002875 0.3523831987800223 8.177515721835121 1.4524231177889373 0.6507829768966663 0.6892104276349291
Ni 0.9822957203147663 6.60162120177891 5.788633955216195 0.04805623207727852 -1.0155312413209092 1.469231447595528
Ni 3.946780367145742 8.405511073179161 1.860781952999817 0.3464592363070678 -1.3498255601306688 -1.1735239879200308
Ni 2.050236227811758 7.174498685198762 0.8246377414117982 -0.3384399655470171 -0.716964714930062 -0.7360361297392163
Ni 3.0736388635337155 2.409472116326477 10.023542717853015 0.6434054534856726 -0.5786380793013003 0.010624569593381702
Ni 4.607912747027658 4.138305205679674 6.8350332216036875 -0.15891088753801663 0.09584558364641557 0.055315484742853124
Ni 8.394757054026192 6.824836271710443 10.13502943150583 -1.459164807388145 0.21394380804344443 -0.2536850924971244
Ni 5.913050393955241 3.6077151817935826 2.544711746725909 -0.9870819848412806 -2.884397480805219 -0.2983605810276281
Ni 2.227465414813012 0.22052379824299445 11.38540919926266 1.0845257662127514 -0.953687468541235 0.05738059480199795
Ni 5.245950732433556 -0.02699295699399302 13.170800497579629 0.4672884864820146 1.0411754242515747 0.7187156361828978
Ni 1.7896218888705406 3.665036132939128 5.383831830316187 0.03683593788142688 -0.06379575429972238 -0.05390317777635877
Ni 6.66180128323099 3.8074669372095467 5.505456466655916 -1.1614354321866127 -1.18445220479676 -1.3469310121916933
Ni 3.117900045279085 5.847622424940519 5.031445864635869 -0.40627826534722933 -0.884462315695825 -0.34838962056056133
Ni 0.700533040106174 2.8200063363410384 9.209160953540792 0.5135583160828316 -1.258679953063084 -0.9315361292551763
P 1.338229774475486 5.334795900958904 13.180155387482595 -0.30660199510081393 -0.32833527301284743 1.3573727763503074
Ni 6.50715000265038 3.8833814583485617 -0.05411134680143405 1.9317603079053698 -0.0629226076661497 -0.15664394588071087
P 1.2193452917295367 2.161972884791368 11.167255712273795 0.1722274021412647 0.7522621046797754 -0.25915357181086335
Ni 8.003969279128704 3.8284492644591226 9.566636171166744 -2.016828084209991 2.539709991686594 -0.6711715678553473
P 5.214039149012223 2.276577895078503 4.516426111019111 0.2197935819560021 0.9366477394501288 0.03640039300590505
P 6.190450594696119 7.857378901412327 10.272649518460476 0.4373384770871435 -0.6901707346656694 -0.39343843327008365
P 4.618399299151951 4.019254708915926 12.59001521311196 -1.425063751939378 1.1309267220747943 0.7902956624137292
Ni 0.07620043416966903 3.4477698986453866 0.6669806848089289 0.3614523672817904 1.0570681842224312 -0.1509201560230562
Ni 0.12302376558973385 5.221223866782517 4.010775081806801 -0.0340437198482704 1.23167488522915 -0.271681529074545
Ni 9.37914639556542 -0.07164980548178294 10.189038402996287 -1.496794187705145 1.0062122779128284 -0.1655579605408891
Ni 1.544539083594504 6.828912838147504 3.1988494026578995 2.6513688882161826 -1.15021719487329 -1.2098055959598841
Ni 0.4957307693487301 4.972719328139627 11.261179987443688 -0.7866562658889291 -0.0033347208001878056 -0.670057251745246
Ni 2.365293941590007 2.35812766982169 0.8597976657813955 -0.7063190622907577 1.3313596401159975 0.3941305742411018
Ni 5.483203209870081 5.9867421718559495 1.3945334286119637 0.32820440386193794 -0.7438851934699899 -0.17000571189959754
Ni 7.088844675015547 7.797844430029462 0.6132354911467514 -1.9334050425976446 -0.462136767077746 2.4500859634698577
Ni 3.8135448948611823 7.725425426265212 10.110488870474766 1.4643082992622976 0.2249710123918835 1.0252890920386213
Ni 1.7497139635918963 9.11527633727515 2.365312387591985 1.0465274325921075 -0.7526703958617876 0.8084065130818271
Ni 9.062244081589409 1.927385854640614 5.2279751035063375 0.8030483340937072 1.0837060985249336 0.07848549510141321
Ni 1.7650056992313679 4.251296190793765 2.6728422879631553 -1.295410732825214 -0.03544831350528089 -0.6919825910634276
Ni 1.4975571165574313 7.215780837624741 10.121597975165804 0.7056783433829652 -1.357061672867792 0.9454398838204621
Ni 3.3439926915191314 1.4540522208931455 5.588797348191134 0.754808525250713 0.6665083580517231 -1.152010796438603
Ni 8.695685130289563 4.455880798727873 6.028831336868451 1.5007012360690348 -1.5236038516988213 1.9176560072935038
Ni 0.3880799018071691 7.827653169225344 12.235347476987004 1.555261330703102 -1.0026600417851959 -0.06719758089241976
Ni 5.448644625164955 9.058647111203767 7.866732869015192 -0.7856797609082727 -2.4164906440129155 0.5557971701473847
Ni 0.524160669896782 7.684041820828356 8.138004385598995 0.5040683743145254 0.8564792002193379 -0.7840216564795593
Ni 7.177606836531996 1.9107936758617186 9.82465146842931 -0.5226975593799386 -2.332603004059324 -0.6925621177159814
Ni 8.541245978731695 6.833718021662682 2.0958900827064397 0.46275871693246107 -1.464199284488259 0.626816695889056
Ni 1.5834140327623998 8.832766593986463 5.549880895518788 0.9362114232436586 0.9845759305899754 0.2998132543137546
Ni 3.67459116196355 3.7611766952466357 3.6875061302482015 1.2580762580408138 -0.78704604512818 1.9421570777586616
Ni 7.112151198514308 5.07965080160406 11.392806968355798 0.33363148841478024 0.07229196469619162 -0.6907754581292039
Ni 3.229959507293304 8.156416262472987 4.356560145679418 -0.22655301216702273 0.615709787342617 -5.237153819883967
Ni 2.16203744579829 4.669891313672559 9.662220586514625 0.39267507274149793 0.7932629725721693 -1.0264370896001356
P 7.582358234926565 4.633156100734071 1.6357167490699254 1.967628996777521 0.445743156211071 -0.4368062587327574
Ni 3.817529231288354 1.7749573172983095 12.291232406878589 0.4745778210545762 -0.14315928113071472 -0.9642241064065006
P 3.7251424303832983 5.980553538192448 2.7243942519901907 -0.7518412150922729 0.6057516476886406 0.9028482744021806
Ni 7.401393732524837 8.299760143841299 12.140545172122975 -0.06491752660899143 -0.3980450788041596 -3.1867301591067183
P 3.3010135069112088 0.8865130104456249 7.5662899226038345 0.32646453835269584 -0.5149264000749518 1.2484559613422306
P 2.0193852895041395 5.297664098977896 7.186460917481268 0.4852214168113515 -0.9770240863846464 0.45490399677473264
P 3.9251708758289263 7.73100534186345 13.014632955636454 -2.06006272652891 -1.2730405926601303 0.34860147946105124
Ni 7.653984060605776 7.336602150578344 7.634837110552977 -1.253807455462131 -0.37888701781847006 0.4892981579838864
