# total energy = -340878.34637643077 ev
CRYSTAL
PRIMVEC
9.09493509054989 0.00000000000000 0.00000000000000

0.00000000000000 9.09493509054989 0.00000000000000

0.00000000000000 0.00000000000000 13.31135683514622

PRIMCOORD
 96 1
Ni 5.4813716926156895 -0.09811342827821923 4.512550132582837 -0.2788050274932037 0.8420049178625627 0.41186347274449064
Ni 8.801659544662881 5.702587792063312 3.026124008947899 -0.6353198482640607 -0.36815214789946915 0.030939112781017686
Ni 3.597992591616066 2.7372388660138576 12.66118971972489 -0.3136676436983437 -0.37391039053948505 1.5340697842271516
Ni 1.6363697664233785 1.1370669401447502 8.863233162837874 -0.06788792209122503 -2.438937917272838 1.0269191714428765
Ni 1.7265824248298653 7.939459724425464 3.038263927935799 -0.12446761825848239 -0.17492603201935036 0.43723537585037603
Ni 2.6905909453598733 6.817617705157058 12.56828950808127 0.9267047693048039 -1.1298000646695188 0.15583327705395741
Ni 4.773121833951677 1.7611977467267388 6.1886092850350565 0.38899222457327204 -0.00970642865448651 0.6626285633813427
Ni 5.750754566831006 5.099211626723748 1.0804709797927101 0.8697190959483796 -0.33995717352249194 0.9379260919419202
Ni 0.9928849385601114 7.162324829490585 11.088080681884247 -0.9575479799379057 -1.2918602964697943 -1.588548374891006
Ni 9.375877348993152 4.778151332903063 11.50271603151165 0.05511622424785346 0.2627042652765992 1.1751720650464148
Ni 8.32139241694709 1.2656602234605399 3.2405698389209996 -0.3963430085113884 1.227906419325653 1.3627782636365948
Ni 2.026715273646688 5.340518437172473 3.353343392623699 -0.40215241610431385 -0.609385644896802 -0.30603249575058905
Ni 3.043465321155143 7.9112836163759335 5.65612813655995 0.07441595301772991 0.9504237101882987 -0.18139081380808758
Ni 2.30669374691872 2.7357927713786494 2.2448400047514974 1.6006307599768368 1.3211240784309184 -0.10060083894321385
Ni 0.09511846624441983 6.621276252421981 7.427071105938423 0.3388544273766164 -1.975021175476534 -0.20266180737172196
Ni 4.695532945065122 5.022659560405833 12.373864358111213 -0.21852242855306236 0.5900488922414032 -0.22434983386811685
Ni 2.8785559631325177 8.766662235503878 10.73204126877418 -1.1022003006743792 0.08535496852773687 -0.162678582110565
Ni 6.464834278709915 5.047652441270944 4.46589311699404 1.207793707736178 0.29861717712312447 0.18919205502006128
Ni 6.257788087700371 1.3037225256514005 8.116679076716986 -0.7579491277622237 -1.101704077764251 0.17984918035258057
Ni 4.099123499792033 6.784875939831586 1.1840222695954015 0.6905319746598301 0.6447786796841153 -0.23649263987823788
Ni -0.020087982520658045 3.354603041095248 1.8989978325533543 -0.8662658472924566 0.21445031536621778 0.20722680103458505
Ni 8.292024872437104 2.5952760285235006 11.645426472643603 -0.1311324318731677 -0.43432540129243263 -0.5052122581109816
Ni 8.389795421672886 5.7611136975825925 9.696191858159201 0.8669685297864359 -0.6675581394724762 -2.335235299475849
Ni 6.957425043096822 3.3369770574283693 7.193723272944231 0.7709501680075819 0.3977751129722246 -1.2791893858703454
P 1.0164953893337014 3.0584628686611715 3.8590554194647884 -0.4880342036697982 0.47129092277318835 1.1460355526917747
P 1.2125094244155243 6.550981501255156 1.5659877038823524 0.27460204515544967 -1.7365392730824094 -0.2875958863119563
P 8.18211258522646 7.89042893085057 12.120961505776384 0.8929392428185847 -0.08367758082531396 0.27074256220004345
P 8.972298711617464 8.811936821001154 4.677557715901438 0.6906854695185589 0.965290599997802 0.8264877960635703
P 0.26506823714020483 3.956878719322485 8.374094835705842 -1.09768750040569 -0.6453229822233596 -0.10179923012668919
P 1.9195314668798313 1.0095377642020387 12.805112515667368 0.22060605055496843 0.14821741237991248 -0.3650400846330487
P 3.1806987925429313 5.687299206643281 5.105410734292038 0.459521440942086 0.6367990039127485 1.2441272520598894
P 3.4899629559116354 9.179062959647815 3.0564874488198677 1.3188946748797674 1.7610416290991477 1.2149686282180625
Ni 0.7126354362306629 6.793852640491654 4.9517981948001815 1.5010249379570408 0.9808753418099366 0.9831003744857135
Ni 0.544023530245816 0.30959340000892105 11.080892045408342 -0.9755063641885393 1.5515185758312182 0.4173900589896747
Ni 6.330156484004475 3.1698030606373995 2.4932299504322994 0.6095496812784922 -0.5033914028521588 0.9642156217660683
Ni 5.9548267141568205 8.206296016893244 2.150382740267956 -0.3643661984944757 1.6762314773312872 0.5042033572304929
Ni 8.629146821136898 1.4625746570888132 7.764514105837102 -0.44110720010095644 0.6369275590708128 1.54982627573046
Ni 4.890892144840436 4.681071998713039 6.471741881700108 -0.7461274525369472 -0.6759448208742745 -0.7076151553943619
Ni 3.0620098932380975 3.1303765182246446 5.351790699379248 -1.3244839960420867 1.4121475580983422 -0.6832948334814425
Ni 3.7992816888892147 3.776062320312568 10.56853798767359 0.7962590790860157 -0.6478894573989551 -2.1292053469628427
Ni 1.5640377498585245 2.626307946104198 10.605144190800948 -0.067224063254981 -0.6989865331850864 0.7988391811083662
Ni 2.299217710502737 2.8993924587882556 7.717511482725424 0.723824675274689 1.6879132845445897 1.0331494686233047
Ni 0.9874279776725329 8.030772869944279 0.1013375826692969 -1.1951793614062771 1.1405519038693843 -0.24929827628333842
Ni 6.4906638935777865 7.4037134943526235 0.11725462808488238 -1.874125431000721 1.169870193217527 -0.9977829161985526
Ni 5.033000501287795 6.9868289673460575 8.089071402093243 -1.3183280037430198 1.1344912994976009 -0.43893847458441176
Ni 1.0346852589589635 1.0594052917796943 1.8203948584351912 0.9992492163314339 -0.9026243313168326 -0.3792096912652115
Ni 3.7876583621986724 0.1602718507616644 8.18181154288416 -0.754118955382856 0.19208737428998532 -0.43662011086388036
Ni 2.747425193004004 4.916094209206236 1.0276375939726556 -0.5888245329159988 -0.4897784400544145 -1.148779691095815
Ni 1.7881642284461896 4.7296844252865515 9.70226181765315 -0.3011695112313329 1.3482852122267426 -1.551373565612922
Ni 4.752740085036571 3.2211166828502633 8.267004706767556 0.17461647119873153 -1.7716224899387873 1.0010438463380116
Ni 5.1084520804933815 8.711110373668328 10.157896223922412 1.804220735589783 -0.6567322525015657 0.15471484717879805
Ni 8.64560865314776 8.278500704370723 8.939680637405443 -1.0178393206287955 1.299818889195239 0.9378322466765332
Ni 3.0495043578707297 8.933099542575023 1.0673215230406083 -0.5994904972702771 -0.6239637998212931 -1.64499283103198
Ni 1.2139646139855453 4.521201234576612 6.443947760912708 -0.7864894012937617 0.5650965931714397 -0.9726532110104604
Ni 7.433663114690617 7.525531051233004 4.166002193443234 -0.9035442720279406 -0.3549996696779112 1.2923914863829162
Ni 4.334327608981483 4.895212238876436 3.4304693493282907 0.7683332992100251 -1.377606329788363 -0.7956957503833779
P 8.183203977403975 4.124525652723711 0.02473094674250616 0.47922329024638755 -0.39892156787184196 0.42548594862393174
P 6.961854276350572 1.0723837637573188 1.5889769706082397 -0.17667309661744413 -0.6063558569315428 0.5021744997259222
P 7.535153492264767 1.13340168141526 9.809817607253844 1.3403957821763366 -0.08154536497365956 0.12890302832201672
P 5.336643994942293 8.836993366409953 6.7684386641447185 0.7701983774432218 -1.0076214995555293 -1.123662070092581
P 6.750233333130275 6.309238133935424 2.6033950768307363 -0.5842765085340003 -1.1229796993135757 -1.3032492550330264
P 3.8230649434242445 1.6063019119328203 9.990732231559736 -1.372041948326708 -0.31095744385603225 -0.6382894724153458
P 6.7815562886249765 7.149855673862468 9.31330419748225 0.14509403625958237 0.7666885645177506 0.14392238454898437
P 4.238212337881599 3.4394769727667205 1.6411837154197042 1.3972115056138001 0.2914926502632012 -0.5855101238307852
Ni 4.322222250745871 2.103358289312729 3.630006762156527 -0.6959999397529368 -0.6069459251070579 -0.21383170794561238
Ni 7.086091085891112 3.328436913639309 9.57657618499696 1.4273234945078321 0.6366887035871293 -0.5868432408199119
Ni 4.793985614411853 1.3197023261171932 1.3696053239406178 -0.6856633337136192 -0.5155846024842411 1.104958837256123
Ni 2.4736494652741863 6.206592699640071 7.237370774603528 1.3517001514455624 0.8161208510069494 1.0664815071165312
Ni 4.517235842998304 0.45597182835081035 12.47258169006099 0.2232262617866349 -0.8861299332062351 -0.05339178535757902
Ni 6.981690329176922 0.6155906627929278 11.772457246158584 0.6344456731892235 -2.511385690820604 1.4149531458679372
Ni 7.296020371236261 7.913611919687967 6.763740220820513 0.31183419003403073 1.5518085962678114 -0.11975658593605826
Ni 5.649382423409421 2.0960459617233735 10.935199375151324 -1.2613672700872598 1.172059744669678 -0.14350920827096575
Ni 7.400366558341575 1.202732369491946 5.690751643898155 -0.4017927187720499 -0.8625382619292241 0.0011343707147593366
Ni 4.191637176706116 7.288626189233592 3.510337428878891 -0.2726071262126079 -1.4542154338026698 0.6703398159826713
Ni 7.05196689047412 6.049104808424553 11.497631053457907 -0.3766483582959384 0.7642092497393227 1.1973424304958669
Ni 1.0828338438570317 3.0644928104419455 -0.3145337685991422 0.9790436879178365 -0.27150823672147434 1.2359747981560845
Ni 1.03062891803253 8.728945540835896 6.990219559044207 0.6127807866212801 0.5182498080212301 -1.3699806949223052
Ni 1.720006786960333 0.9088632022805826 4.236006816189536 0.8353439609026194 0.224488159218194 0.4422024900476642
Ni 3.5086894266908426 6.311484582834145 10.225091421305093 0.08347960588189493 1.3822505134285936 0.504357366309854
Ni 8.039367583342216 3.2479831202867753 4.681311195498611 0.6590627004069552 1.2237882833922213 -0.3990259546601902
Ni 0.7263505979281104 2.2859209158066705 5.989298336083654 -0.22415443002785915 -0.5128096108422653 -0.846670184548716
Ni 8.5876739183913 0.9145957396929839 0.23784436876555654 -0.5913508988822782 0.2895715219810884 -1.5685102252932082
Ni 8.603071643029084 8.372951602399894 2.110169485993908 -1.0922349619315512 -1.621109596656479 -0.22479797714912897
Ni 5.339281526037956 6.7428664359320445 5.6060241406771665 -0.3570745499290689 1.564220596778919 -0.04943691447488905
Ni 5.722978635913231 5.326939699497215 9.656456997456297 -0.0707215348852782 -1.5270671276570733 0.513157223989671
Ni 6.9282121124786515 5.740659189188986 7.452536013920308 0.6424109507828871 -1.3193502743599472 -0.6970072979715287
Ni 6.210267053304373 2.5477277093230657 13.454453572056487 0.7595488681491758 1.0393910786576421 -1.3808351211383056
Ni 8.297672826955749 6.212622641420845 0.5957155017468854 1.0148306157094586 -0.60673792286131 0.49450078523074836
P 3.8826913360558533 5.071517550219287 8.508006836900059 -0.9755824688421133 -0.07163761894164436 -0.2601758424277906
P 1.6113677906234558 7.650659164385179 8.922802257380162 1.1315108767130384 0.2629279512516311 0.49548140397646284
P 2.627963224240096 1.198885212066203 6.451588415648799 -0.4861696396572337 -0.8857614941232228 -0.32391811778175833
P 4.7407529609535235 7.212874477179188 12.129255176832022 0.30954770799269915 1.5381480680615833 -0.5144417471290496
P 2.451412349657304 4.670976621071019 11.95554192191077 -0.9427086009322281 0.1736523075132493 0.6647047291840811
P 6.522277886986492 3.973458785485911 11.786793591903734 -0.8798289306888717 -0.12188134558854494 -1.598927918353117
P 5.896009770723536 2.9174549993261403 4.783741989332387 0.815740584849395 0.6664026857117943 0.28969004983682367
P 8.479125871402548 5.400890614458718 5.637679061292528 -2.406152752422017 -1.1084323976270203 0.06759224522767714
