# total energy = -340862.54413016286 ev
CRYSTAL
PRIMVEC
9.31902650874265 0.00000000000000 0.00000000000000
0.00000000000000 9.31902650874265 0.00000000000000
0.00000000000000 0.00000000000000 13.63933727717994
PRIMCOORD
 96 1
Ni 3.936971867686927 8.460930579289965 13.583483914271584 0.22173450773245684 2.5101189082930384 0.34284015149724184
Ni 0.3750684527084224 4.674675327889559 7.040162043411352 0.2753139836208097 -0.6716310239902691 1.768520711085012
Ni 1.0965325772565129 2.747687019243886 11.592795399688455 1.5867138927854285 -0.11952930041660059 -0.2910110826410924
Ni 4.228918331238777 3.301022858311755 1.3583403770643312 -1.3450075699167352 1.989163271304871 -0.3169316591615961
Ni 6.46675208926633 8.360135988196477 4.105699366573889 -0.9443103982017093 1.2486233401580302 1.552773788394558
Ni 9.139803024924069 2.614648596310209 9.032596943568716 1.5912727158007047 -0.7528686279155228 0.8403524698608044
Ni 3.938779758836348 3.038515199610527 10.802600658674775 -0.4335095902593566 0.9363255802240198 0.21226127813469894
Ni 1.2349108023995614 6.662787131633436 8.541335140306481 0.39962013660076334 0.8575608633192907 -0.7298058325587883
Ni 4.589974695636533 0.8965928627677184 4.8556172748669635 0.2925208344173994 1.465162933953109 -2.260802634287571
Ni 8.5881632486871 8.602980500891116 3.286152487656441 1.0106556583961628 -0.7728432712652368 -0.8644707030652468
Ni 2.626735373737008 2.4158923981924274 5.101685238842967 -0.3894131141607745 1.6166747008135771 -0.7641395728436517
Ni 8.404597063835071 1.5288515376317011 11.447700020212919 0.09978631346171847 -0.9234991178833128 -1.398540765948185
Ni 0.001524592742501364 7.242933810066688 10.429196584107006 1.3640257628904509 -0.038650108272030206 0.30065323371654673
Ni 4.090418958750664 8.97502399758355 6.447914609011487 -0.8314885917122713 -1.541294584110365 1.4176245220525134
Ni 2.561958820233787 5.876456990927308 6.633914923596654 -0.22694561961975107 -1.6429745150503707 0.7029110650504733
Ni 3.9828214782804885 4.5785029739616 8.674945751469922 -0.519843377760595 0.9381886015746874 -0.9557502646075348
Ni 5.52018128714632 2.560989641473272 3.2293725908301174 -0.5409850448352167 -0.46721392449033733 -0.3960509311922663
Ni 4.763765221644528 8.139023445401062 2.30938524382783 -0.3865031396028311 0.9904303324882232 0.0035910597853680087
Ni 0.3824099818193183 -0.08863326145434275 0.5107600024990068 -0.48372632032306373 -0.5798698948258724 2.208993362925763
Ni 8.188022886966296 7.492804868775057 8.05087756903494 1.8235508033769627 -0.6180520623225485 1.9643521257984624
Ni 5.927320237801223 8.82682351846375 8.25065326865657 0.17576961096656826 -0.17102309742051836 -0.26076642482393797
Ni 2.7198138108525556 5.345896852731525 0.9658257747639968 -0.07171989424280552 1.7936429600739368 0.2825850633609262
Ni 9.076032926287537 5.505177654411435 2.5639773213830885 -0.26863117228399547 1.9237073556939064 0.4923408014649521
Ni 2.2065963810540525 1.3040300222720103 0.4136753158724484 1.1617012842534895 0.11760431547974586 -0.507614696904887
P 5.832937136969598 5.191331478482579 13.240005097740003 -0.9354850866005953 -0.6219855930489998 0.3499615930333715
P 2.6162514688756753 6.545656287009356 10.97527476530287 -1.3899622802505545 1.9178694088558905 -1.608197259470185
P 9.080301040444416 0.9867451255486366 4.538898974957429 1.6834472783534362 1.0509106492614675 -0.7785261805826269
P -0.01884027596280567 6.8766028766453635 4.369034554832171 0.8060359559671214 -1.323013067923515 0.3248755965990211
P 6.064990216926973 1.5450293677110554 7.118384088411401 -1.4629988364222544 -1.0639312298908516 -0.6502831544421123
P 3.246394724714304 1.771220779972627 2.9848869975611834 1.204632793509693 1.661882664808783 0.765719515736262
P 6.512033239240743 0.5515540411927703 1.8899759309232236 0.1751630877308209 0.19686499818428677 0.8611884327695492
P 5.844846852892072 8.664299695546735 12.1025116712146 -0.22806019284016854 -0.6478367497841488 0.22079116998258105
Ni 7.1600317499365405 7.587775068278916 10.188039747119376 -1.6799726895412745 0.889840549288603 1.0220307330023237
Ni 1.5264938239162191 7.483970431611907 13.029099684717583 1.5506891379513874 -0.23783758394190652 -0.6253755925671551
Ni 2.2750539500419196 9.301488135452178 2.5457548968801107 -0.8493068508406146 -0.691645519438983 -0.7298649679314979
Ni 5.143599424527249 5.373024538999382 10.73253555760817 -0.1688633707650382 -2.0023136926439 0.8969391080065973
Ni 7.992789280881922 0.19491955488986112 7.053788324023121 -2.636912603581536 2.62925765813944 1.7219909429545892
Ni 3.933672932290561 0.6791315145720105 9.070214126113832 1.8915192009971358 0.012298100641062692 -0.8517113465170493
Ni 2.2026264757465612 2.229688928828615 9.334353546362811 0.24314819752154257 1.502491752310554 -0.7871378335110379
Ni 3.8277621956247416 7.482078669223595 8.136451394075083 -0.6522263942114122 -0.8108022670075132 1.590193880914229
Ni 0.7702492285028255 4.765945873855685 4.5813583236944995 -0.37198823381610774 0.18756608938086408 1.9657726602950727
Ni 2.7063478174973326 4.786214756587595 11.93195111980655 0.2926894987847798 -1.5826487215771194 1.227362373896725
Ni 7.29764581490303 3.0109122429889563 7.909260982168057 -1.1072327208919641 1.154853408093721 -0.4200490938790766
Ni 6.107643401416145 1.0228656724308816 10.626475716517655 0.7228440565289744 -0.21716025809821307 -0.6564931399075662
Ni 4.913708358727945 6.276131401320943 6.441162974280789 0.5064445878561858 -0.18247504801120187 -0.44416347042877696
Ni 8.516080578373849 1.519299535424709 2.481418201429739 -0.21909347056518397 -0.0048724976009528985 -1.003656087149878
Ni 6.313099979618637 7.274721009606249 0.35389842010976497 0.09626261657917615 1.454844068525604 -2.514449417347592
Ni 4.957908501623324 1.4140784067231018 0.6288059755296502 0.2004241762904548 -1.6964120660442206 -0.9358764085017431
Ni 5.268735312952116 2.7817294232069507 9.087099270307833 1.1083745478058913 -1.008886739421198 -1.0778576101639565
Ni 0.9302019319965154 0.4460617288187502 8.14181169814285 -0.2778925429812633 -0.42312130504649714 -0.2159497827298797
Ni 4.011123361892816 0.9005618361725554 11.64694360341892 -0.3140149997354334 -0.9481778515769155 1.297693358211804
Ni 6.844359044805176 6.836633571800691 2.4932710712902977 -0.910307301783387 -2.4749868404765953 2.4470680025791403
Ni 2.674290366188013 7.4261365528835235 4.962754395425895 -0.14612530573757415 -0.09968012690115736 0.09830175849639199
Ni 1.2811424930814028 3.0167273155520418 3.192709676603046 -0.5966802815149918 -1.4784951322856408 -1.1155828926288722
Ni 6.432476709639679 2.798410480719649 12.385186635258416 -0.40380177878227874 1.6597314227937354 0.40374264340956917
Ni 8.871088894544933 2.031119111241701 0.07474138858608612 0.5808695397349802 2.1093345761808444 0.16784649946474964
P 1.9360277643927772 8.071404588802103 7.017098384619075 0.3980545918858564 0.49435526079181963 -0.31793233251196856
P -0.2524123572467555 3.6231070537049836 1.7660216950640604 3.0784018696122595 -1.9889125887466454 -0.6132186454896471
P 8.771720114512586 5.10662152720301 9.28038240413667 0.04590756116539191 0.9486769027005209 -0.91983863831259
P 3.4797431493612123 2.719683344480948 12.888028260903488 0.1469550007277211 0.30220566580533115 0.7097221744350357
P 7.087977036702919 7.643726503645531 6.355604059683116 -1.1707153148266418 0.6862456885796504 -0.655811026238877
P 7.999070304772178 4.298652606863091 5.801573953137763 0.32921176208052977 0.6502816117802156 0.8485023526614485
P 8.450316208057025 9.576418056535768 9.510055404714858 -0.5462930873116915 -0.6626959262841684 -0.0927062666864855
P 5.886111502426278 4.665878166832582 3.04938770787872 -0.182485332423847 0.4020521430810237 0.4752758755628654
Ni 5.809751398929602 3.8105872297052428 5.8781586451741346 0.8948994518687491 -0.8969825596500229 -0.6981342124871203
Ni 3.2874729937176417 4.203291008244409 3.3636653547365363 1.5232356697261251 -0.0031933101263170813 0.5939132602928159
Ni 6.968358011991747 1.311513200586366 4.545963728979986 -0.574428669205643 -0.9419182438204489 1.3329467820974592
Ni 6.866780622668613 6.0877193226663415 5.001571868589802 0.21164524181725486 -1.3049883492113203 -1.2998929369662837
Ni 7.450468531188359 3.6906234010119667 10.306578696654165 -1.3002238379431414 -0.04285154794788749 -0.7857049577192533
Ni 4.693639546905392 8.052216713149228 10.370111160113844 -0.5192772208444798 -0.16967044004736584 -0.14249028008814815
Ni 4.241545612205094 6.723081233369279 12.36129078739581 0.7307445423229737 -1.381649389509485 0.7770999896590617
Ni 1.5772266044185261 4.698196550885117 9.653500384589558 0.2700506783393414 -0.7195401889667221 0.8649808099324459
Ni 8.148649999820401 5.314678113811112 0.44164264643186674 0.7185667693098592 1.5277469273329174 -1.4971088907320862
Ni 3.477543859096968 1.8974563135296163 7.086481332942702 0.6759260518211972 0.9682553390530808 1.354052967948455
Ni 7.890941639789028 3.316156957418248 4.015066242023331 0.295069311870866 1.2227729547538295 -1.3931746165402652
Ni 7.029453550010324 0.7182975193286408 13.231985143496747 -0.26525737071575606 -1.4778708684380806 0.9804657650763439
Ni 1.6102811915679902 3.6727588271282556 0.22466961522703321 -1.6205210711428608 -1.0861213928346456 -0.06879860683095247
Ni 0.3633702786884837 5.62231781806206 12.11711924532139 1.2418916778611515 -0.3535061158515202 -0.024318779251022632
Ni 8.49896152661361 7.838773729199036 12.790643501622233 -1.2302270970390297 -0.8973859657360286 -0.8447349151992162
Ni 4.8901032644934945 5.869737972789513 1.4586587659014516 -0.6238570990400998 -1.280702480080762 0.481779481009338
Ni 7.149333507464709 5.3945980854473685 7.546345471974892 -0.08943633768596211 0.33086523852355276 0.5569102007059054
Ni 2.023626613900802 0.201618071169262 4.776932074247708 -0.5903042027853188 1.3968924317114846 0.6414429304426631
Ni 2.1913877297352125 9.478568277829996 10.264256337607284 -1.46910777753347 -1.6921239801918277 1.317002342953061
Ni 8.72487336807888 2.200883817782944 6.259432637657811 1.0188847311741744 1.068070705980522 -0.7056965982154105
Ni 2.006106843999197 6.06044253197379 3.2451534303787226 0.19828141891583914 1.4735213332201333 -1.539743180462845
Ni 7.319871693209055 5.621945057000324 11.882058915498458 0.24299675954534283 0.7393474535006364 -1.5343456635963577
Ni 0.07093829385372179 8.590232072579736 5.768157787758414 1.6303480845356113 -2.417957972587062 -0.9394268448571628
Ni 7.12315636190428 3.6837459594229323 1.451156949534009 -4.446042603547478 -1.983732587207603 0.35756563063287455
P 2.711445325016576 7.591567912082082 1.3710943967916378 -0.699979236115659 -1.6992837311650606 0.2861614678582749
P 5.633500649914148 6.3814829963941575 9.051909694177274 -0.04762325830491798 0.6145417351764447 -1.983248705592649
P 8.361524523151445 7.365562880351379 1.3599171563554757 2.913300279882499 1.3593820934708525 -2.732260678766243
P 3.7850344589232217 4.085983102116003 6.067336747810603 -1.77697449827932 0.362935122474904 0.5157082725462989
P 4.666269565947405 7.305874515340857 4.372526394077986 -0.03674980592552381 0.014972819259748409 0.5250822575620312
P 1.2764643417566128 2.562359538375153 7.282588131814193 1.3427272585229908 -0.024222105772158282 0.14529201120300136
P 1.211762340465739 0.3454758839198338 12.179559518870178 -0.517785723900618 0.4618966260424819 0.4118765853706133
P 8.613427129646276 3.788575689009716 12.067717221809481 -0.4720098032170839 -0.9989257715537442 1.32258703612969
