# total energy = -340895.24451696535 ev
CRYSTAL
PRIMVEC
9.01530437395953 0.00000000000000 0.00000000000000

0.00000000000000 9.01530437395953 0.00000000000000

0.00000000000000 0.00000000000000 13.19480923222382

PRIMCOORD
 96 1
Ni 6.3969894198684205 1.9555186550348505 11.387054068299353 0.7884802064715453 -0.3793181918186177 1.2920775546869232
Ni 4.564854218474958 0.25630419762379636 6.018521539265057 -0.03590031344103495 -0.3009771927148687 -1.1815936523020425
Ni 2.5884921800688594 1.5919314355874479 4.667940616181212 1.365265291724507 -1.7861402239389883 0.4441511291336028
Ni 3.3391695170816753 4.160995635048592 4.857246678916704 0.04616415726088824 0.9897497614814309 -0.13659319787742283
Ni 5.100615718036579 4.436900005590826 2.6858430412263306 0.45388686836412806 0.7590241059939573 -0.47433279492330566
Ni 7.168780599379272 6.00876337397049 2.5918963589447173 0.6791515007370303 0.009124588009087513 -0.5047818554417822
Ni 5.198963671841482 4.733575637070497 11.45453271890292 -0.16114826150896766 -0.9081313771779909 0.23280773482748293
Ni 5.476454735927548 8.177169423005612 12.558792992263195 0.8272200462439044 -0.8783813996090679 -0.5530908269598152
Ni 1.9223333201777741 6.567441776875413 0.43976563862936646 -0.012138692245062966 -0.7333457273912467 -1.2642831581824743
Ni 2.6161331028267503 1.7490050811225855 0.161971660321296 0.5938525822582095 -1.153849906529871 0.4010046756531158
Ni 0.6499385245270939 -0.12192477741756907 4.622036490121647 0.22519804080102507 0.11604108475768402 0.040115379963647044
Ni 8.501170441595253 2.320377032378164 1.3641985401176984 0.7501746260231273 0.6273296309697325 0.7055513308867978
Ni 6.9057861444891255 0.7904808067024321 4.754366731677232 -0.9780124184398447 -0.2993088038735104 -0.09420393427793453
Ni 0.9874643025170565 7.297933847725504 2.5308699615759256 -1.2359298038507616 0.8704768000500106 0.4221684542149245
Ni 7.47741052426304 3.848317838567207 3.8994616594431086 0.9892733360656446 -0.5127682160813686 -0.688342423207679
Ni 7.60169550832706 3.822885665344764 12.521966376029107 0.12892796802268117 -0.17696234572308878 -0.21525455643506802
Ni 7.674566212388387 8.819329543046239 6.955511858010228 -0.23844256451575707 -0.051575043863814396 0.19300037302255793
Ni 7.08801248881569 0.5722293066875013 0.5843134204724577 -0.7378801249264906 0.37095233635242564 -1.0357398550583001
Ni 1.7687125361613165 6.649138463774306 9.065453659137678 0.2730953787029361 -0.2439979471163475 0.4629842026797059
Ni 0.11825735165830292 4.9895111087514366 1.2118417017537706 -0.1787790872168534 -0.8262841646931963 0.9072307197405926
Ni 6.216088325263124 2.1065430314341285 6.981373159713843 1.1013945169436323 -0.11053995243379672 -0.699873306665414
Ni 3.4173322047238517 4.398134197417659 0.18887693425431923 0.08918488379678835 0.3465952476642999 1.091002889296663
Ni 5.9459807953384125 5.699177826838733 4.781732687656219 0.6306581811223333 -0.9385925218813255 -0.07110771458010334
Ni 5.3425684528625 2.7115691133665516 9.32586703242783 -1.0328093116750665 -0.4902306971004848 -1.22333345524299
P 0.18857402003231497 5.540364227587915 12.294857339611818 0.33796071191775345 0.4113459096781238 -0.02648467655408987
P 4.106011294572279 6.341401054008944 12.52649205875072 -0.7243643498282428 -0.47388747985577095 1.4486633936361888
P 2.406725616257837 8.387721853211268 1.3551462731440527 0.37443720957723253 1.9238454239336675 0.035160864171849125
P 6.191566697767539 7.653948211622799 5.778547663716813 0.30714629764005813 0.4010522410615996 0.9722500620347708
P 4.633686066242894 1.201280272852639 12.563569300442298 0.14634770616102535 -0.46090058067779976 0.3626440735970464
P 3.810769096464593 6.045590891734999 8.285310701791564 0.8491811238960277 1.0053347604038816 -1.2552105064572447
P 4.713291202561281 0.9303072737222008 3.6748201117925636 -0.2192636775944611 0.3548888551316598 0.8469136680180899
P 0.3624918599839049 5.497045690780459 3.428525606451248 -1.3373569953500128 -0.7878040063401271 1.5585356305789997
Ni 1.6666322464067185 1.2949582990683086 2.3719382618397438 -0.7114579261792199 -1.2690620676283562 0.4538691277523151
Ni 1.8378599195771752 6.40502205593407 4.87020437568119 0.22107450555095476 -0.24372772417409638 -0.5369944356185848
Ni 6.021844580402878 5.625955525912578 9.055821708102279 -0.6362958390240849 0.020460581847197023 0.9030907294302898
Ni 8.742762564252121 2.3163652219974527 10.185838705637144 -0.7138068860273707 0.49002629439916257 0.4570153866907807
Ni 2.3709168278709023 5.006532003130725 7.037253621430253 -0.7599430182638008 0.052861880996037995 0.08102034570812498
Ni 0.5191814535590011 0.087198727068215 9.180869386903845 -0.19579181972476603 -0.5759345643272081 -0.30706916454521954
Ni 1.4539431890994257 1.0481733611770814 11.309481883084 -0.3029446008538847 1.2140707989941413 0.8726743219219616
Ni 4.0548494430879245 6.851441890612881 1.7028160714494682 0.8416418780961892 -0.23815357252042854 -1.2206052576785495
Ni 5.6002438782591195 7.990354288827853 8.28830648738597 -0.5074105513138809 -0.48009335155616667 -0.6663332659264395
Ni 5.297446855209778 2.853442955976117 4.680858645607103 -0.015330459709483274 -0.4952440911546761 0.5269591628697698
Ni 0.5825680575742426 7.492222669106881 6.873716904295267 0.5942143364730025 -0.10302924587904835 -0.2177834935045088
Ni 4.985697635063705 4.417030275076022 7.192015742961761 0.12204126820517693 0.4651827529929215 -0.48176328305942184
Ni 8.004183765511025 7.168059375041167 9.23426793536675 0.7466115912622174 0.3214719702341109 -0.46141917218543116
Ni 4.642773492903022 0.5784029870216837 10.424967847179381 -0.07022968285052422 -1.8315068249992457 -0.021058106221879862
Ni 7.969123247374874 7.289702874966875 4.576117939575319 0.3933337893714194 -1.1235072896822715 0.834809428555388
Ni 7.308283416977316 6.022998539343846 7.041871260254973 -1.24474817347334 0.6608974396228489 -0.7805064442374493
Ni 2.411314406109033 5.131303813622966 2.580535272558711 -0.12595474432697015 -0.21315936446893613 -0.022747320998844696
Ni 2.2925197423188415 5.365133759340974 11.474627832023382 -0.2735316949094063 -0.9129740499822728 -0.9245686967984077
Ni 1.0833961547893056 3.1805542545238374 3.8343062527386635 -0.9553280894684515 1.6069924405288065 -0.6117317765314755
Ni 3.6062569200905705 2.731826501963088 2.79347315226265 -0.048425956711871436 -0.4672823158344275 -0.8142382892722558
Ni 1.018242551145706 3.2383243240060824 8.35484754635 0.2511096184604643 0.3131588223827252 -1.5754072095233578
Ni 3.5628121690239443 2.571741744816361 6.939598944520354 0.6892749623242774 -0.3501863074496679 0.41885250246781414
Ni 4.1180106644975085 6.64129514909741 5.939590747702798 -0.5216621761368887 0.8662974718613402 1.0240076542230363
Ni 0.920615821678909 7.402664636922639 11.328271580152492 -0.6131471688217635 0.008856679059681521 0.27804603783999216
P 0.164694282197644 5.643057558029903 7.954358883643432 0.6756098061323591 -0.9417043280374299 0.7642992383499676
P 8.523916054158253 1.5398229771593304 7.952088830039245 -0.6142925952801163 0.8893394412824682 0.26784467182695804
P 1.8817554358551172 3.257148279230634 10.348345875029482 -0.35182615704593606 0.1723767832349354 0.9231232226011329
P 4.054569968656909 6.1169650552947585 3.7533028427347745 -1.0754955376896833 -1.0612940493783205 0.4327709123211192
P 6.748802651996251 3.8275646082382235 10.312601095302554 2.2290538811210645 1.273494392368097 0.7700811351390674
P 6.250598909841469 7.7671353561842205 10.434164359020647 -0.633222856525716 -0.12714825041443908 -0.7919499101877007
P 2.446996980236799 8.335252782614099 5.716136515618859 -0.22021807108793043 0.39112032665986834 0.6573161500294938
P 6.951223277789769 3.9424466299941923 1.5198306385070477 0.21061242967736635 0.4875181832653281 0.5780163865569012
Ni 5.343848626062637 2.974058711220025 0.3988866431455504 -0.17015637854484886 0.0688590277552427 -0.16884665859448986
Ni 1.5326377796909547 1.0259145750423024 6.94043015557002 -0.5061555958608573 0.08892391682591781 0.1396381553513337
Ni 6.9459583401215985 0.7228047209363087 9.413743710373865 0.24404191298040553 -0.14141170231198874 -1.3456508599276888
Ni 2.8699049014933737 1.5881810690292997 9.259905657525552 -0.5296943024127458 0.021897828514355837 -0.7612913047615791
Ni 6.149591441289803 1.9626858218947734 2.4698832315457295 1.2622504440231617 0.27792416755014715 0.20764126286418433
Ni 4.1268456626393 6.495175098197249 10.387626457073972 -0.08590672726614881 2.354677981581493 -0.8439959801506626
Ni 8.090829854430167 7.152571082380353 0.19080891395001917 -0.11972059049180027 -0.08677190347992153 0.6736287711465883
Ni 7.4897614910530965 3.7866261117465134 8.29899413054627 0.8613031039705424 -0.12796251878561835 -0.8838861314773808
Ni 3.1277786635829723 8.439902434073197 12.239636798164776 -0.33876752408976496 -0.28089353459111627 0.5930023184427723
Ni 9.07687875418369 4.86311654349846 10.115417459734106 0.2708142959782433 -0.29460317086772486 -0.15073246549228234
Ni 8.645478416345924 2.2136087844258805 5.792561052606201 -0.0960795540340926 0.5427009990850589 0.13443501388383944
Ni 3.785327907937923 2.867497815264947 11.554707173344074 -0.8841247298507483 -0.10621869935062353 -1.442793050898341
Ni 0.9991661674028172 3.4340646093678977 12.577331162343771 0.46015136121660105 -0.27842964643165596 -0.7541816902999915
Ni 3.0328294794713915 8.373585856184402 7.87367281234831 0.7602289249353359 -0.38614987002847045 0.521044854267864
Ni 5.563596666579137 7.751989645084007 3.5945830026479113 0.22462262791352927 1.1535544867766392 -0.03303944695347213
Ni 3.185134029070807 8.283667211831107 3.5565816922731357 -0.6058130970541954 0.3845367599050797 0.28457149766333567
Ni 3.6086640063189974 4.198526346542754 9.363353568931283 -0.8682659084416208 0.19949600804923062 0.1396929198486691
Ni 7.250937066793708 5.977308977524867 11.290864378326232 0.1343265133304332 0.5123784368421176 0.02132627228160198
Ni 0.5326593333773465 8.973878903398008 0.3320327531248671 0.6670678300996188 0.5629664342023143 0.13647261313915848
Ni 4.53497750026894 0.31925626397532925 1.4577755949260336 -0.6744497243859868 0.18994101737094385 -0.07609565471299796
Ni 6.178728904549263 5.642156027607272 0.27459985602068604 -1.279352650921087 0.6580368302456022 0.8824429712729512
Ni 7.926318582908316 8.670081181579546 11.435874645276131 0.09070517709605667 0.7499987625668955 0.2774749958278705
Ni 0.08162636752592789 4.865821134766355 5.884079913459668 0.11217620248563906 -0.8416513911778859 -0.837792422443112
Ni 7.856927786278347 8.71292190726301 2.701782099098461 0.2904546959169901 -0.27217698065372475 -0.7168911813796492
P 8.650770399926774 1.4833781573983535 3.5734051514898675 -0.16868442198501274 1.1546526049368244 -0.29230100509710955
P 1.9092250678327078 3.3069758656894934 1.4584490381517392 -0.6358988606959823 0.24992125457931796 0.29125070945572423
P 4.746161001770437 1.0148618120608368 8.045495495597704 -0.5622922909534253 -0.4965656381795771 1.3482985819631814
P 8.562041775731352 1.6390273848657329 12.375859848085286 -0.6131376557400665 -0.18336567814627128 0.10222629036177878
P 6.194911375635503 7.7832366895324245 1.4647687664143882 1.1991121208017799 -1.1224485094004542 -0.308527751368617
P 1.762176440597236 3.075120271597049 5.993861076084387 -1.2961566098523034 0.9957707708645303 0.24306386533785238
P 6.7336208796791315 4.049097678991534 5.929997562475574 1.0538429924169141 -0.4474315996570875 0.9476582316280195
P 2.365309308642132 8.550781660752682 10.172300423280483 1.3550688108074793 -0.5730397592779163 -1.1295013024821774
