# total energy = -381170.656917862 ev
CRYSTAL
PRIMVEC
9.24297996234478 0.00000000000000 0.00000000000000

0.00000000000000 9.24297996234478 0.00000000000000

0.00000000000000 0.00000000000000 13.52803546962001

PRIMCOORD
 96 1
Ni 2.083016475510258 6.3527926348850094 1.5965926332247553 -0.016923515228216016 -0.14134022564410498 1.1984778296518908
Ni 6.8174280002413035 8.640199128778839 12.968178333681621 -0.8631082755000813 1.74315523573703 0.8066085406411397
Ni 7.209903420157334 -0.13926028358784026 10.714975487552834 -0.15642565922231771 -0.09397587742752847 -1.0278969619751137
Ni 8.87839072529422 9.045864281260933 3.620588983768412 1.070310393944318 0.2758125205237831 0.35915122995243953
Ni 5.676724100328508 0.9067696200196491 9.19128593536632 0.39683717453898754 0.42947372962708613 0.42486477010016505
Ni 2.666433377801716 0.4938357880071049 5.812956383643999 -0.8261622944033513 -0.9026844951308067 0.10840876502340685
Ni 0.9637285604296757 9.166670030832373 9.793756316782993 0.08419848632579048 -0.7337388490646074 0.8131345146851157
Ni 5.252443585976721 4.278335158923578 4.027391022799649 -1.0565439362878448 -1.9785906379953473 -0.8685145341173172
Ni 3.6967021517864644 4.735391280618924 2.185562717944868 0.6724568623256741 -0.47882991146271087 -1.0738217495316862
Ni 4.586560815462127 4.901385959773745 8.796293651976049 -1.0498418416773212 -1.3564546354114124 -0.005950561156480075
Ni -0.2307352844894225 0.8718986290932393 12.035406362116877 1.1575466386551678 -2.543210805751001 0.8731682308392447
Ni 7.211770502132349 6.533363493617042 0.16099052974258068 0.3604308679958115 -1.4689110881416314 2.385371296900292
Ni 6.832179796439928 1.3090740249467185 3.9158522850507267 -0.7059195128594938 0.5910392811791305 -0.9406352633429672
Ni 1.961609932233986 3.2489814399661867 8.816654088483775 0.8053196466263872 -0.9436264847608071 -1.0032483101884981
Ni 6.2376620750792044 1.5347228975012392 12.006429619583868 -1.8675493204450997 -0.05641617400619962 0.08049815465606781
Ni 2.5456461141904234 4.640937267239386 13.338872671052503 0.8896063217906099 -0.06680497343969141 0.1650933621996447
Ni 7.67404890756969 4.120705376736021 -0.014547526338981707 -0.021580554384253155 0.322759835807599 -0.4597605535360856
Ni 1.8252390042173803 1.04862533241236 7.841850589329041 1.3155422134677666 0.9274555314278995 1.0651044242633463
Ni 6.340647359067345 6.076640119204372 2.7029283603271845 0.131224991586974 -1.2155599819451581 -0.7561352144819364
Ni 0.36898531035513893 5.273628496307077 12.537241949378313 0.5570469833940858 0.34647054916097747 1.4898660931267438
Ni 8.305852810550244 7.346302077114164 11.875964955834755 2.222527907077089 0.41178608253933596 -0.8947310446116848
Ni 0.6652681123396517 6.675132321997055 3.6232953283341747 -1.201191114817996 -0.5541472932487875 -0.03110006383891418
Ni 2.6976007066123433 5.161603577806245 7.503974377010062 -0.46539872565846946 0.8375327410238221 -0.580053214481272
Ni 9.085036030815926 2.307389816814522 7.089137415400214 -0.09223832591113146 -0.757863767137269 -0.6090557723612092
P 8.554304114948128 3.227010876329514 1.7898402391287263 0.3824605941023413 -0.6475215325365752 0.41149349099958166
Ni 8.08780166761682 2.698441817799107 11.448573254389949 0.1576212221923156 3.214961643148586 -0.2712506121847135
P 1.5071233589993018 7.100106059854416 13.317836572701344 -0.5490999606328673 -0.19800862487042675 -1.8606109414540535
Ni 1.8694296919527327 0.025303582251474884 13.619215029600834 0.1559320074153508 0.5625766549630634 -1.3163875921871975
P 7.615938291842402 8.9091790919218 1.5475798827846268 -0.7898524042287235 -0.05666479968189596 0.4987307641516959
P 4.748257508882387 2.0002733178848917 3.0135590402810735 -0.30101395949007514 0.5389554159996977 -0.040582549408052684
P 5.166982992209503 5.703759817045911 0.805246575479267 -0.06627686885036328 0.11736854531985592 0.30027759554468286
Ni 6.82509043072292 8.088864610325366 3.7145549678000256 -0.25042030570292356 0.3456115435947919 -2.31090829269471
Ni 6.344557139638785 5.97882166107778 9.44660015246939 1.2327514061227802 1.0773313053468412 -0.5730248468795809
Ni 8.712645606601406 1.6676739228903446 9.387442307099679 -0.9068687084154833 -1.0951781037202752 0.01590741525887583
Ni 4.37963822053819 7.681970141493387 9.486913410063561 0.2440545113858958 -2.055424199315634 0.39967721509094395
Ni 9.157103546455446 2.328417596483614 3.925091567933023 0.26781741813344845 -1.2294845624460502 0.22710502801575083
Ni 8.918754819278801 5.410609461008588 1.7768261231840752 -0.27991163029382116 0.6159208749121586 -0.22624936488367486
Ni 0.6955314776990099 1.0994802087813018 1.7025578539888584 -0.47183136865769065 1.801728822405865 1.0682920779627085
Ni 2.110514341231378 8.314374838178772 4.05424372851158 -0.993732914498895 -0.1922562957676818 -0.6740118655176199
Ni 2.7781163060397973 2.0961877221161727 12.190464747247756 -0.6797587953037261 -0.7756321468642835 -1.0041811064154125
Ni 0.7640977524863751 7.4477807553501885 6.034829498838158 0.9603854493867009 0.36973774721903424 0.06443210233214064
Ni 3.9984854512132086 6.907158850802861 3.0803340255300347 0.8633551014035648 -0.3834646098868234 1.078528410978736
Ni 4.206498717785916 2.0804376840695213 7.9299990417018735 -0.984573102376498 0.2996864989279032 -1.1770214595503279
Ni 4.414484255418399 5.302753126521278 11.255488324935286 -2.005977257538416 -2.1576152655641034 -0.9939717699825786
Ni 6.338613903450994 3.1062420986783703 9.746016324699099 1.9739896488882263 1.6981509031121982 -0.008098460737418312
Ni 4.629041551883729 3.8728918379632673 6.491942002711958 0.2450922086217908 0.9687466768672026 -0.19327933771555744
Ni 4.354977949699888 1.9037488769687052 5.1545465625194975 2.3099762677987443 0.4075077668789563 1.5067908939065404
Ni 6.502538155069165 0.5786752535133285 6.15390311394367 -0.09465104911768216 1.6278214614590159 0.6969903286906642
Ni 7.584114711446498 4.07019249062983 3.5471054435815055 0.3318026627361576 1.180423029032709 -0.39832275794557853
Ni 2.1383357112550994 4.285008590537241 10.855247877458813 0.022324888749445423 -0.023988135384481267 0.9693272319610208
Ni 1.4574515840798736 3.882190275918039 2.080219549739767 -0.1752859864619304 -0.5575198092654463 0.13329601518338977
Ni 2.277276187732368 7.889428829261634 7.9513327640114255 0.222258755667043 -0.5768434492947226 0.4894326266792216
Ni 5.4346412092018355 7.916344387238071 1.237611924502067 -0.22624987910430713 -1.7503504679338886 0.5884424669862317
Ni 2.2236946322415 1.3793853743721165 3.628773642624228 -0.9750412516266629 -1.3064358802911242 -1.1609937166635038
Ni 4.533617025596388 2.935136051542447 13.195827387124226 0.8985635309838975 0.8239560307806518 0.3120198236822755
Ni 5.66010522215487 0.8547039132609707 1.419063639235183 0.5516579511680306 1.924830413554756 1.3303815924734443
P 2.6036550571368937 6.07920042468496 9.596572125665366 0.7060706937253776 0.12467664894549496 -0.5946578517683243
Ni 4.250791078302086 2.6780887756754406 10.208851157536914 -1.9233211759990811 0.581930634009643 1.1141294480117976
P 8.591285278225506 5.9557234538720385 5.42042643014553 -0.20953179501867786 -1.7143370259537574 -0.35762270912305505
Ni 3.472985062067478 0.4125733557896455 9.691241500480636 -2.0708428478635494 1.7086798276679795 -0.4185180019465308
P 3.1071756396658774 5.349319260135732 4.387088062478097 -0.2711822208406233 0.9006250414986168 0.26191905037114244
P 4.715546602399346 9.012534095112914 11.299426679314609 0.8482264732922424 -0.024090465290300445 0.7512195223478739
P 5.5492264331832555 7.903515130894908 5.270143892819055 -2.0901939986966522 -0.6911276992623001 1.9590749365599232
Ni 7.29334904426835 2.985380891226484 5.54401893820938 -0.7682718498444704 -0.13156617697647663 0.9832947498847064
Ni 6.208029080960916 5.5084926199957 5.456113576212503 1.8058240755211608 2.279839596314364 0.4322140113763847
Ni 9.184647627076938 9.191626077033055 7.552824451000881 -1.9693786324787756 -1.437635932177434 0.3146048108006324
Ni 5.855427877085527 3.463779053913449 1.65823961312848 0.3613914321368679 0.2782864359855724 0.26316449274246934
Ni 6.973726793298156 4.569655404906184 7.410725648232217 -0.07565419630020519 -0.8361983384831148 1.1518310763276292
Ni 4.416314365473116 8.977087266527873 7.017398025553333 0.03207348349577702 1.0127986728810945 1.198238202837259
Ni 3.796064187585469 6.9239163736776135 12.92166858224562 1.4392626691475794 -0.7057544480365394 2.0960486577052158
Ni 3.345847871145123 7.182155993974209 5.732938056544544 0.020853703520557633 -0.9823416419428179 -0.4110538323590018
Ni 0.45009246050734963 6.074015112863263 10.370510879036877 2.703767970643189 1.8716684848197958 -2.1604763891619827
Ni 2.9112706769905374 2.258226405799182 1.141887925660317 0.8527233327213314 -0.7598980239584785 1.584533340194342
Ni 4.2691846086499945 9.179323670554126 4.084086538277557 1.317810697786969 -0.8221786271652549 -0.8978137973020667
Ni 9.04883127786479 3.857335902498176 9.102216882178084 -0.8930271745467006 1.7536175687209345 0.032479203574627934
Ni 5.13815413735768 6.864465525839549 7.320223008834453 -0.2062166146025158 -2.6817559851484716 -0.6671853295140897
Ni 8.415437582311453 6.492158288445697 7.828024939733865 0.6341276277281723 -0.9065437209758969 -0.4615891221043921
Ni 0.35991979549823994 8.141475652908431 1.4745825233496297 -0.23821476477566714 -2.0562243266194264 0.20774564965253256
Ni 7.910659954492361 5.171595239266591 10.943463803586189 -2.658514755232344 -2.424627414187437 0.8386156896753557
Ni 3.178503716899451 8.72021560728228 1.9500802388892717 -0.35593272301514184 0.9886827536694971 -0.7456466562457867
Ni 6.5243700740047235 8.335550505529053 8.22776441769031 1.775832414255077 -0.34260155312387447 0.15184215361669334
Ni 0.8861947463741994 4.399713973259626 4.302672849757285 0.1939611942739305 0.9922347326868137 -0.09479220268123675
Ni 7.713331572885576 1.6421817838453534 14.036960757040072 0.4251457916756936 0.045494384887373264 -0.3242690733632738
Ni 3.0642327542405585 3.2841232502087747 4.026633098433553 -0.08715242674779183 1.9355714541213436 -0.877417750144218
Ni 4.192680462574798 0.49935939289952214 13.362466301990226 -0.33677286225723935 -1.0651522467821464 -1.7561362213777303
Ni 2.5539370673170936 8.126465053267724 11.590509380709307 -0.9506293984412015 0.7895749821976209 -1.875101935981377
Ni 7.543833804282585 7.798043485266773 5.948209835369619 1.2235969933170217 -0.6779916761009743 0.26910168416251073
Ni 2.352606475338125 2.798820581406287 6.167092846509733 -0.5336232051535068 0.5293258633297336 1.2018066369148077
P 6.028844669240032 3.861495243531623 12.092034403840243 0.7137156118651451 0.4418739030636519 -1.6980783980030498
Ni 0.5612383716031124 4.350726178865699 6.544241556866517 -0.767333140080285 1.6627018182759685 1.2471377567514392
P 1.0526552717247664 2.272405137233198 10.980043821528342 -0.5162098947730658 0.0994852372815319 -1.0348430542756435
Ni 6.088249302177725 6.50370277055853 11.725736027792712 0.624471335585331 1.8867667739138152 0.13634457220172647
P 8.17418655939147 7.637918098459149 9.517784963511811 0.9922486166438848 0.2736103706661417 0.9877831246733633
P 6.933344213353426 2.2792541854682735 7.818839266135999 0.25186912233430814 0.07913624131153467 -0.8521430347378292
P 0.5309398829194718 0.48811623193711196 5.52616242500379 -0.3787687470730509 0.4785514609903436 -0.4886906063068745
Ni 0.9866419080339299 2.7578464507368006 13.510557328741077 -2.0318649239384556 0.3826349148966765 -0.8681676923008597
