# total energy = -340888.4668041134 ev
CRYSTAL
PRIMVEC
9.09430926310145 0.00000000000000 0.00000000000000

0.00000000000000 9.09430926310145 0.00000000000000

0.00000000000000 0.00000000000000 13.31044087341699

PRIMCOORD
 96 1
Ni 6.597939604029997 1.898937258642269 11.258835883914328 1.7183597739599052 1.3796534421253788 1.9908982517181064
Ni 4.936081895185603 0.5196579291495792 5.886555445687169 0.07048113673969797 -0.2786633597090169 -0.6950190638969063
Ni 2.4826373140597005 1.6264990341881305 4.574040169243355 1.2058880060730328 -0.18665180509671078 0.5717279824450283
Ni 3.1558708447834376 4.501601267175573 4.82880178466216 2.3242253215185906 0.7618595185602234 -0.1363384015541394
Ni 3.696527534164836 2.6834396639594695 2.3851108502875022 0.2648794185510471 0.5394863488025031 0.5925888850544374
Ni 5.281647460923439 4.548373300034926 2.622409572940114 -0.6614898217912092 0.4131515954282949 0.39845954063375894
Ni 5.36102259271353 4.553566150659598 11.616221323482089 -0.08538890708946584 0.06594956741793158 -0.0018879610513322326
Ni 5.745339010485918 7.721505143917537 12.409270560703083 -0.7235889051147989 1.4164693254021474 -1.6816806733713165
Ni 2.158907185011599 6.232448406560711 -0.006986248423596136 -0.2674728903098362 0.6597777241961088 1.7587921709433385
Ni 2.75057385539788 1.7019908958963725 0.3208717876272005 0.9832515553515969 0.7636749745024073 -0.4024033557728554
Ni 8.062005179361254 9.026611286554134 7.483183311465844 -0.9767795744740081 -0.4528697399535233 -3.5079771578142167
Ni 8.853410165456259 2.567532691610169 1.1039263788998337 0.011334708286528867 -0.21384944855742527 0.014688198139794056
Ni 6.900325389091923 1.040825513647137 4.503214597649858 0.7219770805429889 -0.3051734901844035 0.08676650416328283
Ni 0.8566393763153871 7.626924326935761 2.347163025766363 0.378031097576078 0.16768143464179508 -0.7096059605721456
Ni 7.502541458295402 4.203253355454023 3.5801221936645162 1.4952119308196894 -1.4958557350512753 0.2664035685050573
Ni 7.602915350317311 4.152534392347546 12.67646500640033 1.1303798484323888 -0.15298243786872362 -1.159550556459074
Ni 8.083622352627184 7.222755031906525 8.82025686081135 -0.18236526190621496 -0.7487209242957363 1.3627916333730337
Ni 7.0757818989024415 0.6029199687452472 0.09862141861494868 0.1385644626711807 0.2493458416918222 0.4600030085641949
Ni 2.0963656197824 6.679997557071013 9.067990393983662 0.18671788244795584 1.0073160524999685 -0.3350263118797778
Ni 0.18137781461213706 5.099361124809718 1.0411065278052847 -0.10562528874099875 -0.24068405225176617 0.5172738172612059
Ni 6.550239951619477 2.3032884398580094 6.659439870841464 1.1234838926435038 -1.0355552498513196 1.8580766050679742
Ni 4.0622279007486 4.348571324160925 0.46501113384556103 -1.7454455744331037 0.2450436147720425 0.21199876850193164
Ni 6.053672473846506 5.738172694737684 4.859642406445678 -0.566574977489179 -0.3687890101525197 -0.2538365304733241
Ni 5.318843186063388 3.194776300076518 9.68775120473726 0.4558694460117956 -1.6071901583619095 -1.248786862319088
P 0.19803495157211973 5.782743904740346 12.235129997451919 0.6363331200199235 -0.9658516147075947 -0.16720449500537654
P 4.050068809180847 6.097616176505731 12.438034951667666 1.046830565654823 0.9107582732778767 -0.931713535373305
P 2.461929571726287 8.587929087635876 1.0828148492323826 0.6156825336491074 -0.6954751775977184 1.1983233063518974
P 6.803807484223887 8.257269094881993 5.767427268974893 -0.8065172664789142 -0.4010447848624319 0.13561797844834708
P 4.9487957396221915 0.863479206358848 12.512120833154237 1.1243267002597732 1.125650047056887 0.4647788326862834
P 4.128570887275721 6.279766097979575 8.126783035253512 0.3086053986840879 0.8096781807053991 -0.807674520011809
P 4.5129418709040605 1.064161511375525 3.5632049594578334 1.0176014935863764 0.2499204832483696 0.930989512723087
P 0.15119653025469304 5.760144546067297 3.286295063108508 0.9045459738195777 -0.394874651495978 0.6163625904352675
Ni 0.6324482816931439 9.307661821939211 4.277882167207306 -0.9418346829677069 -0.8491333013772279 0.7979344099059097
Ni 1.7089571368394532 6.885392533179992 4.889404443143232 0.6016386539615316 -1.1965243054699457 -1.6527395648569345
Ni 5.864674537450808 5.491644157550956 9.262363067190535 0.16626038592455236 1.8750592556688996 -0.01892409059801257
Ni 8.994308299831129 2.476316769078707 10.212395543689832 0.19223881226618506 -0.0177498677842533 -0.4341999314581619
Ni 2.4625661733790487 5.353274241168484 7.009677183279641 -0.26266081363317345 0.11966813998731005 -0.5977076943382416
Ni 0.5158628738681855 -0.013576894391547346 9.153896149300156 0.8882042992367605 0.35991664736355433 1.0238821843887658
Ni 1.6983804550942796 1.0855240439803509 11.524606160771253 0.36488633266400383 0.6240265347384285 -2.5036091321989784
Ni 4.293241546226587 6.855526821356132 1.6634992316775874 -0.12762287605801245 0.13473891827750345 -0.38984505949187054
Ni 5.728514538234353 8.060950239479533 7.843483477172322 0.35902524589753654 -0.3788921600247926 0.4232557737418323
Ni 5.393198259105983 2.9582060316008523 4.75024332184947 -0.7756270046579611 0.5159741246131759 -0.9932264071761219
Ni 0.8974610025832809 7.57354073119701 7.001984307021479 -0.20930785193332985 0.4558167383969892 -0.016691344612751898
Ni 5.355265894910697 4.430492862562063 7.1917106975941225 0.017268300162144454 0.43579478674910754 -1.0354912293826037
Ni 1.1881987962615281 7.5104626017176255 11.376247964456942 0.719282050209329 1.0553337180298275 -0.28284808721432575
Ni 4.96149139544013 0.6800997342642409 10.235183154565911 -2.036760818578176 -1.2300604895541782 -0.39320240599987766
Ni 8.366900993796927 7.056720226556884 4.792144442634262 -0.35307674162358543 1.337765029421709 -1.2342220771310357
Ni 7.469501832517057 6.205129101347899 6.753531413981545 -0.6828065809911144 -0.07990860070118495 0.9180702335582577
Ni 2.28281714956705 5.5440455678825895 2.496692569121752 0.5406166057522045 0.5882797161561223 0.1400096797581395
Ni 2.285499970817975 5.532941416196557 11.027686733227394 1.79166629596354 -1.9559214785326058 0.40803330036512314
Ni 1.4218406971344888 3.6574765699225527 3.7130009660764505 -2.321866591478427 -0.77321762388552 -1.148255700271545
Ni 1.5655035015442103 1.2763681251690582 2.3096808298826716 -0.4483697952006407 -0.02251720726590961 0.44020320022944837
Ni 1.064325208943378 3.3742252116807863 8.226691298637972 0.23286172799386992 1.305297910031939 -1.2817034105414506
Ni 3.8375257059422827 2.4969244740095435 6.620626268072568 -0.5006801745685828 0.7369475858098922 0.5279359249607424
Ni 4.163765864364131 7.227202149166534 5.801635513501523 0.36698743816740664 -0.7383755765056703 0.19281113982988732
Ni 0.7443828597292099 0.3250706302426318 0.14268789445006333 -1.2732802194747619 -0.7973777660714912 1.1270394712052463
P 0.44083664079739227 5.747867228478316 8.059458772750206 -0.5778605777053274 -1.0526237752978322 -0.499922727577268
P 8.587456183550966 1.9024658506604353 8.055412714531437 -0.20680719699866318 0.9411361142387855 -0.8084350523269174
P 2.141800789170953 3.347851714637791 10.27499531249871 -0.9013040698435122 0.9862134661933981 1.0508003489358482
P 4.137246858371934 6.266724858407279 3.799199558153216 -0.264985348001292 -0.3969518457399809 -0.21750889968688347
P 7.210341299677667 4.146859543328639 10.338152562469224 -0.7883981882807003 -0.7143239348731053 1.0825714706998582
P 6.505814250566018 8.164598082858504 10.106351349803678 0.194348145299704 -1.1055003115818898 0.5545869518893675
P 2.447214979238161 8.702517385133026 5.6149829994807865 -0.4091460738133276 1.1354798886631154 0.9924759021633422
P 7.02081589334111 3.9196655077672244 1.4523684746772219 -0.20527224841137554 0.6255499133614905 -0.4924631859754293
Ni 5.6835886501680095 2.7826585786970823 0.10308854335547253 -0.3716357355726954 -0.6293672302250516 -0.25916154223066334
Ni 1.1436912464241429 1.0296849847238028 7.042687707268145 1.812236406805408 0.03178500572108074 -1.0104610258868532
Ni 7.096889790846163 1.035932775230195 9.230324724868892 -1.03596765479839 -0.05531419919127248 -0.11144009565056291
Ni 2.7820947315189217 1.9240102694517647 8.886981808330127 1.3029332664545044 -2.5169914670431552 0.20230159581882579
Ni 6.149599248608406 1.9451818215607621 2.3253339550931553 1.1623348040724304 0.3284211478584344 0.18444271326053396
Ni 4.2076459068580805 7.306868298855029 10.25927488939922 0.4028748960926352 -0.13938001659394061 -0.03168036182241641
Ni 8.460035815596 7.48674464299758 -0.0812285520305597 -0.8188045684866996 -0.43172190223131457 1.4114741861804014
Ni 7.758046078786073 4.2049085197512035 8.24501996965192 0.20731344721112036 -0.452571234876498 -1.0598953692585813
Ni 3.3513894009652825 8.623178630580236 12.335783994201043 -0.6504448768309572 -1.282443888251901 -0.07531763889639287
Ni 0.15903218716926013 4.8522687404448295 10.135501339483648 0.3912717646360681 0.8333133036258358 0.15040439272890224
Ni 9.014024762448098 2.378734830019625 5.497238976647801 -1.043829831155286 0.8144082391912167 -0.36594254184266006
Ni 3.807559956715845 2.519423795280016 11.476062556455354 0.10421915242209148 0.5962388231021989 0.19410723293349152
Ni 1.360063053888604 3.546198601019764 12.430714032660905 -0.4106576253618476 0.19372208167993088 0.002090821090757689
Ni 3.3967518158792336 8.673688424572235 7.618656690328248 -0.9465128051696666 0.3306186697303855 1.3615312786033713
Ni 5.797394837063195 7.885311843482512 3.692023122756079 -0.20090651524351205 0.737181299087253 -0.22179287177421803
Ni 3.18874677299393 8.388600015846784 3.5406437968839497 0.09734479389976139 0.06264004342872438 -0.7542580520638816
Ni 3.52707326850893 4.292577661645849 8.832422318395631 -0.5116780683409833 0.20234967544794183 0.6664330247290974
Ni 7.463899737972751 6.354375811683275 11.132613236497486 -0.5828503176104348 -0.37541320033725667 0.17099687216827325
Ni 7.917660301752144 -0.2653692178156836 2.605199501973161 -0.39549917245385435 0.5979385794021251 -0.6112820905885665
Ni 4.577002185790563 0.24730064404843446 1.426719794087443 0.06383226396461264 -0.1713712247885565 -0.5009270004720664
Ni 6.066122583312664 5.8357273508687895 0.29454103383803365 0.330561848350521 -1.5196268693289443 0.32471695953396984
Ni 8.498413800948219 8.824753996772646 11.250916559353968 -2.3348838296737013 1.1126271524346583 -0.5461449917696013
Ni 0.3443778489399692 5.193459943397259 5.827976271030947 -0.23749485589050712 -1.941477535193134 -0.16980413741175274
Ni 7.277448208188102 6.185585430608107 2.350584304934492 0.4436523351203133 0.639127394935609 0.29704160510588845
P 8.62467919161889 1.9566861228571033 3.293215832504963 -0.0797345370171659 -0.8710249592439967 0.007022711174736293
P 2.0565871107941036 3.7084501736901347 1.3709489421508334 -0.6974909224761664 -0.9549018005643104 -0.8671739609290227
P 5.063829658276276 1.3668383143358565 8.147639924259858 -0.6283932963475566 0.2783681970661012 -0.8822082295543259
P 8.773080131187026 1.7084569498265687 12.146522322834914 -1.138394234096433 0.3434821559566149 1.944415791885851
P 6.454958872819663 7.833919901485972 1.1682349684309135 0.2411666483151395 0.388694233716879 1.0481055757125046
P 1.8304934866610345 3.266785041313219 5.986078110356242 0.2281095580208652 0.01682992707314521 0.7388849120419211
P 7.257195181320946 4.099269022630021 5.75130851512696 -0.3611685174927844 0.6966596848241227 0.8712931253037188
P 2.5111025022474847 8.813304261332256 9.816211052248093 0.7695496881156295 -0.007904599559057354 0.8157773516246014
