# total energy = -381167.2360357461 ev
CRYSTAL
PRIMVEC
9.22894734082360 0.00000000000000 0.00000000000000
0.00000000000000 9.22894734082360 0.00000000000000
0.00000000000000 0.00000000000000 13.50749730958352
PRIMCOORD
 96 1
Ni 7.200055567006112 5.8508849824016 1.54294802349366 0.7933352205710015 0.47110323224241446 -1.153841936110071
Ni 6.53951211810162 9.008052498218085 1.5945867526185438 -1.32450302220548 -1.3646250870373464 -0.2656468928446909
Ni 6.248597239636733 6.322207323725178 8.132674844143578 -0.5950802840177235 0.03551310530494529 -0.21193012004752532
Ni 0.7434138587670518 1.6528583262061112 6.885527503843544 -0.0786706145290258 0.47336657435529433 -2.6057914566966995
Ni 5.869259816581652 3.138174342163775 6.750371415646649 -1.6153320707427534 -0.7350963915337663 -0.926664660095488
Ni 8.832111845878302 8.6170035409719 2.477410321417543 0.11128377257835673 -0.16949869035619194 0.06658205879560791
Ni 2.5709078641572147 5.719557061566775 7.609583645537439 -0.7123588407269346 1.6904175390236824 0.8438633112275402
Ni 5.511748854016687 7.604689534756082 10.943477197113458 -2.367398514471955 0.7607197485288253 -0.12468899024066911
Ni 6.487599289240349 3.8338247067995157 13.085576788823952 1.140921885614293 0.16625370105633303 0.47497454227236263
Ni 2.77209891645512 0.5016348189048833 4.961573463613361 -0.8788421412955703 1.4337741352291824 1.5670526669110754
Ni 8.123522497053495 0.3508181299444857 11.396842775572077 2.137505896408738 -0.2186126742740235 -0.6045090335307912
Ni 7.008324185745151 1.3503334319710052 7.487381307845373 0.7452658758676004 -2.1521431867059384 0.3726382086952808
Ni 0.15461624658567502 4.739830468454804 1.896533914749345 0.46097308578694807 0.27275753574754313 -0.47956858940094826
Ni 1.710123944532189 5.449822617277286 12.126909730677054 -0.6599754420292119 -0.28083388499777445 -0.7161231928653731
Ni 8.206389215337113 0.6102650666194575 5.5868088057343055 -0.13136228849578666 1.1742436396948743 -2.5660568571112385
Ni 3.3932624470038704 9.11928900066518 12.157787942731106 -1.5197315132276086 -2.494110448679924 -0.06637148544669859
Ni -0.02780404969072923 8.77660895649667 7.291603956064807 -0.20467215293353141 0.737921005466755 0.2252944571695733
Ni 2.5041364300574287 4.0404977538251705 9.248624391766468 0.9714800166379657 -0.8867984200281696 -0.5629353238540628
Ni 6.7890720834772 5.507143609287482 10.256012908779928 -0.4225404928423626 -4.170223655265792 0.25401959301840765
Ni 7.543353950647281 8.317921044099506 13.072502139108796 -0.6986278642940872 -0.9860576573418245 0.49725263694427274
Ni 5.993121519007807 5.113510546782427 3.3797383475526157 1.4201930541106382 -1.395411219180268 0.7501152335401018
Ni 4.714312429023442 0.5126126517814135 7.78241229682975 -0.21149791760611317 -1.4931820448738544 -1.0765962269530298
Ni 0.5291629230697544 7.8127930686214695 5.144100815679061 0.4975796812663882 0.4705851549554153 -0.5173332097442316
Ni 5.021091867988334 6.7348612467250035 1.4290120539457802 2.1876454933776066 0.6283300472097888 -0.8978158541845958
P 1.476686950182501 6.0327413899947295 5.9060583983627275 2.5466159747778074 1.1137751499961719 -0.30074065122403043
Ni 6.523379918128375 2.707311706036253 4.260967154248997 0.35064216404016385 0.895256835208168 0.16260633411173286
P 8.301253565179781 4.241273503492185 11.822045298287936 -0.18913163409577105 1.309502949252222 -0.16986918632173326
Ni 2.336298793493681 3.846763690988583 2.413533085207694 0.3183393381424001 -0.9005651347949587 -0.7455502398772386
P 0.6822204004474882 1.2304863216434552 4.135361180773103 0.0666296242040917 -1.5868072238301831 -0.4301255042784721
P 5.0344369258609385 8.388762443982017 13.19989114521331 2.134369150551969 -0.7483717684864337 1.0531562507625347
P 4.36809769801869 8.262067454718455 5.8313888311181445 -0.6765760267003703 -0.5540213091938846 0.9553108630772709
Ni 3.8718571988417025 7.30955702735082 8.810468118545778 0.06735878906063239 0.5665050434831922 0.3507856315965636
Ni 0.3528724936252891 3.037431152857173 8.764285543096056 -1.0310005406011018 1.0674441281401164 0.42106365118652
Ni 6.682117812601952 1.4344276002525882 12.685633895013572 0.5014293940297816 0.21440686372279205 0.9028873551702321
Ni 3.081656268573299 2.625155616698824 7.004745199961613 0.6737735242545686 -0.9410780073073406 0.010732041705523453
Ni 2.0052472229900973 3.556310259891351 0.008649369459339275 0.9031619489878574 -0.12641754289600166 0.38959977625028386
Ni 7.68056071094604 7.2521622037618 10.69422363279 2.3809497707938285 3.2297989652717343 0.16557930069712776
Ni 0.7215864753821999 3.2527055788159305 4.583161703977797 0.046218921758223626 0.3843002184142414 -0.9667119058253608
Ni 4.411556811104508 3.047961381787077 3.1161254640424483 -0.39733031212532216 0.6359240575069629 0.4904698096944844
Ni 5.088804654718138 4.426027800554192 1.3623522901089666 0.23789491954240316 -0.94151303796223 -2.0946417500553607
Ni 1.1956562743327996 3.992728722325448 6.91891875826185 0.11595212458830355 0.9281199044847757 -0.7194921093376061
Ni 0.5855111840289327 8.278725704690828 0.3184134499982287 1.1489283008585374 -1.9038247578373664 0.10923588891039251
Ni 3.608979862435578 0.3440339307452109 9.911828546192861 1.6348577994805071 -0.4688517172040764 -1.1384397426223878
Ni 5.670754387963504 0.7173107040735017 5.373039621088841 1.2375246591417075 -1.4922312509248106 0.7049772035508826
Ni 4.4345922636978825 5.344751051662073 10.104621256399431 -0.5080607833033702 -0.2991717640750138 0.019605690046069463
Ni 1.473622939661267 1.015018087790282 13.219881968074892 1.348247931230904 1.5212695471386897 -0.848175565449649
Ni 7.196253240696629 7.736700397695038 6.113020311440534 -0.5136940703297476 -0.3934006380536128 -0.5010936079569177
Ni 4.578813023985009 2.5074219353151377 8.825812166415067 0.29334872963533354 0.8429647106726708 0.7621469678936552
Ni 5.548627727639734 1.9052792652611565 1.4919027156835818 1.7961312737134294 0.37605597612757813 -0.5594501935189398
Ni 1.1200158218266698 8.333047288811262 9.379349662339132 0.8094326403534963 -1.730322859859052 -1.3958719608667702
Ni 3.81478538841004 5.544354725015242 2.8400322750266627 -2.141866230259963 0.5568898889909312 1.5382830509775507
Ni 1.648336142003085 1.0953007008150282 8.781615660435735 2.1842207839667735 1.535511915990317 0.578309492317288
Ni 3.5507267467427166 2.8391749058175586 10.932536280026339 -1.371256219200619 -1.0954845792171004 -0.2920963452854711
Ni 1.1456630665209762 3.3647265417880394 11.274275894459565 -0.2946216828104862 -1.2043492008310033 -0.6356335228497375
Ni 6.184289934480229 0.6415705789359585 10.143185335809157 -0.21371086609703194 0.4614482256511536 -1.161903630072283
Ni 5.277924243878168 7.157214793392954 3.8214329991884886 1.8825766470918672 2.2864740709117464 0.5005860721928798
P 8.011086231450497 4.8250874841028795 7.87645157877905 0.08604273862338084 -0.6650999077399706 -0.07575652620602437
Ni 4.471720318899464 1.6373721525475844 12.911992286743422 -0.8477577611859399 1.8037098573916355 0.4854967819599251
P 3.46721400214438 1.6577219814612028 1.5133120277533374 -1.7499738013207604 0.12385235327198668 0.035485080280487274
Ni 0.9112155024361221 5.612113656481811 9.529391119721868 -0.38456272804700864 0.49376313573377534 0.6766886410188346
P 4.4484541426222615 2.3577930118790857 5.1232720043978155 -0.9550815206752841 0.37229933729862336 0.7110948864128463
P 8.653125640911993 0.7792249431813436 0.5011336870636092 -1.6967080000180843 0.05213400169107796 0.9707629359662828
P 7.106649390845237 8.618683209390168 3.8675205164804733 -0.18670991202815587 -0.36062138674006283 0.3116120467208956
Ni 3.284628507710355 7.984414573599993 1.28095758892817 -0.8888172502304112 1.1775490499190235 -0.5594059705445656
Ni 3.123481857977616 7.596272734770041 4.169197270453829 -2.094303907099967 -0.21141358542242297 -1.032410790685067
Ni 3.529361733620256 6.51136382867462 12.877129015222293 1.9528801206031203 1.5575293008016724 -0.41562936754482616
Ni 2.9494700556346345 3.8914779409144242 4.959358516248613 0.2951670137909949 -0.08952478363471034 0.006475323311698526
Ni 7.433566392934626 3.4511279469079006 1.8401533524744307 -0.6212548855305623 0.3541869439686287 0.5137264662295797
Ni 1.913511486300135 9.088132074401063 2.69954093236493 -0.025303254651479007 2.7287166701687267 0.6075143960160183
Ni 1.5678689500312764 5.445226601495435 3.838060793634596 -0.4154912993050651 0.5990238420465038 1.5265953302269772
Ni 5.775862869368129 3.179621544726614 11.011595134632062 1.0724768054680174 -0.8014028280704844 -0.9824241743542953
Ni 4.545561126671736 4.89616883661657 7.478128365229141 0.9611868622420736 -1.4793361401296976 1.041082350317136
Ni 8.779792943333494 5.5146467434855655 5.784288898301522 -1.6678982748752438 0.48187461182630553 -0.028766016389098845
Ni 7.707666129322138 1.3352441030486624 2.7799776688104734 0.6099875401468592 0.6336260055014056 0.5184164155060814
Ni 6.919652459576423 3.1737242473679736 8.842048653493402 -0.46898721434067614 1.5352362937314268 -0.48128197254762917
Ni 3.9955158644260886 5.910614729670959 5.480977697751932 0.24399306202034107 0.5966237172454434 0.2695356863761358
Ni 8.621091964649331 6.897696793823362 8.14807334280225 0.21965885615035072 -1.8074688102134353 0.8926543645883143
Ni 1.2969808873226478 6.997701667341715 2.272528613073128 0.05227618369589707 -0.8435792043282182 -1.4582536084277855
Ni 8.528433333224058 6.451283381405842 3.4762085342347255 -1.1413029231027956 0.5989896463744587 0.5080366149336542
Ni 2.2273141542007475 8.489459488551853 7.2228639874946 1.6237784017378938 -0.22671987676219016 -0.968413719007816
Ni 8.181360310115465 2.5405815431548793 10.48062887524951 -0.6166495255480671 0.9411019185667406 3.2748899440731023
Ni 8.880536132640097 6.261683886983449 12.84280656001606 -1.6484321957308319 -1.3596908829605228 0.5307541111358278
Ni 8.658755298797393 0.821595040479494 9.27147895699172 -0.8157992060014725 -1.5905450936060606 -1.6450725352299795
Ni 4.335076524389245 4.3754439401117695 12.334924666647854 -0.40886222402432165 0.555657559245727 1.52039022985753
Ni 0.7101924169800442 2.3268391224567386 1.7667130810172837 0.017922903027007844 -1.5356612970839874 1.9911612755715062
Ni 4.360760684872964 0.5955209003281211 3.2928708805914217 0.3841045574636675 -0.6161713003600678 -1.0781466021592852
Ni 8.243055823171039 3.256277181441586 6.086477858852976 -1.4646821376619485 -0.7524276837233622 0.8469422072631801
Ni 6.442340531420673 5.140874375684413 5.782289908304839 -0.35736328481408136 0.7193576406422708 -0.04277775728715859
P 2.0266583808493235 1.1577991322903223 10.973585714958258 -1.331480739074894 1.3492812575914246 0.8704379763922752
Ni 0.6519097686556531 7.564211371665319 11.259633246589114 0.6478537190650133 -0.03828141207870181 2.443945912010391
P 2.7829521585423826 6.829411812357665 10.765732285566141 0.09000429437429014 0.13564780324501802 -1.1871179245543813
Ni 8.902667148392867 2.7934454716828743 13.373003125189364 -1.064351862368038 0.8957980524236184 -1.6081923743741786
P 8.099111931304506 4.398710116388973 3.884107703558227 -0.5372638872298876 -0.9312908460135898 -0.028053306592790397
P 2.3479641829480187 5.617964809103686 0.8880859145797456 -0.5628713033853466 -0.611266921079915 0.8347875741785172
P 7.015458162049109 8.321566478303987 8.415521776832373 -0.3256258445014844 1.8091775653744262 0.6283295329891565
Ni 6.26280981856053 6.4027852630652236 12.804148345343332 -0.36674266914645226 -1.1022632927018305 0.1434269329698046
