# total energy = -340872.1774615571 ev
CRYSTAL
PRIMVEC
9.23456554338408 0.00000000000000 0.00000000000000
0.00000000000000 9.23456554338408 0.00000000000000
0.00000000000000 0.00000000000000 13.51572011693297
PRIMCOORD
 96 1
Ni 5.507356421778045 7.886910058115888 11.46261513327534 0.3766553002744739 -0.47940918100494856 -0.4882368065989075
Ni 5.7402983397326395 8.883024183226938 4.437495055565491 0.14484078259819572 -0.1876607059771994 -0.0909175502171789
Ni 8.22656661646229 0.46080297790091984 4.135094428786822 -0.33715698506953545 -0.19315078255749316 -0.5339157966932611
Ni 1.0056811351011783 5.594216746070647 10.297100289379646 -1.1362157383878753 1.2005293128642807 1.435082826738277
Ni 4.084706944896734 4.78615531539874 0.2835381030278647 -3.329262348176395 -0.31176785557246955 0.1307079427412394
Ni 4.662920037099272 0.6811424841436164 12.28600594288896 0.7119801172312771 0.5139534946387213 -0.5761829328925884
Ni 3.199970915819395 6.284048033013213 9.805087250027341 0.8572932114802011 -0.277242053881458 0.8584718051693344
Ni 1.1335798690425516 0.9832226714950107 10.045707709301233 0.12895856415030046 -0.16190416583838568 0.7755483289012256
Ni 8.333096565541544 8.893486946082938 10.53838286700903 -0.5572670698246919 -0.6463190275880417 -3.033546403860466
Ni 6.651786905432951 1.9714966503882836 13.590597038961597 0.5216063831982888 -1.1652859162809546 -1.5418376010980286
Ni 4.944269548073411 5.5856655382995495 6.232233808733672 0.07060377836049131 -0.529864509442023 -0.03918284084704864
Ni 1.9537662843834147 3.9504640643692435 13.428827765211548 -2.0772834612825712 -0.3496759434721526 -0.8138698501892435
Ni 0.7788238724385665 8.248147796333841 2.3915530309142636 -0.23445015552691237 -0.026182829042954905 0.4112047561145692
Ni 1.0357119425219252 6.195820993007735 5.854199319095794 0.3511224461106921 -1.3229984126354957 -0.3002883941779602
Ni 2.6415752014535494 2.0531117414044466 12.090095556557348 -0.20450194590425427 0.123167154279504 1.0525376433419293
Ni 0.1306607925205693 7.86277090356551 0.13761996117748043 -0.3127330476992162 0.8091349066074194 0.2269268505666737
Ni 3.8683226031123112 8.018364099823863 13.324472556337579 -0.3414031619403991 -1.253665273457312 0.7757738146484704
Ni 9.031238961548892 3.6670367761289095 3.8463711171590957 -0.7791836116609677 0.6349832908602484 1.4574689077429608
Ni 7.787730823276151 2.256419938260279 10.86447661881827 1.1292218235685454 -0.10433845160877514 0.9328057399962193
Ni 8.276082357357136 2.2968396320120035 5.90869433777701 -1.3693173503066933 1.0324681262855637 -0.1461507596588709
Ni 5.092161116598399 3.0555146057078497 11.57959306990559 -1.852523279349913 -1.7835174416041606 1.2167267485597497
Ni 2.456459098883963 0.9484637664729653 7.986384799055706 -0.17887936024014353 1.252745332746204 0.6996935865544401
Ni 8.582235911606837 7.824696789483179 7.433308194491321 -1.4025324036060813 -1.394943792625546 -0.8997035581256118
Ni 2.1581641599832957 6.351488065791109 0.8464412088765105 -0.8739344195813078 0.04995113510714624 0.3964612792568076
P 2.6910355349546315 3.990606721152143 1.9326126649004178 0.22198827561447573 0.41067819418713786 1.0903799110006833
P 0.7799080104432393 1.7064923205748839 4.597764635857629 -0.5182153552388687 0.6667055616641938 -0.20964209534429698
P 2.903485951781725 3.969708899137029 10.818265928961516 0.3290212433362785 0.6584988574836853 0.38287839836605025
P 0.34481406324937963 2.3056217039237903 8.600025378831722 -1.0405979544815498 -0.05489279538313772 -0.4444120961044733
P 4.692184375572934 1.5985771866514984 4.3492504698853205 0.7424302061910182 2.069849887822661 -2.657995135283448
P 7.1766796157020964 9.186758281282225 6.333709680044976 0.7724226387880504 -0.836302982381779 -0.2382792994650154
P 7.094815191413989 0.2558676505815159 12.033883832125973 -1.7394942419456751 1.0035843533716782 0.41028250141061606
P 8.113369310999953 -0.3101225705564153 1.5911923045191576 -0.5889726284580888 1.847443293723844 0.8109174524291389
Ni 7.586592749342791 7.332300515657332 5.028063996577672 0.6023079121144144 1.0324457576880606 0.613222502144389
Ni 6.75931418759998 5.30870244599849 4.501369622554595 -0.1835294574176452 -1.3771563867351377 -0.9592485075687802
Ni 6.502888769254561 8.352101301603012 0.2868117565428262 0.07475919528976156 -0.35472764696344716 -0.8622873222606827
Ni 6.246149375677805 8.35728189292006 8.913847316378527 2.1603869147719696 -0.8874643357469425 0.054280872830751684
Ni 2.66495712162247 6.052823744265339 12.107016974613241 -0.4922523555162039 -0.2977993092075194 -0.4351409552151926
Ni 2.4991597303456894 0.7720410839851414 3.853142824133768 -0.19148136527487022 -1.151470864774733 -0.49893131019827625
Ni 5.869249814155552 1.6060756539410572 6.252034564352234 -0.4929720072910478 0.24346007233500652 0.033478334263103635
Ni 6.111112322506347 4.269398257447454 0.023136280723228642 2.220017481950409 -2.2577813309627435 0.07504073108592237
Ni 1.921537650343314 0.47534095456834974 0.5610700445715799 -1.4600189278583242 -0.5417862005802734 -1.4170390818626886
Ni 0.4754453051599409 5.686146846892769 8.029243341589662 -0.4631520957161378 -0.00120301916916567 -0.6547087943136337
Ni 0.725982764461243 8.127461258147573 4.739922462584481 0.5047371182467759 2.936132447285666 1.235622299912672
Ni 0.4330401797982957 4.627089922464433 1.729296156935521 -0.13762035359035654 1.0977643763902127 0.03484333293143032
Ni 0.11209469832640823 0.5598095263634213 6.975801033062869 1.4165595711231087 1.5151063557507713 -0.14122401178121485
Ni 8.194421093512837 2.616891207531146 1.7406223516776937 -0.43357361072807266 -0.057859591320945515 -0.2671077936609335
Ni 5.131758934009274 7.958819620657511 6.792541078184417 1.0603319425753674 1.478163202867519 -1.0636208977392843
Ni 0.04414491752587299 0.6208269187473653 12.348150875736026 0.32435057733348654 2.68830304223837 1.286920693076332
Ni 3.933629451230246 8.505339683626344 9.1563054542123 -0.37050265040951674 -0.03821790583061805 -0.6587395127395816
Ni 1.8738688225739732 3.875774897573733 8.73691303895494 0.4522531894154469 -0.3909583471607073 0.5625059496261281
Ni 7.398263017934822 1.3045486170707528 8.31362733082901 2.0191492761439997 0.44855825706236296 -1.6511650212809628
Ni 5.042589968309787 8.30282565941448 2.0393873299688026 -1.4910372306167095 0.19038607532816243 1.1879656172666573
Ni 6.311410050967603 1.1950913106875687 2.2597739324962 0.6348197686991905 -2.937838888453811 0.3033066121789938
Ni 3.0563180129174454 6.007796002265474 3.117441602806106 -1.0969609066523107 0.2771278969010969 0.24945511357617683
Ni 1.2888313863726863 2.8030231123197606 6.4573789829289385 0.10582609189789517 -0.5427570491339749 0.21187792665335123
Ni 1.1397300897504905 2.3462353235536937 2.3477073133147233 1.575409266405887 -0.6277662042865189 0.14670020440443768
P 1.952704309336248 8.637384737534482 6.718921274088574 -0.29050508953895127 -1.8915521111176006 -0.7165595090718433
P 4.505101310524682 2.237941572439579 0.1824417723638518 -0.2675734204434424 1.4357415433681984 0.1497734440131227
P 8.933592664603326 2.9369243139190324 13.088609745274994 2.611922509295102 -4.319709907055799 2.330402911084213
P 4.904939533065735 6.771143666168853 4.14447397709471 1.5238725319791757 -0.5920044733058772 -0.2537262301477049
P 2.8376157951605108 8.219243605919653 1.849707505066088 1.2833242339743252 0.0875558328337976 -0.2843475545779877
P 2.3735234649830623 4.622315652034996 6.713690816117138 0.49111695636018 1.3689077735731003 -1.047986276525821
P 8.477820678056288 7.017189432748922 9.365502533568812 0.04129860163847081 -1.0207063577639452 0.627826368100493
P 5.622576097112812 6.262910112291784 13.184665850019497 -0.15899419128044232 2.843124847308678 0.5979308660926411
Ni 8.070659444972598 4.389549190827324 12.241971840150617 -1.5165909107160978 2.774202056195035 -2.7311463626561414
Ni 7.203044300568711 7.249918955694084 2.55897201191524 0.2362761529920576 -0.14631325337866416 1.2124247787502862
Ni 5.026595700642894 5.3942699311032385 11.42097278303453 -0.10229211060270771 0.08049404089100977 -1.2451227832039395
Ni 3.2527833966432733 7.451223251808741 5.308488204075932 -0.9730532746623564 -0.009414608445680562 -0.522064810891946
Ni 3.648364484430032 1.3750268219401072 10.15090049327762 -0.6854735863003163 0.5794330643987697 -0.5236321553790659
Ni 4.479309168726974 4.286223636020824 4.324435345131006 0.641383023739005 -0.9470126276242207 -0.5558827878826555
Ni 5.114471827154526 5.872999047800332 1.9791613398591386 1.8032995093270945 0.17120590285528578 1.0590258221694342
Ni 3.1736154655184072 6.534193946731907 7.5530038637857535 -2.7586453394073587 0.2148416372673655 -1.1876884523458708
Ni 4.617569085302443 4.073653169840574 9.305789985308039 -0.6816403285971552 0.19195907624223715 -0.34688449676994454
Ni 3.689015042322445 2.977574871811446 7.235438233333544 1.0509849541428287 0.1338986817643952 -1.0233695064184054
Ni 1.2914724721421618 8.021208346037143 8.82467096302654 0.6599954966338697 -0.06606115329513139 0.2837981098324209
Ni 6.009578273431589 1.2492797417899497 9.96309990248011 -2.04586638042387 -0.6884036154629176 1.5753251913325128
Ni 0.7806449287803168 3.342035473433408 11.036856408474357 0.38157099240853637 -0.8096046471549864 0.15214451534846055
Ni 6.368692061555208 3.4788917360334914 7.557450307135412 0.24105994753394616 0.15228515469138287 0.5641062042337123
Ni 5.333635773192838 3.1862021784687387 2.154094486911241 -1.0893401568822594 1.4945601561683035 -0.3960979823801178
Ni 2.2097115053162018 4.051970409747119 4.294458098190899 -1.0998071178518543 -0.3502174177979194 0.2677210017649002
Ni 1.1265154263374866 8.05169164717364 11.413823382325692 0.531512329458091 -1.2967489920206636 -0.13657005794897123
Ni 7.591034575409635 5.968669147701605 0.5557084557682326 1.2468310241442977 0.637039916278961 0.4572071909866126
Ni 3.7430372512435306 0.5358726088002853 5.7892286091667025 -0.6362012224277495 -0.5078476388512996 2.411718933655885
Ni 7.663507446454538 6.554731620687548 11.372910562769457 0.005704249473628886 0.4813997290724161 -0.33537598190971274
Ni 6.733365058186604 2.651585470593798 4.03694300110143 -0.46292815263078985 0.7107691276423114 0.5257008649826366
Ni 3.4139912088031688 1.3707419834889307 1.8404489295679205 2.246876768235098 0.8145162255239908 0.7264099195033619
Ni 7.007197632739928 5.8206667643890855 7.660278118854589 0.4664479928585902 1.0808704288483515 0.5729466853434778
Ni 8.29417287142148 4.3046465944477585 9.415956506331417 0.1567899845402719 -0.4907204922527097 -0.21444980114558554
P 0.5188523808921737 6.408677730722439 3.624348149602499 -0.016157840706785075 -1.6283063715152344 -0.2603763884743709
P 3.211828098085151 8.286739046091313 11.193124651480083 0.6371497023839479 0.18124117560410075 -0.07471831474949713
P 6.467206407669762 3.9658765544016013 10.410753782383981 1.3393154046279643 0.7198075836954958 -0.9991378875645501
P 7.908269608412379 4.489984326592406 6.253912875000875 0.0683221814151662 -0.49564389769625605 -0.55953452570263
P 5.059655445589472 6.597072104089801 8.381016573495954 0.5049304652045046 -1.3034513437415036 1.743790555328184
P 4.723692713494086 1.3272656485144911 8.171671741089401 0.1800903498291092 -0.6274520154802097 0.24227839332207954
P 0.24570224073872426 6.035121081957353 12.702371267533614 1.3684583447405076 -0.9142130645956965 -0.45017188140638603
P 7.411062125894587 4.546278238657865 2.4099612140361937 -0.7554932100225633 0.31429884952443937 -0.07140210589207058
