# total energy = -340862.13315513567 ev
CRYSTAL
PRIMVEC
9.35639521204274 0.00000000000000 0.00000000000000

0.00000000000000 9.35639521204274 0.00000000000000

0.00000000000000 0.00000000000000 13.69403015174874

PRIMCOORD
 96 1
Ni 5.115103677814094 3.428725770015507 4.478330830467796 -2.00094560865178 -0.38315299218367566 0.7169459458769847
Ni 4.130586378630801 5.683308184980732 5.180533883137203 -1.2492591739698162 0.2616354576924526 -1.5446943538205333
Ni 3.914406873977584 4.517660436518857 8.501431879883894 -1.3238273362946942 -0.09255894247534383 -0.4712978647517238
Ni 3.3314099064406055 0.6528630396922049 1.038900409022998 1.228466148483865 0.4061221993853393 -0.3707638744907034
Ni 9.108600158060177 9.106420118043548 2.5147444608637928 1.9445127224750318 0.10767342951927908 0.908373575095784
Ni 1.1478425289269232 9.330234440952424 13.239045255127667 -0.8607518594527628 0.1822210230188668 1.2286492110289484
Ni 3.9519634431910884 0.9797081121938223 8.025920241561616 0.24762011724996708 -1.7374419874023368 -2.7059192126582365
Ni 9.22988710542307 3.9226124323234344 8.444738676138158 -0.2207927126444778 1.1670658909995126 -0.02019575822158457
Ni 5.977707151174779 8.976113605976664 11.593378892909996 0.5163824157951881 -0.5710340417017973 0.8812414947656824
Ni 4.337437557547628 1.2429877088801173 12.353370783170407 1.2602005034726684 0.28661938133129994 0.23758227339799085
Ni 8.966055481436427 0.6033976510230588 11.185831171655476 -1.5865074332015774 0.22858058412001278 0.9498457261976417
Ni 2.251513517431088 5.965590619751888 1.4104026188437815 2.7392651351085338 -0.6797492822220293 -1.8945204497173054
Ni 9.021052370782957 2.9388530011287535 12.68330065907753 0.061203568092513955 0.5263647238188806 -0.024408253641035382
Ni 5.9047179143948725 1.2978536086977526 4.609341879072241 0.3825582960224702 -0.2653740987992784 1.1253931938510746
Ni 5.653657769475602 0.11105011567966055 0.4220389057084017 -1.1750555940732086 1.699343123648086 -1.6896390089864448
Ni 3.0825485143278053 3.1603843636768687 11.667929712002245 0.30678428631494903 2.0765026172524883 -0.45122551948188094
Ni 1.9459243029113433 4.629712622094573 9.70779398084516 -0.7929310431540473 0.009777133991421872 0.4143489581705057
Ni 9.110181388801852 5.245494397435269 3.5717588504541413 -2.395926960928951 -1.573748590874012 1.5077105775073325
Ni 1.3437841513656876 1.0473922730534355 9.724979807036334 0.43004554297015607 0.809946089654805 -0.6403319567666713
Ni 6.908565525485267 6.973087224861531 10.365079788416596 -0.5024562926323992 -1.0029670315026533 1.9504296021800993
Ni 4.7173633297159245 8.27180162189203 4.857012202111578 -1.325762605644194 -0.3952317777250806 0.8685584999813751
Ni 6.7408427901286965 4.580638330733131 11.847827924069707 -0.33962370144247317 0.0956290967602353 0.02423367573638407
Ni 6.272209037712958 6.940676672854661 6.472318934089096 0.12124782576960409 -0.3509679228106988 -0.20113225810107294
Ni 4.898999024320248 5.587704541676402 10.255007416006196 0.9356545222989241 -0.6573927689037 0.24643458158229814
P 0.34987490296054086 7.296650074024808 4.161725396567886 -0.2298270549326042 1.3271741412797402 2.3920872754678864
P 2.918493485780327 9.080736813984986 5.763721721130573 -0.2202514954290271 1.0878651149986296 0.36481177067232656
P 4.666763945982335 6.851070478694789 3.2384054696453703 0.4928388241472931 -1.7006230188017744 0.2780663495549663
P 1.6690498644046143 2.8971047669905734 8.045160732077473 1.4889111854126422 -0.421505623819945 0.30721751719762574
P 4.005182617502601 7.1747081790174345 8.970424917864605 -0.15112378739343005 0.5887828810447859 2.2691427787221503
P 6.6828237852226335 8.824979758815298 5.302095908510777 1.8787289912110032 -0.04348249666366705 0.6910724205443324
P 2.286197673403798 1.139955088008392 11.919393117542615 -0.6151531435081987 0.26036687539267417 -1.3426208148521135
P 8.388185818316238 3.3737101678791332 4.968002436863743 -0.4276204784684313 0.023172067241089125 -0.272801244501285
Ni 6.345216987282707 5.354028578520631 4.501884619042303 0.48374663203803786 -1.3645862633796113 0.022138483770252196
Ni 8.137397008849682 1.8584326540036513 8.998141366539533 0.9076621508510562 -2.073730710934306 -0.9757657884975129
Ni 2.5738132532800093 7.607188821457841 3.4777224032991034 0.27703276608412936 0.017056698371970623 -0.39834666920497847
Ni 1.2334628988503848 3.947519155603541 5.220273299285811 -0.30728256610760624 -1.0266564046997932 0.9497961039066286
Ni 8.51911920884284 2.780533442667941 1.3884646796721567 -1.3569104920019084 -0.5897609286873392 -0.6700616226206202
Ni 0.43424432288304443 6.890835157109684 2.2269782430293508 -1.103139781769513 0.6270843477281458 -3.420587418244638
Ni 5.068630464240733 4.721424005111705 2.4994065226695485 -0.573796949158915 1.6410348748254964 0.23116685678995025
Ni 3.3217728196718186 2.1293377125506856 5.849062334845892 0.2818296732521404 -0.17655148343791532 -0.23550687892620084
Ni 7.914387335904024 0.9314029164948989 0.06440287316076533 0.49115552290759934 -0.6214374338550136 -1.0374182712019875
Ni 8.350900584555449 5.359371080020609 6.0071741813394555 -0.23026825623508085 -0.26601353215549023 0.44331500638555266
Ni 1.1801969425642667 1.1549908146466832 6.663227751699773 1.6880230706495767 0.41745150835522943 -0.02238968054910983
Ni 6.380425101371002 6.101670027485122 0.07038067387588931 0.7374042137313365 1.3842150933541322 -1.837719381567861
Ni 0.7328452460361803 6.204141264661578 7.522760456247336 0.8211126477945858 -0.3257333166136261 0.42444105229918516
Ni 3.027476773821905 6.329713440898359 11.489332038828817 -0.7613077598218114 -0.5847825016361413 -1.13602084876825
Ni 5.217275510353074 4.477278236039165 6.757113560896579 1.3625358086084856 0.2747138881429656 -0.2335163308587333
Ni 7.1533007474378385 8.355896899443342 1.5168194477584878 1.6214816352839172 -4.319424514604896 -1.1530261250769949
Ni 0.8844253932352869 3.9730808265281286 1.8606491839604724 1.0348908767944434 0.6602047844311985 -0.7474729108212482
Ni 7.3333926368801725 7.191961371252039 3.968474673308445 1.2606553316219 1.9927029090270134 -0.903409032001657
Ni 3.4025746462108875 8.08223170439457 12.912813026493387 1.5305432591311319 1.8222408263162875 -1.4416183138639493
Ni 3.1958918824026403 1.1636548363436698 3.427341959206669 -0.03875500928101068 -0.13026828410065952 0.28253492684928116
Ni 3.633677600763341 9.113166078781699 10.192151154925897 -0.25611452787422345 -0.6317732685633829 0.5844433731291677
Ni 3.3739160085673983 2.3436272254298287 9.563609128191734 -0.6646569066652811 1.1562924545330926 -0.036949066420523466
Ni 4.623630965395824 4.667830575003347 13.470378376995182 -0.6804087701828991 -0.3638370654638831 -0.374396071926652
Ni 5.18133759746093 1.7507405484611924 2.4149697367036125 1.2188031714728043 1.4387811015254706 -0.4477982389678869
P 1.2143664968163135 6.699740147240076 9.852908859153754 -0.9590978409235288 -0.5187352322980808 0.05767987120997163
P 8.894591337028668 3.099951408881148 10.487134895802514 -0.28918739916879227 1.0716756497229607 1.4009555460372647
P 5.069977785109379 3.058259313112495 10.719850892839375 0.5105313563310498 0.23049502753390627 0.39484894046436514
P 5.351259085623971 2.7048963461253486 0.552742128919942 0.20101424446596997 -0.24510943501297144 -1.5923253254349352
P 8.545663301234148 8.233786589327389 13.226981119516335 -0.2788250820978617 -0.14298496033637956 -0.1438406234684555
P 7.461088714764054 0.8695234630443683 2.2403429175347243 -1.7149556333743625 3.4776826205957336 0.5079085739962221
P 2.9572476735437383 3.241064557081962 3.811172154975562 0.12727243469712918 0.2538095338901306 0.5049199236815434
P 9.186800906811165 9.260707070293345 7.632066539913692 0.44742825722297785 -0.25129730899123814 0.6975174048387278
Ni 7.365092102873034 3.332841434863542 7.009918673468646 0.21342727341834208 -0.4220571254480408 -0.5662255645695603
Ni 3.865426146565354 7.146414440775871 6.971849373813463 -1.187155462660536 0.49271361142333864 -1.3689638236220165
Ni 2.144045965366736 3.076551065183347 13.678938969264102 -1.6882565268166216 -2.3679327897088704 -0.03830583755873403
Ni 6.745025098658451 3.560987768620911 9.362484998606142 -1.1349170741811099 2.3629139963380403 0.2734314218861162
Ni 5.54569432848043 0.9173215421385652 9.71622877086658 1.016858958993397 1.8379962893783313 -0.21664115236994946
Ni 3.5994051261671607 3.33047426694849 1.6163340641398602 -1.9376409350558628 -0.6327585152947877 0.9866227858166751
Ni 8.675380360420998 7.758201035485235 6.105674564511375 -0.05518204448878239 0.5438595381695344 -0.5793729005847956
Ni 8.373776970137664 1.1613157376133818 5.710780431748219 -0.16777527990718202 0.3055897517862156 -0.9800399903928346
Ni 4.618494304584112 7.44131865229566 1.2203377480549926 -0.30126361360703596 -1.046736720389436 -0.6899784161492053
Ni 5.98705418970101 8.142683371980134 8.607368725739144 -3.0004462788723876 -1.8723392856345755 0.15256360516375014
Ni 6.96868971924859 3.2803146337761944 3.043648366803624 0.9378224764845203 -0.18753549325324476 1.0460942017094306
Ni 8.37641547350543 7.411789869924504 8.72550724621107 1.3128749510482485 -0.7337334497479686 -1.1513983596655848
Ni 1.2185768745308319 1.3633015911712105 1.2967242918307695 -1.3002438925477995 0.9495348798254419 2.0078269091526453
Ni 1.2784484456312835 6.928831476884482 13.138997324235788 -1.5735513872615416 -1.0390774040719655 -0.0921791905384219
Ni 7.010241469093425 0.29059839857707465 7.403074388055451 -0.16667484775415164 1.666787044088936 -1.458160791603663
Ni 2.012597973119472 5.162634164013547 3.4330109988893946 2.1713259302819763 0.14698945351008233 1.608831036399442
Ni 6.895532067360103 2.132939924595329 11.513118801636862 0.24638547351191759 -0.23418507479098374 0.2259266914369335
Ni 8.841999041176873 5.466801206505276 11.018366672798729 0.991101647523635 -0.4960511604370037 -0.5740121504935147
Ni 1.4035995840966122 8.429438163523598 11.235307787998527 0.6367450107463615 -1.344023094516279 -2.0549269479642414
Ni 1.3397234759699077 0.16081116642831517 4.224923166062807 -1.1308171930801234 -0.5810379469920445 1.6650376654979968
Ni 7.1115618696945795 5.468232734928212 2.014501063846435 2.213341355481814 0.28608304921185573 0.911540917080172
Ni 5.376530708306001 8.971182785853218 2.7784095410208396 0.07745268296152467 -0.6049399504206228 0.8680460791213309
Ni 0.2803550174173975 2.253263163281343 3.543877729228601 -0.06765703702734155 -0.22632984041262308 0.07605451706241739
Ni 1.9519591776354865 8.38925244733725 8.541034692666654 -0.11134393639233081 -0.7861551578827944 -0.6947966634734549
P 7.536566752592987 9.214205787535219 9.561198920860045 -0.011593618374870357 0.3243580335326543 2.725824436222596
P 5.48251059357789 2.3238945885411195 6.868952420668094 -1.253394022073796 -1.327501699822488 -0.5633927231064555
P 8.605169972932675 4.854902335056858 0.32670846913576856 -0.4521431462001439 -0.2954614051029621 0.2369094157006823
P 2.4026380081975343 5.182142247424149 6.547800714475997 1.2794413539801512 0.47066151671930556 0.6940844678977788
P 6.696427983437988 5.595573269805091 8.18564700181857 0.6872759296163776 -0.2771374099827937 0.4288749197008227
P 2.3964253619698894 4.937004700489967 13.059064706784897 0.1616200589390636 2.0759994523638245 -0.26837689018134425
P 2.4272172576554003 8.127376309889128 1.0444188107474934 -1.3985880742463526 -0.6210252860182596 1.7254601324501122
P 5.1849959478751 6.96698685537294 12.081721891227142 0.5879516433927423 -0.46983850659737797 0.2375503917187909
