# total energy = -340856.8520298922 ev
CRYSTAL
PRIMVEC
9.36966162213094 0.00000000000000 0.00000000000000
0.00000000000000 9.36966162213094 0.00000000000000
0.00000000000000 0.00000000000000 13.71344688389331
PRIMCOORD
 96 1
Ni 6.306747193127664 5.530433268008626 3.8804255899390085 0.1360604653024044 1.4283416513597014 -0.31054092514390386
Ni 9.025101465671058 8.609791224392408 8.89716061327147 -0.27737112326015456 1.1832913517194397 -0.1624368984134041
Ni 3.221055345641696 0.11212486396691164 12.499519014163146 2.494091165406214 0.6843746968091827 -1.0311373232892822
Ni 2.9540574745649573 7.225751691612354 9.971732410775267 1.5159033977307699 -1.628859415805227 -0.5977966545076222
Ni 0.531114571274894 3.7933261545887045 4.937745966884603 1.7451586393203042 0.4244001717589207 -3.7849451320986813
Ni 3.594426982521853 0.2685982092427936 9.574262004790345 -0.24668423569925904 -0.9916541775929953 1.348988151831038
Ni 8.722601947573343 6.302287234304231 8.930840798117499 0.7102824178138799 0.15198330718024794 -1.1470038301423149
Ni 3.3721879839231312 4.986299552227094 8.862424467586365 1.8552193381248372 0.20038946639777747 1.3305101476315087
Ni 3.026363151540645 4.360303104848236 0.4192539317592866 0.7299958370824072 1.080406087617423 1.9135574117440979
Ni 1.6767383850598911 5.334363733682692 2.934554524373835 -0.7003623304866905 0.13607177815631405 0.5553091747673726
Ni 3.1733918781316115 7.399418365545795 7.425693706992331 -1.7423455953515412 0.1998114824071204 -0.8591125240771268
Ni 2.71737045809705 8.427270220441859 1.6691320939404324 -2.568481150282015 -0.344967996473522 0.38099686507262126
Ni 3.223763177784494 2.3908658675085075 10.424701195127739 -1.0660243649744543 1.1426105861706257 0.43203249149319795
Ni 0.3848710223087252 3.425773077434076 11.518417084791277 0.51651842715242 -1.5416792211432933 0.28586270567093347
Ni 2.047420929120037 6.3786968229703875 0.9980881885126279 -0.9396952680272008 0.6474461992139495 -1.3103377864486918
Ni 8.229776497584071 5.61293313658073 1.594873779530284 1.7892864828774537 1.2789713563222682 3.1035164052917
Ni 6.682854771134799 3.2008262466925563 3.607856518197537 0.9063909974481164 -0.7386805093405988 0.3403618651600783
Ni 8.808793462734592 2.504922755654814 13.462230172151335 1.572050634346299 0.6998072293141689 -0.881890698313907
Ni 4.359103788189834 6.9266158819550006 0.12659349509116416 -0.8660179929477086 -1.7814284202856157 1.1842305757042573
Ni 6.635116346333565 2.4829696390092213 13.360380078868827 -1.5955638869768907 0.38207158619403875 -0.10341414002229288
Ni 6.210033548221217 7.961710485108443 6.192964836060195 0.5810952825925412 -0.9057626198354981 1.378442452536413
Ni 1.0310094307857618 1.5158519292675456 8.89714655877938 0.8124835113646782 -0.03586791754120274 0.9704230361283608
Ni 5.248219066828413 2.421382854668001 1.840577221157412 0.30192541556075103 -0.8130519822736385 0.9247142212373366
Ni 1.981064987129391 2.9094110380236655 3.0018736675557607 1.3023933347906345 0.36112995094536515 0.5489665203787965
P 2.800366918723024 3.257475219479262 12.3793887115014 -2.702314526026114 -1.3263966396837674 -1.5684194653516148
P 1.5092182090007598 6.127468092019357 8.451967710909685 0.9748538182062051 0.7938149884208975 2.1644127481019106
P 5.946652366442472 4.856511002600657 8.943293078109814 -0.384243397034377 0.9491805818098169 -0.0703294416531821
P 7.575193213292834 1.1989699809304002 2.3193556747851507 -1.117189832104676 -1.2664788802822124 0.16753822419571146
P 1.4526160845210232 4.025506363926211 9.78450315197435 0.4728526108333534 -0.5004770574188413 -0.7931917530146017
P 8.30962475198174 1.6213636862227376 11.418624569150838 0.3622195844651181 0.15101837216381733 0.09396867833867688
P 5.753075162047279 7.977264123022094 4.1892655579018845 0.3028564120154526 -0.9842455438337501 -1.5519479500591529
P 8.58989006359205 4.9134129562449935 3.532542242948311 -1.0526001211487483 -0.5236334409306467 1.8602625569756996
Ni 9.150411317151278 5.529805500695244 10.815946398082643 0.08807339590016444 0.1832047270883748 2.154011607373245
Ni 5.423516061844369 1.588438696085046 9.982004370561251 -0.7836835564138503 0.8894877939348745 1.454122102757915
Ni 9.049378258342305 2.650077549967027 2.056153453539027 -0.1839284926282768 1.459714509244028 1.2974524458455914
Ni 1.3766281306175858 5.218198671722789 12.565288415350542 1.1887680585632947 -0.0639443640624447 0.9030210525346191
Ni 6.125678486693147 4.741348494409887 1.2871291249843386 -0.9300353763399338 -1.6407566814634453 -1.3031291845153945
Ni 3.8904520645964764 3.8044104640175287 5.8738116818012 0.000988332055198298 0.770400466151699 0.1529515846307882
Ni 3.9453489107025477 6.532593511362984 2.5945838564301726 1.1568812371570267 -1.005981649959261 -0.4266951384406845
Ni 1.98437247760139 3.935838704387876 7.529161940797543 -1.5072976583396298 0.04752992726016331 -0.3932522854012066
Ni 4.466536325730748 1.75138647738402 4.128981156494398 -0.056578667725992876 1.6088775733666616 -0.11762051342966194
Ni 8.453214812841194 8.275266203650803 11.17872188489259 0.24895760511446802 0.8210756239090633 0.49606787260755214
Ni 7.222191220282723 5.814661946388499 7.392521357793845 -1.5380243979995254 0.6292165635798003 -0.5776001249550892
Ni 4.662324770214869 9.154234138999934 1.027050748846896 2.671479800033444 0.8594609085554812 -2.0729143856805976
Ni 8.102883173328307 2.343970712232712 5.678573236440894 -1.3926097451757307 1.3498271027925655 -2.4516473944197066
Ni 1.763716951778215 2.2544904459222526 0.4563399885219494 -0.4168555266424434 0.2736574218539932 -1.0681660939078055
Ni 8.463643245972456 0.5522225444627687 6.762539056458078 -0.5470945001670642 -4.911653188106438 -0.05671673596575393
Ni 8.069602136057652 4.6333725165081345 13.535693002309152 0.7837694312594372 -2.5071659963123016 -3.194273518671615
Ni 6.42498295025559 4.183600660623214 6.035630418902225 -0.3788767334058249 -0.009086535682300481 -1.4028807880844356
Ni 6.493953027775096 3.9609119182775925 10.762175785276101 -1.8160848340172207 -0.6726679498952157 1.7854406267688023
Ni 1.1386481008773386 5.868106494978536 6.482936179908306 -1.0071882686728524 1.65502244735384 -1.7745509764394922
Ni 6.613331883593061 0.62945197850088 4.849691763038274 -0.9472504546666396 0.1671687566714347 -0.43373224779312397
Ni 1.4452046823585545 8.697866041493803 10.256808106545137 -0.7866966322085612 1.429996156243989 1.5169616637919552
Ni 5.1238555511489645 7.025634463564313 8.542887157210226 1.4565237702208722 -0.1663622016097393 0.8549136555044309
Ni 1.1636650967986923 2.073880852896031 6.476147860228524 0.25143383456910245 -0.7144501760383244 1.603370013284871
Ni 0.7826403204921077 8.487179835393595 5.667904939977952 0.9905185213266555 -0.8487604914188414 0.07209501819403713
P 3.169550316960168 1.219545757351109 1.7089831377803955 1.378114379773033 0.5661278626494314 0.6571785960103649
P 8.715424786945718 7.570592709548495 7.102015943246288 -0.43740275466617573 0.15551137493816442 -1.2777799071173286
P 4.6618750264679685 4.372427446691768 2.7345712824837247 -0.5496779446235243 -0.2282622815486456 1.0375717660607164
P 5.272889385278197 2.100396994640387 6.084189626041554 0.36727514461115457 -1.1156240302794527 -0.47334292020621055
P 0.6897260732808334 4.309388364834515 1.0608808482752252 1.356606073387612 0.7227944342379616 -0.7318079505904815
P 2.385281549317823 5.099953544933469 4.9288597800187555 0.9298122045855342 0.00641078862235025 0.04722550864586706
P 0.19597490074585747 6.939574123662578 12.447873440560713 -0.7073107367800657 0.5182120128047591 0.5969813576951783
P 0.9011880873444457 7.695565253218537 2.835008430828053 0.3505966555142091 -0.005597034471803264 0.053095594273398876
Ni 7.117110467751645 9.084064744822024 13.465096351571686 -1.3984399787042625 -0.22859909606277407 -0.061645026505306746
Ni 4.65366720308703 9.270764617754194 7.502406872687647 1.821547656904005 1.0888045960937636 -0.3767470886573318
Ni 7.158215172286093 0.8132397606718668 9.005648174685323 1.3474717151865117 -0.5690355232145297 -0.6684469698353326
Ni 7.330645050915558 6.535104580616513 12.678794367406896 -0.3257808820221099 2.208016343724475 0.5219313706378753
Ni 8.916432132826168 0.4871952204577582 4.205530353115322 -0.2515857867659344 1.4639378032967563 -0.17317485365619853
Ni 5.918534012599782 6.364005193904964 10.749106981564077 -0.25666217284757736 -1.2787497272297654 0.07600386633014007
Ni 9.221498938145775 7.570470903950376 0.8546546009984491 -1.6806807713518925 -0.36318760480534223 0.832116197993941
Ni 8.03821377038854 8.08778864882295 3.1876084653643715 -0.8501501726775165 -0.6786699331149215 -0.8447277161103645
Ni 3.1883552273774547 7.411055484996852 4.607251774474595 -0.7718842497860771 -0.8785667761469966 1.2640443026987909
Ni 4.169424362934447 9.056124414545815 3.2643900295878607 0.5400291086798505 -0.09047172092901193 0.8544644837821542
Ni 1.138713688507095 0.9067161875667671 2.311552620776423 -0.8098969815844245 -2.669712423720376 0.44784117639068033
Ni 9.080073269068281 0.44789230180933054 0.20721849441837595 0.5206946700172967 0.14942403109350394 1.5783994593824624
Ni 3.564031800960478 2.2605900954895937 7.869364976343771 0.07578429412016625 -0.6817783968369161 0.012485276951204303
Ni 3.780011865748164 4.8904104375232995 11.614974256352447 1.303152581554162 1.5685706462174986 -0.37048259580485876
Ni 8.908917664388367 4.135178250540235 6.711745185076335 -1.8542870561185552 1.269247444166285 4.003870452517118
Ni 3.1545307497459616 0.34775966746029924 5.58903862609435 -0.496477449341145 -0.1910285940081678 0.5314033146840526
Ni 8.289152041836363 6.539114795693045 5.241677169243285 -0.06859548968121089 -0.6250099816976203 -0.7413932802860715
Ni 5.833335681546274 2.9201767789651023 7.951988524446273 0.7474436002452095 -0.31774901285656887 1.498819959885922
Ni 8.324391338338314 3.6202872479686454 9.701015721091343 1.4029466083253643 -1.1828990013770273 -2.766367390641965
Ni 6.402730004445396 6.894637227618079 1.5433387679322956 -0.6013578894963192 3.0434724047249264 0.08774660868836502
Ni 4.160588772240127 2.3819178408774615 -0.08650727275021769 1.161186292290284 -2.1386459235504525 -0.6984905673852745
Ni 1.3948333827056718 8.594209477494577 13.273519569884062 0.6419625503915589 -1.604891849246036 -1.0446865227286266
Ni 1.1554197947721787 1.1475305398786282 11.910567397036818 -0.5487590323536807 0.41481895582838885 -0.6121200131088297
Ni 5.335563050341094 8.13021447561392 12.299947100408223 0.4963190693864097 1.627405714077836 -1.6588310224666527
P 6.6789663616563875 8.164001474599837 9.992645495006151 -0.43171341759088233 0.9747617727130309 -0.930115851868882
P 3.0651535497108338 7.184862489289962 12.129351801479658 -0.0666375946238917 0.385205246727014 0.08368272303163651
P 4.8586098067528605 6.038315763857678 6.614927536928419 0.3977861687158182 -0.2320312616727746 -0.8110843170243063
P 1.4740163911443833 1.285124017446073 4.646102138477704 0.5227821486739448 0.06414336744712823 -2.658636111301557
P 5.466775788499383 1.1230663539795067 12.149167698361332 -0.7912436281492954 -1.346537119187384 0.1931842068985899
P 5.99280731846816 4.757201961488137 12.746332760665435 -0.8354295786378902 0.10211110494015319 -0.08306900070703759
P 8.684223814504481 2.212533102200971 7.8230001439028625 -0.8248734003885988 2.258786889409123 1.8837521554572074
P 2.5276441845346946 0.26672896179473743 7.811330230636927 -1.1705975583018549 -0.2764630096235884 -1.1076667231055892
