# total energy = -381167.7820233197 ev
CRYSTAL
PRIMVEC
9.24235254739358 0.00000000000000 0.00000000000000

0.00000000000000 9.24235254739358 0.00000000000000

0.00000000000000 0.00000000000000 13.52711718441815

PRIMCOORD
 96 1
Ni 2.94765423095467 3.880216837545971 5.09066001350501 -0.09569260300831907 0.5118251354418089 -0.7828296930539872
Ni 1.0486557959689422 9.063623858089006 12.056651570025418 -1.2401685245224576 -0.9391016003072601 0.4537994508566443
Ni 1.7049275178173733 0.1638946363532923 6.995548599719969 -1.6445950813729289 0.8247949817421795 1.8206662827403162
Ni 1.2061177550030053 4.862808298058232 3.7678834371531904 -0.4177032193547194 -0.26023240669733894 -1.5662849355071156
Ni 8.71396717943803 4.669402830267728 11.517326106687625 0.5885419686785734 -0.12372868320992886 -0.6935545635362378
Ni 0.08284197789575735 2.8018376360330044 2.9031356675764184 -1.3860346630613742 1.6040433852028118 -1.3142718313957753
Ni 8.808433264035504 8.305002324986058 7.414131970387634 -0.455206615616816 0.23026697068350022 -0.708040930077871
Ni 7.961362417793154 8.682376818695035 13.277312166640215 -0.09092474930603049 1.107755940385286 0.011449379487522216
Ni 8.578160052241545 1.1454694380938357 8.65245839951389 0.19353799069358282 0.16799716611000098 -0.6519787969769804
Ni 5.907600790694649 7.6815779238165645 12.181669174948242 -1.3490737695663089 0.8378762404061698 -0.6543966623898536
Ni 2.926969846126459 0.8691434324115789 2.1284379865868788 -1.35675828269476 -0.2465212277588335 0.18270824706793048
Ni 6.077650833793066 0.15893426578255912 1.7258438856925855 -0.35922373506158783 -0.8281122190408705 -0.27150052341199044
Ni 4.206638242086973 5.828070347688949 12.518616694717505 -0.9685355892976611 0.05877541826699555 -1.7237477777446957
Ni 6.250602975567112 6.699485550337692 7.999990829942174 -3.659244412764046 -0.02173276369140128 1.0535920527483726
Ni 6.412445809672029 4.983199181334497 12.385360456802784 1.1101349821404236 0.07980189991999159 -0.5635202498232553
Ni 0.6544019939437182 2.6911327381454653 10.051540762094572 -0.9652229799846601 0.4718223697966262 -0.10968737462551431
Ni 3.543490210000745 3.603704136343817 2.3648240903046 -1.0648365153139403 -1.3459174833255143 -1.2676680154943072
Ni 8.082159964578105 1.0403284363933307 11.295994870908542 0.8870352186293239 -0.18071075702192746 0.15424047864554083
Ni 1.4233222804041628 5.032710463517127 9.258405512162316 0.010425309098382044 0.8819619178714745 -1.1981351016004913
Ni 1.611903240205244 6.2700673698692615 12.513557430975341 0.05384069996953953 0.6794636326608106 0.47969945855185775
Ni 3.7963887006416486 3.5515218142973115 8.715346138426577 -0.8735937484124375 1.081963147691898 -0.12565135415393844
Ni 6.844756846463618 3.0039124304405154 10.589283934689476 -0.25617443457788136 0.5584418068590834 0.07889635738658671
Ni 7.133395514106618 8.250962290093051 9.847768147538293 0.5682878464152277 0.22556570855308897 -0.008563830409611057
Ni 1.6811192178542491 2.492496098856853 6.673792734705903 1.1534015061385425 2.693994179085877 0.6254038747019294
P 1.9611162859376523 2.7943605728846475 3.6208172761775597 0.8229782402484148 -1.91453288828349 0.07019600139911136
Ni 2.47878044779114 6.373914442223945 4.957864044743302 0.37177868890846294 0.767807251503226 1.8365294750248176
P 8.895810464288369 4.254689232579318 8.571538830931924 -1.7063671203744033 -1.3480612691413945 -0.6658193024044984
Ni 5.124690355300128 3.65920446292711 3.91976578800102 1.7946156083998512 2.3942999668484894 1.419628954077052
P 0.3516160573746491 7.006488772338894 10.174434474419753 -1.9396389393224984 0.2842907331981233 0.05068981304538367
P 2.456330773641129 5.471019787061848 1.1354997124842776 -0.7395989073898102 -0.01669263016433254 -1.3594941935686844
P 9.134281642723357 2.7959964692718655 12.335526616518944 -1.0596290029710718 -0.6400002844588655 -0.7893520675535374
Ni 8.140285119262922 1.2409983932253774 1.3195241925175714 1.533454519240656 -0.22201604352861765 -0.8450951267521122
Ni 8.780114696066944 5.759732393524609 2.3984117234163973 -1.5067284160997212 -0.569921782474225 0.16731428111036348
Ni 6.133520854475164 4.163023580780303 8.508069748048863 0.1462734012796642 -0.29246941235417373 -0.5205599442116454
Ni 1.5812371147092634 7.031443124008318 7.813762973079995 -0.04320738862540946 0.029803456514677702 0.07030733016599504
Ni 4.645039989156395 3.162270897664184 11.924992410617538 0.17781209531789374 0.4324071012237972 -0.44433599145089925
Ni 5.0795599481883515 4.435867068051804 0.6559463910414816 0.10929271029025693 -0.7552360997064348 0.9036663994281019
Ni 3.4122580472769877 5.821831759771593 2.9662128747147447 -0.7147759348088593 -0.35667808582159866 -1.0433305229213645
Ni 1.695380167715701 8.710898718417939 4.773922745882238 -0.14295847797381833 -0.459803490958879 0.20570470796310378
Ni 3.4914927350036424 8.36756380885655 6.324941989190324 1.3143355947541753 -2.723022962218059 -2.016320805556269
Ni 4.730494780095466 3.430955326324115 6.32901324545343 -1.4956438761507855 -1.7395423215747914 0.8354414057124322
Ni 2.0327537599338386 4.514399336990728 11.241453900511651 0.9142400611788899 -0.7853966824502151 0.041710235254592685
Ni 2.3687409992814525 7.058846699082333 10.34537640453154 0.8576755345202842 -0.49903261166283086 -0.2776724565506573
Ni 7.482285077502571 1.5708302258278668 3.6371716188735026 -0.389520072052284 -0.8389998124876519 0.8737261602252436
Ni 0.6494296083147739 0.6181969266123727 3.0255561714551282 0.292258067674316 -0.5655393371358131 -0.8996788755352634
Ni 8.206987177040043 2.898826882854831 6.676065429178315 1.268995476056479 1.1122404585192007 1.804076239592119
Ni 0.3615820860432193 1.3611582176898873 5.487180040355917 -1.6364595967499882 -1.0987190269939981 -2.047505201578874
Ni 0.42715287987799444 4.517153558026834 0.5742061015601668 -0.2474223994168642 0.15719673306038734 -0.43303625016736386
Ni 6.581368285769088 2.3702382603816177 13.022028224826764 1.237631874143533 -0.2623047158453353 0.27871786709603613
Ni 3.3998732949669774 8.79398746712465 11.271564560624174 1.3715171861714894 -0.3709075991574193 -1.4982193501874455
Ni 2.6773523906124614 2.223210917286362 11.106520175623594 -0.034931521769862424 -0.6191092999424692 -1.023998655361972
Ni 7.945567237421656 5.742458436757885 4.532408985014075 -0.051670431791098106 0.2810092342333741 0.7056757722798039
Ni 3.89603974497488 1.3452706137936876 6.990205595756971 -0.5333486113358814 0.422991207226536 1.205774363313304
Ni 1.1127422679970103 2.241501532824802 0.3474976651139472 0.36306213497107154 -1.678490191458477 1.114826731189138
Ni 4.822243613066713 7.320922845726102 10.03923087283957 1.331975162212809 1.054259254018726 1.0495865311334054
Ni 3.4547636262872388 8.660185930414189 8.492987153052814 -0.8030223659517783 -0.48453107561254616 2.593292810009056
P 0.2989790115866115 6.996497789318655 5.461978917875539 0.008627850878327075 0.38593595424545146 0.606998118501232
Ni 7.987462821168877 6.839155980866703 11.837106880978817 1.8850896433217084 0.4949144757293993 -0.2451366887064811
P 2.1657604543318665 1.8572507288780291 8.597402630084412 0.40892213072797967 -0.867010695878281 1.2202388754780664
Ni 5.568046003293555 0.6967772557841406 11.38274451542868 -0.10296753940317752 0.3772631090618019 0.18522767105567456
P 6.964833489755897 3.0539505267139444 5.076780772800576 -1.1837837179748256 -0.37949096995105613 -1.3120683959865533
P 4.5754265903511735 6.3410301521351276 6.5739355859125865 -0.7740573461779959 -0.3044160431930886 0.1375617324382792
P 7.305728418265164 4.8264858528505155 1.1770847531885014 -0.11843349624926053 -0.7943932295218706 -1.058995740262447
Ni 4.496598566133205 1.808053686679384 0.7821433201394979 1.4184215640325122 1.3411185192749742 -0.47135185791811074
Ni 1.1360237538693354 7.247880534154452 2.9742611152457576 1.2850437877685934 0.6539366920342995 -0.049007797357270434
Ni 3.848681930917796 8.18028602075376 3.527466743523234 -0.1984624245783937 1.1812599231117076 -0.5267982118118735
Ni 3.364927960277314 1.2985690067619846 4.845967807622359 -2.3699346506302477 0.591460170766633 -1.1315173044709417
Ni 6.702526284300373 2.8274574370802794 1.8747095326941554 -1.2190373989707972 1.5080437924770351 -0.16207360153671443
Ni 8.224547646733342 8.222181604500982 2.451100526378268 -0.8691359697514 -0.6662404491023172 -2.8626991698961795
Ni 8.327442756783599 8.742738622677628 4.51205085522806 0.14820224287126088 -1.1863360520830344 2.3829431470747737
Ni 4.94281934339238 1.6438448103421062 3.271451731629394 0.3759423333678493 -1.8320179603077094 -1.0297476420306073
Ni 0.24344356406393275 7.058051856769899 0.6425560707827181 -0.30849664102036545 0.3736355396115436 -0.3341593358937922
Ni 3.845188321684077 5.843126139862834 8.80714025892493 -0.03196729693521591 0.5024259536150961 -0.3483633953083161
Ni 6.9436038061319465 5.78982549316744 9.935221135081413 0.728543678016913 -0.5773453286318057 1.5950910611055302
Ni 4.301991592521582 1.5880025167174183 9.33874281253866 1.0022995731219835 -2.3212341001007504 1.6109609382582513
Ni 4.187931720687375 6.982403201801665 1.032441012795299 -0.07061123455965904 0.7605336006599482 0.39698758407392276
Ni 5.587279338783951 8.847879624378134 7.687880283965964 0.4023293080018103 0.07557269232999243 0.8120999027730144
Ni 7.329333386473945 0.6306094059797933 6.3395643150333605 2.468947319150735 -1.2329781774216055 -1.6372126728659286
Ni 2.78862107200068 3.85126054725697 13.232644801387194 0.22910843159902478 -0.5953908732796068 1.4978596528551817
Ni 1.386704079917401 0.10387849635308147 9.795716142661616 -0.38212943601516763 0.13409151450149162 -0.9948282044456027
Ni 6.508594002419072 7.460528579787822 5.926663142664347 1.4192605149940396 0.20128678140106623 -1.3953664819852614
Ni 2.9343914551599948 0.8578566715750232 12.856957037004022 -0.480090009122057 1.2809094538852457 2.9624286619780333
Ni 6.599538750725415 6.878352797692639 0.6276564743655783 1.2194153511355064 -0.1385858028274194 0.09377815959442559
Ni 5.914449373875035 5.840529038818721 2.5496988667651483 1.1576335419420192 -0.9431510877862853 -0.8723254232229751
Ni 6.304014530492148 4.767556613500795 6.122007656003089 2.181160399873895 3.1153380805169766 0.0565087337200059
Ni 5.278862036854815 0.1250323926867766 5.285924118377262 1.1147002329136029 0.3468862965421574 -1.311353886418032
Ni 6.1194909634254655 1.8240059870428749 7.462490731217236 -1.3614672581346552 2.955119787021446 1.8468113165668
Ni 8.186321276916773 6.091384969563719 7.635042679129324 3.096514005831938 -1.7492348662722068 -0.7166937206568625
P 6.293903396889796 7.97822046869872 3.435035824939689 -0.5777482204971792 -0.07138436528025771 0.9615141636745053
Ni 4.983633571900593 6.377999562015755 4.352349474190478 0.3842827349127446 -0.04167912490634112 4.458981937316965
P 1.3306954239482502 8.883656770790111 0.6768239410363189 0.001456015720236202 1.5357628556588583 1.072281658738076
Ni 2.6883600324044186 4.99169290325457 7.134133978068983 0.5692525243213423 -0.3179387602698718 -1.0093042865745907
P 4.959723606060298 4.831772478463445 10.464023255896684 0.3844457428531702 -0.13810654919815568 -0.11281563584185085
P 6.604039776378381 1.1212914440319053 9.430767991848766 -0.4166593514712373 -0.356352841271696 0.6245857496760082
P 4.56579605907727 8.91306593635015 0.0698860482030914 0.7871311486428186 -0.1502336714789929 -0.5646708184879308
Ni 0.7381266165003757 4.84209618617261 5.976240045549517 -1.456937460719523 0.082435995108729 1.0405619590372917
