# total energy = -340867.90644342726 ev
CRYSTAL
PRIMVEC
9.20490838657468 0.00000000000000 0.00000000000000
0.00000000000000 9.20490838657468 0.00000000000000
0.00000000000000 0.00000000000000 13.47231387015054
PRIMCOORD
 96 1
Ni 4.23471811865367 1.8546049484759077 0.5696015740156783 1.564334496648964 -0.49523252119045036 0.3130120123922157
Ni 0.9276798754831769 1.7486472476524704 12.85695215377082 1.2335006255839787 -3.9046508101921464 -0.6541477796038412
Ni 4.091719866347867 9.14194684647773 2.6531832218950626 -1.005947454287216 0.6868018181934366 1.306047129493138
Ni 0.43758661843670393 7.955498585489515 5.667775081124006 -0.9393677094844531 -1.683772522903339 0.7162661462011406
Ni 5.688329641626025 8.296199860841604 12.627384499246775 0.08951784165617487 -0.11566724635803306 -0.33243823943762746
Ni 1.939759556269985 2.3877256294411606 7.465858209937309 -0.2983101874056669 0.5611332376483175 0.955425020057632
Ni 7.385410992309257 2.3975840863590565 6.090712087810167 -0.6567893309917463 -0.3018431402595898 0.5440734539525534
Ni 8.901312130560232 6.1577523563243854 0.6087804257240266 1.0194807128869603 -3.0176955528711384 1.9594585451515867
Ni 1.682206218676398 2.451773382228015 3.786919574815739 0.3086966728463135 1.6597982714759285 0.4503631714815856
Ni 7.394385778018827 8.92815364351316 5.701940939706783 1.0668918551810724 0.6007732206374428 2.030110146030878
Ni 8.058934141405853 6.4730112648033975 11.980834493293514 1.5148104217769072 1.61683256654768 0.5022752869698447
Ni 9.03716737393206 3.7620460712830237 7.151279544190541 0.42786216216559214 0.7085170983833411 -0.04915794978188953
Ni 0.8607565093058925 6.536571157443989 8.113417994344253 -0.4552292413246353 0.1491203838101561 -0.6312559626073322
Ni 0.5866324955744938 9.082271425190408 0.7509456338178134 1.991754686181131 0.8092254094386967 -0.8764317320818649
Ni 9.16803355694021 3.8544633518205362 4.785837157052687 1.0581745299127325 -0.800282598423112 -0.9515207999072195
Ni 5.0205871750172335 7.960993915816297 7.998135721291284 0.5294382205378818 0.9618841454194145 -1.1766494209228897
Ni 7.892334503910988 8.003051142387601 0.48401065356249 -2.787638384205599 1.2758947742794735 -0.9510942538927619
Ni 7.6813303881977 5.572292566082609 10.051625603054614 0.38276629826821823 -0.12467124962885627 -2.609813690482215
Ni 6.180451660488281 6.688507375825681 5.982205547845212 1.3864768928051154 1.057216279764521 1.1058180999326246
Ni 1.0980719352471113 4.3679039385836775 9.252731601276652 -0.9922283049289107 -1.0053517296847458 0.942634296050867
Ni 5.007534614877573 2.0476594927700575 5.388588367761568 -1.2341380020576618 -1.0208066307872354 -0.34686469927560265
Ni 5.804108979733678 3.7851595963258218 10.082719783697614 -0.05977249207294221 0.24324975609641333 -0.09613920362743443
Ni 6.23341670353737 3.92106086423975 1.2840893270541165 -0.2654214070974461 -0.500378584167764 0.9983701561605902
Ni 7.148246526866127 4.702318261484858 5.099890222528671 -0.9136147688900654 0.1455339520104784 -0.48039339929508873
P 2.654704793256901 7.457706343040495 6.8159401279931435 1.2032693375032633 -0.10033652953823365 -0.5919952173344966
P 5.538528961997789 1.700882977860722 2.3161464205850044 0.47721011647110073 0.9331173576993671 -0.44193612376015495
P 3.022523728814518 1.070282316726917 4.704060750648776 0.7120595643189608 -0.37113745578003826 0.9556052543892382
P 0.4494204487015472 3.630047684539205 12.681610614749415 -2.12648126316346 3.405062583136161 -0.27496431359087486
P 5.132528066313717 4.139244808520694 5.792933300420869 0.17150775036642074 0.8536453303149685 0.03544008597516477
P 0.050765069936691644 7.758992200537839 2.4025713057410516 -1.676054585433791 1.6752002078532957 0.15338198729998742
P 6.2971146698042615 0.9790800841008535 11.705702542090117 -0.8312908738791683 -0.15592429410586692 0.1172063087103788
P 0.98252271984996 6.221220199880776 10.256755146214212 -0.4913720097937796 1.2098202512479037 1.0475371048035442
Ni 7.935965769822125 1.6666959479885783 0.11272422900303164 -1.624338130896106 0.21398725968687018 -0.39352199412282546
Ni 2.4697045438303133 8.129655452797259 4.661313155945967 1.8914474672189359 -0.6902908051833015 0.39993483962770476
Ni 1.7795941497607493 2.6359359849883757 10.861217549398383 1.2572391068514994 0.4993604273158948 -0.467773139427917
Ni 0.5644155286118103 5.966363900454269 3.165225583069195 -0.06358132429607115 -1.1500439025202194 1.5315876412352463
Ni 4.269282549771037 6.336741800552667 5.032583011670269 -2.5038153346725136 -0.596832747932456 -2.7802557185882826
Ni 7.363687408437889 7.434325875653514 8.125260109026675 -0.34434347551564565 -1.635059631078668 -1.7055374253842561
Ni 5.973221557227222 8.791083352229881 1.4834630409786447 -0.2958712389468711 -0.027189673040914464 0.03111420490630125
Ni 5.7439917228421935 2.842217982682167 12.621160140173123 -3.077682217837416 -2.9545315186181442 -1.9535516927488483
Ni 2.190519671449559 7.806517142710666 1.9480025517601585 0.8094676073564898 -1.1621370862393277 0.4992185024213919
Ni 4.07129417456373 5.599787627533361 7.153326715823164 -0.05832856053756406 -0.3745619080805549 1.1283188521383019
Ni 3.531140943565542 0.6949678242428355 7.202393480156354 0.28610824602283624 0.04488117678340658 -0.9454087734722105
Ni 6.480347576814195 8.6898293596091 10.052932700050265 -1.9036031287448636 -0.9505545793392082 1.3937366596913223
Ni 3.455918431956722 3.7364288111499655 8.67394721062111 0.3710901474818706 -0.1234772293207551 2.1251442895195916
Ni 3.3397432827870053 3.371776364088853 2.0568588782450763 -0.22795272072802675 0.4492791943887875 0.8461708763147944
Ni 0.5097125988530123 1.5230901717270504 9.200202870886674 1.9514457021494391 0.6068855041827678 -0.36405020991595366
Ni 4.447563216050972 5.95478412566182 2.2949281861858988 -1.1285379101276434 -0.05503677716016973 -0.008763605125242973
Ni 1.5277662652044466 8.926137768569163 7.925977523695505 0.6744582090264191 -0.6137958581493558 1.6604680438494435
Ni 0.9038943921257134 0.9575774180315675 6.037536252358259 -0.22970698441497214 1.1006031313905884 -1.5970343008748302
Ni 3.253981151037204 7.0039227677478335 9.058528284411677 -1.47310250051516 -1.0674001622760583 0.2433844819020647
Ni 1.8130171722340271 5.07857809806368 1.3494138006388345 0.5570647240058988 0.47753638946226795 -0.09638731508249852
Ni 3.659429752216072 1.2461420920923738 11.841113188385256 0.30825238622004336 1.5631201646258888 -1.4738301227098036
Ni 8.599878994528167 8.225340475823897 9.782530230793101 2.902699107327885 -0.07109922993967109 1.5538215129327821
Ni 7.604395763622746 1.2269038334944253 8.94211380762304 -2.75003754313369 0.29030428638205485 -1.7756997453319547
Ni 8.073128110189602 0.5141898663085348 2.1932249940342183 1.4798701582562965 0.1871259165196519 -0.11208544254404568
P 9.10991376517588 8.603800285515117 12.16784325373736 0.2715812560512549 0.38809645223188 -0.70968669321141
P 3.271093075790116 6.7405703378496025 0.4062052446509978 -0.5323088572174574 -1.8201579756453299 -0.4281105307309723
P 5.622440907155156 7.364893251440918 3.597727410094652 -0.15733248730730323 1.3079158072707604 0.4556570728906733
P 8.486557366968672 6.035501967597423 6.460513760641467 -0.885105862817095 0.04317602116684177 -0.7391916446490624
P 5.4949253108119125 6.1567398163981775 9.100305681767011 0.06400195677325753 -0.2074278613017976 0.665642667617318
P 5.806032805593473 0.8415808440852007 7.1489221671441605 0.739096770942411 -0.5396678686856899 -1.832111034242148
P 1.9393085157574015 4.642090545692333 7.411120301526515 1.272656469847834 -0.7489515522493037 -1.1173559253688952
P 6.210468866846133 6.184032369863689 0.12109701370192823 3.478223580700868 2.0475597089658932 1.3035495598822644
Ni 7.112743195089913 4.277023877752317 12.674227357705675 4.022618422548582 3.151620459887779 -0.5442511171809982
Ni 2.747867671376439 3.5935502226536236 5.5358549361017575 1.3736488878025117 0.452857141548033 0.04049256079740768
Ni 4.097426909568311 8.389224665334842 10.737339732862752 1.4199727105697157 3.4064427513131394 -1.4820764218789961
Ni 1.4341707563891644 5.617056035729415 5.554634790260387 -0.0171428303278737 1.2568660397827967 -0.053494115263398194
Ni 7.499027176938194 2.8554914606239095 3.1669505829071163 1.1586959217682624 0.2676893771960164 -0.7386406572415989
Ni 1.4077158495898803 5.89525598290922 12.39733082555815 -0.1651995487602058 -0.07259278376606208 -0.007602237827290132
Ni 5.384714942298403 2.9849769073690484 7.691344408067895 0.6454286545632884 0.35914145976042666 -0.7322357821565196
Ni 8.336508154813094 1.350912359729622 11.096377185787622 0.2129919856531364 -2.6135523315890405 1.6959438681585504
Ni 8.577529476884234 3.4905565023414487 10.844309973612397 -0.26382578047555205 1.3369440761823104 -0.09770037746696722
Ni 6.717880238594127 4.966462313507216 7.591608304845583 0.23930234141289114 -0.060175126827999595 0.358738310784737
Ni 3.2712863788669373 8.729631383617487 13.26415336951287 -0.39843408671246217 0.014955335758251663 0.4475856087364485
Ni 2.438739231905194 3.533672293381062 13.180193558831718 2.6193339712678245 -0.026508073592857572 -0.4320036951377915
Ni 5.088547013882617 1.1118792978772178 9.021587145940247 -1.4687305966997093 -0.1467716810723214 3.186769496985086
Ni 6.864449995366918 5.87317340760947 2.7307842818396293 -0.03740723700386461 -2.534848292718918 -2.8789467421032935
Ni 4.65348622231638 5.026966176552342 13.252997940998586 -3.207894708999475 -1.8504975071691356 -0.11016997068888769
Ni 1.7105941562438969 8.46825800902957 10.709357731756578 -0.14406379522285512 -0.10218618115246272 0.3288564356236401
Ni 5.860028798385609 6.122764499419695 11.41677519463756 -0.7486556182754396 0.2671288767068561 -1.4254139361899452
Ni 7.810871064393359 7.010403023275564 4.253573453061343 1.621901496430155 1.814179903685024 1.4593499268157577
Ni 5.096334366405997 8.766506246748293 5.3643794586167814 -1.692096212277686 -0.3259024952016387 0.015204732764896397
Ni 3.595538482872359 6.568447755302694 11.542054918725569 -1.5726003362021819 -2.8032951169062494 1.6631180798777812
Ni 6.6128338237042765 0.5182740841745204 3.7452489543980776 -1.7684206951720383 0.026327067930303046 0.9231450769780036
Ni 0.582644929246919 2.374866372378322 1.7326739700711213 -0.35253166775339284 0.6718390262360172 -0.04948576543495348
Ni 1.1978991670627817 0.3451362002288787 3.384541731085807 -1.2611926921826087 -0.6801532025286674 -1.0620759218496678
Ni 5.3173534224803225 3.5240715738989277 3.5158828873684325 -0.7365246393398607 1.1372014993399124 0.6464190435010158
P 2.48871267971776 4.92948619638379 3.5773173666548286 0.900447892490804 -0.41232961374763183 0.03753064995560633
P 7.779509941406178 3.4066077375504014 8.827262324284128 -0.3491622370605277 0.02859760913203462 0.17601977930416138
P 8.67687805346206 9.072403763364091 7.591486800054439 -0.0816870327578464 0.4918972861696303 -0.04605334271463682
P 2.370006180732524 1.2475136234469644 1.1299871937211816 -1.1734329708681208 -0.7653251085113207 0.5500456123755881
P 8.836334682022951 4.385697026559675 1.9833540025474412 -1.0467855713495007 -0.713827454852661 0.24185338996951894
P 3.7591281153138607 3.872256439796534 11.163738705605702 0.15666991402263986 -0.15995526964213097 0.2851001164732961
P 2.7916186010970367 1.0124202623983507 9.464489598989543 0.18633298830471134 -0.07079918220074903 -0.09795697356246356
P 8.604536678188722 1.5923386977712446 4.573648369625737 0.4652922819875922 -0.7316585694968109 -1.3036796577022258
