# total energy = -340884.305489494 ev
CRYSTAL
PRIMVEC
9.18071924223168 0.00000000000000 0.00000000000000

0.00000000000000 9.18071924223168 0.00000000000000

0.00000000000000 0.00000000000000 13.43691061232929

PRIMCOORD
 96 1
Ni 4.9781990829835525 2.995677855907599 10.248076041476784 -1.562255245522432 -0.2674803465090039 -0.711132167408685
Ni 4.734395903889764 0.5959728134168788 6.324135667186411 -0.30855500506212663 -0.12070712277478565 -0.5827891253551962
Ni 3.507548854942626 3.0845380370511744 3.3775820035779165 -0.5181654758375399 0.4149002026882854 -0.7183073450008854
Ni 5.308980395784772 4.546806268461862 3.3905892465414684 0.18127048618013944 -0.38706364009199146 -0.6389870127030027
Ni 4.997744834161843 5.06604020429585 12.178020207762247 -0.08933529333172358 -0.8977346073246991 -1.9119533004817717
Ni 5.94862864465514 5.97878730722944 5.240825490654536 1.0327815437609245 0.6898560316387281 0.8297574679537774
Ni 3.292086556021398 3.1344995109413833 7.819045945715187 1.2918644102348524 -0.44037392147935767 -0.2312365336856211
Ni 5.289765150497707 8.546505937596411 13.328407472990197 0.5140236857550244 0.2257379724648951 -0.5755710103402023
Ni 2.4908301070611083 5.82334855044239 12.097075642713516 -1.0371357069645621 0.5075535046496484 1.5344603347973509
Ni 7.982304839117394 7.301251546651869 9.70556071982174 0.31027018798102046 0.5776065527129923 0.16375124634945346
Ni 8.345879680903515 -0.01634810668068643 7.615852759933775 -1.3210024652513894 0.8088394868541876 0.16485527804690964
Ni 9.072506063481315 2.1187631000143408 1.6396525793750918 -0.3916196348937901 0.549209489627538 0.4560828475741822
Ni 1.4882588474678693 1.1881044139201846 3.40635070526523 -0.01694331272255792 -0.03868816059881724 -1.071633997851748
Ni 1.7212471393432331 6.68349931307517 1.0621100597536184 0.8101232386626176 -0.22989827449017183 -1.8441371121687467
Ni 7.4764747533164275 4.256860794665355 4.331092417834535 1.430220613549969 -0.7839895176900433 -0.01996693004023013
Ni 7.656774897698975 3.800927917720194 13.204774399802051 -0.0673670165907485 0.6447545113143992 -0.27425828866278573
Ni 4.196515927359155 0.49954312929232664 10.853476535440862 1.2252095892197803 1.1709271737271318 0.702890496225183
Ni 0.361095129530011 8.98613385724113 0.5427760540803429 0.3415620561157666 0.3009751358323397 0.10815088337632987
Ni 3.3600146973873772 4.981669394841417 10.091146335891539 1.7163108618506766 -1.4154151731060203 -0.9908123984179905
Ni 9.245994114216941 4.7577057499403415 1.9430441345129434 -0.5789586958655125 0.2542067693285493 -0.041354908797702976
Ni 6.4961391956272845 2.3221527531866477 7.4049606230306555 0.5732395339935483 0.03037064187205737 0.7571556853266508
Ni 3.7109844117109363 4.73250467573442 1.4127162175968297 -1.7267950492114517 -0.058501595780318605 -0.6846876000639112
Ni 0.41093817214253114 9.084780685052651 5.190907166144569 1.5541824958166266 0.8739367335741528 1.2918780370816072
Ni 6.8849242923385265 1.2759547159516824 0.9291043903334777 -0.36380389823310244 -0.5590799546637146 -1.1194899409927623
P 0.1957586393726852 5.906810468695952 12.881710399560939 -0.3830388352033145 -0.11732535078674632 0.4811099657461391
P 4.267960284179002 6.5909209406553115 -0.014460550813022515 -1.5049062752893179 0.18531123190841634 0.4883985289877524
P 2.3356759525692787 8.720159241277651 1.7542830393150315 -0.8583566197477088 -0.02963042127192316 -0.43458431138077414
P 6.7374543998176835 7.938466904934052 6.131961180589679 -0.4847277650043845 1.1604596985369047 1.2687843884869374
P 4.386134501730411 1.4547492223853142 13.210915382875399 -0.5446259840219136 -1.1165496274175157 -0.4444666034914926
P 4.161840350938111 6.747213504328027 8.533123203217551 -0.16331390170171872 -0.8594693931959133 1.9462813843396802
P 4.807566235919343 1.6076173777961695 4.284036641571348 0.39925812527565435 -0.9774601454808004 0.2190844717041195
P 0.02598694376950132 5.6340145783663536 4.028950358579899 0.10095873650326484 0.6531746170572944 0.7504240230297722
Ni 2.7173184497423764 2.1940174553024785 5.296467075514218 1.2439850700550705 -2.0094009385079845 1.6232775508420754
Ni 1.903759837053148 6.489244475507559 5.481184981976142 -1.325824312120065 1.6342073103807015 -0.04559080125592148
Ni 6.517511909926514 1.103302110663319 9.816711687184615 0.5169506295938323 0.3022362619329505 -0.370948993918316
Ni 8.45600240771591 2.8181502887236642 10.830364992925018 0.029106944668285353 0.7812291813360868 0.47897132213658156
Ni 3.3561863374806853 4.7093600826294555 5.365842098226228 0.5180441197683272 -0.620600539776015 0.08138698501892436
Ni 2.1164036551797607 6.842390020281684 9.647339352866663 -0.37788454469588467 2.0130997275158102 0.5447321705824748
Ni 1.3079954259621254 1.5539744355064795 12.029206257950422 -0.07489494953667747 0.0034481064496005133 -1.1613865812265483
Ni 4.877156087460649 6.537645227133649 2.2754329912462055 -1.907026552604116 3.5059040773352717 0.631497389194177
Ni 5.8844829595998505 8.42007825348357 8.478004919352308 -0.0967891785066075 -0.7899740174082525 -0.6924289345722268
Ni 7.052802923642526 0.9059570430127528 5.41754699069265 -0.6565399339851016 -0.7403162451718088 0.5418142256047315
Ni 8.132960441200881 7.608970892820929 4.548165932975485 -1.416034294747258 -1.4067618683063965 0.3696583001313505
Ni 5.1836360365376155 4.354727261344817 8.190441842188383 0.1288624048920684 0.2767517445086008 -1.3295035607438652
Ni 1.0754661700467967 7.984131802238333 7.599366024393158 1.3776238132898597 0.1742997112892611 -0.8972095880591645
Ni 6.201401386408013 2.005142519186478 12.097868856852457 0.06407806142683158 -0.12607147241049255 0.16435468426140726
Ni 0.4548467978637189 7.412549405521955 2.8211734995564544 0.3926922991326785 0.6620621493549115 0.03513361047833949
Ni 7.205680259772582 6.388063769196645 7.593198417234127 -0.06674738072887859 1.5591683790669921 0.3067035536756847
Ni 2.116578088844574 5.694855204509393 3.2362264700447394 1.0668777141136851 -0.7867264570052322 -0.282518728899365
Ni 1.4148406360198715 1.6797227463984672 7.410940025446072 -1.0173307564234932 -1.4208502280786626 0.18184178530257714
Ni 1.097307101025262 3.5330987964781735 4.302015243982078 -1.6010020272733265 0.593449947503152 -0.40987626711113284
Ni 0.6126349006942291 7.698657338692568 11.512489675321266 0.15162438117893243 -0.09290912672591095 0.5149783363588099
Ni 2.5045920051429573 5.4642171767494085 7.697025006818683 0.287393283382847 0.5731019799744195 -0.6638562651408567
Ni 6.676622954393845 1.8588385780041234 3.149154693001461 -0.2344244444952995 1.470181984434255 0.976105431225119
Ni 4.077864312409308 7.213336979585966 6.555075740608098 -0.07452702467429746 1.2215287979340834 -1.6738089839327235
Ni 8.093630240145082 7.124651232107204 0.8785379070479422 -0.05427675906569361 -0.06989441099829252 -1.1713490917558989
P 0.4552085182002264 6.172867711132238 8.544854326212205 -1.5671647670089075 -0.7517239727881182 0.4495571306405225
P 8.454258071067777 2.016489888118543 8.670865205673332 0.41407205036003525 -0.16941435817250178 -0.16877415348534158
P 1.8319390707460723 3.950252315519579 11.17295271061834 -0.5169930527959935 -2.320117469997804 -0.48690034717567104
P 4.125824389513765 6.450024443082169 4.338523291955582 -1.621207298576608 0.07064620156265253 -0.6094288394299118
P 6.614203244548286 4.054609550673935 10.999763951328655 1.0632707134887172 1.1232553215724654 0.1139194104289909
P 6.070511872763634 8.357713627953217 10.88559069120491 0.4859477534544147 -0.706519608337338 -0.31291122514829334
P 2.5502109988512354 0.012874122535141561 6.0231081472427395 -0.9260211129742181 -0.5714873271891319 0.5312745024156721
P 6.925438806171216 3.7840537558293073 1.9667744575029127 0.47892632783125905 -0.04001099317529883 0.056536244523831665
Ni 2.181228713455903 1.42557289676549 0.6968340306996086 1.6916814933377702 0.46114663525033484 1.248529494892643
Ni 1.0790191083774676 3.8465560921476727 8.726668371190947 -1.1508244894399857 -0.19477623397605812 0.518199671509585
Ni 8.926036869353347 0.5895830328531916 10.38943249308188 0.7534628098560959 -1.2567670523110872 -0.8953157134705613
Ni 2.539460376667216 2.0333181464134262 9.743130977006764 -0.30627469366838217 -0.05150485274751129 0.8053636124904453
Ni 4.90379853458108 2.6573958955194077 1.4373324799896665 0.6232282072068492 1.7247726194647843 -0.2979849428557642
Ni 4.011285736765832 7.315141974802528 10.990801733244933 1.6515422021147232 -0.4843672963411722 -0.2578194263804721
Ni 7.043704830914633 6.529713085744245 11.950546773910744 0.27334271882705186 -0.6570698383466426 0.09559618663977085
Ni 7.605500580963065 4.229309456344055 8.90941058688088 0.2871125189176346 -0.18482323652840427 -0.22583233195091426
Ni 2.8724083391998008 8.411099510105288 12.788378290094704 -0.6296089139222124 0.5656524656749097 0.7714139950178779
Ni 0.11258407763010375 5.183066831947172 10.67601506943517 -0.2436541906236836 0.860382391928486 0.31929655984934685
Ni 8.546524299034813 2.9619019899682244 6.380207827776606 0.4782156749174796 -0.8543611254350705 -0.24877428545906835
Ni 3.397885164090265 3.316929582178492 12.60572971774062 -0.2262586208550555 -0.38772647048697095 -0.02556807827709145
Ni 0.9468718362025923 3.4953568598440965 13.42812293651668 0.4738622830447904 1.4806641149125017 -1.1369893833291065
Ni 3.4488289749349486 8.92463221931564 8.588107448582463 -1.2161752469316538 -0.1876077412520769 -0.39114578058116506
Ni 5.549772298980731 8.275371757442139 4.285796585442122 -0.211635471625242 0.4691620493556436 -0.7717700928057161
Ni 2.897701220597729 8.244396010858978 3.74841420389219 0.16503345549598672 -0.23939927200207162 0.9137998883176779
Ni 5.346869223926061 3.4189090110598674 5.5302155309394 0.0038849368767029865 -0.8886899806239276 0.06468715576574022
Ni 5.820566792524577 5.942349032721862 9.664806589217914 0.25330354078798956 0.8128558071024323 1.8902056243920349
Ni 8.20625012258007 0.1490131714184812 2.7765359247307315 0.5013833712831945 -0.7463118006336115 0.28646640069320345
Ni 4.635951051900658 0.497501337342091 2.1254099407156475 -1.1417983746819755 -0.9075479938706952 0.9123942662194029
Ni 5.995220794598693 5.395591300724176 0.7874596641454782 1.8127071757942395 -0.7469252658478943 -0.7379076357303163
Ni 7.628920595644051 8.858099547268168 12.346303708782997 0.08792684301997115 0.4471829739813911 -0.007286506359084225
Ni 9.137652446929481 5.224132188931903 6.647508139592666 0.8438735956401853 0.40992203274740374 -0.6942395054184044
Ni 7.12092386011172 6.279327330983555 2.75107320002759 0.7088965932099468 -0.3798270131342362 1.3247351928209443
P 8.654921050637476 1.7813349465118142 4.450264579563061 1.151490405158759 0.5717698914265573 -1.5325523191413606
P 1.8653109850406167 3.2796007779084464 2.0453127560491406 -0.4783755975341117 0.3700851032561239 -0.4837566593403669
P 4.828938950218572 1.4167226834560152 8.3150159390946 -0.8064000241747595 0.7677440023654585 1.9669646237206444
P 8.410447679042036 1.7135904195298493 12.865089625519992 1.0349824080669852 -0.21903330675120988 -0.2823189541837331
P 6.397115958328534 8.469993823777777 1.8260220972212213 0.8568080443136663 -1.3076856935378254 0.6317046201089767
P 1.6754261698125392 3.700316415999723 6.4846394267564875 -0.6568278975391656 0.4324096723269585 0.15279011935225945
P 6.901550574810994 4.610373568207508 6.621790190895744 -0.028469311084286453 -2.7839563073683213 0.04261577778799757
P 2.107333104609469 9.187421125716474 10.597731994882722 -0.8015725208791292 -0.9856138849361864 -0.14844752611284756
