# total energy = -340872.66812797904 ev
CRYSTAL
PRIMVEC
9.19688976964807 0.00000000000000 0.00000000000000
0.00000000000000 9.19688976964807 0.00000000000000
0.00000000000000 0.00000000000000 13.46057781374320
PRIMCOORD
 96 1
Ni 8.082990096188713 0.12455715728796918 0.98471650878784 0.1490720470707239 1.0694174498164035 0.7781729110082662
Ni 4.505878203101228 1.0058730340787745 11.430601881572096 -0.7317416161289205 0.8285505921298699 -0.07085574647029731
Ni 1.3072367189741607 0.7142819642825655 0.2038444639240658 1.6816145960200717 -1.5079180655324482 -3.2575393686097964
Ni 3.0137288178518404 7.585410767456563 0.47680723343476444 0.4556200490051508 1.5827055429569838 1.1499143189208907
Ni 5.173554008644296 2.4158390120947284 13.419590245924908 0.2475067316005544 -0.5005395352256605 1.726013690960737
Ni 1.9930763818679484 1.4064619630029793 6.297140794312472 0.24184079156402868 -0.2133992483938841 -0.9682741081061582
Ni 2.84597754793937 2.879242698338131 11.971811255505166 -0.4695942517970557 -0.5167979060660519 0.9003854146839848
Ni 3.2859659527574903 6.441611977079689 2.8443009549292246 -1.1138864787630558 3.0392743074831787 -0.6224972425780957
Ni 1.109669132337116 8.434863099853796 8.844474177669674 -0.9791647868767329 1.4303509684802465 1.9366412901467551
Ni 2.7635274309017985 2.881440754999813 1.0010097187536806 -0.6470062834630534 1.9124839761742611 -0.49762930355740104
Ni 5.722084106856439 2.373910391506408 8.44116848749919 -0.43114828911603165 -0.6137436647551817 0.7037392173787235
Ni 1.8519593048100016 5.692433334148226 1.178689031202912 0.4077481650245364 -0.4606735522686582 -1.1940048814822017
Ni 5.333212015534674 9.086205229115913 7.753925379222254 0.3273202014847718 -0.004309683118947416 -0.004417926562037554
Ni 2.6297402750127246 0.3124339811450376 4.0502072617998435 0.7109210798391434 0.5589195178264502 -0.6394567532505696
Ni 2.273259629558926 3.9489329507240676 6.121601598119198 -0.5695908814973674 0.7124616848533859 -0.07611519509702375
Ni 8.629156593722813 7.337894872327488 5.199026634317354 -1.085590202921524 1.0286960608376414 -0.3105319262828394
Ni 2.3175702446048847 5.588140603840802 8.513937038646583 -2.0792105031019545 1.089099244516047 0.2805415505683362
Ni 5.738399389357795 4.765322464298092 9.215945753493942 2.641467827052386 0.35220359499001275 0.5265043347205384
Ni 5.509093336028429 3.24526971540208 3.090750930530731 0.5345374894376601 0.15989664849005367 -0.26097005619431185
Ni 8.599974862394289 5.508799035554898 8.82926436132202 0.14727587440224957 -1.693278405511245 0.5747323164889908
Ni 7.969730398328401 4.854936958488176 3.6235607850114384 1.132055950583231 0.9149589416227855 0.8375360834579318
Ni 2.5311404194901583 8.648047005367562 11.767277944535241 0.48217028868985345 2.656039039998342 -0.017147715423880144
Ni 6.429058222505647 4.158290950081934 5.096807802659341 -0.060307024420173556 -0.44971088260956743 -0.5191365815015575
Ni 7.418579186523876 1.2795080962336949 12.213953407925365 0.5101482619600182 -1.538581813164892 1.0362928993482927
P 0.6379569758503509 8.836509671104752 6.686959245594435 0.14289162929162488 0.5241690017191425 -0.6254619816333745
P 5.644857823224037 7.053527039778497 9.64206800756387 0.09126233515110733 0.6040395500935404 -0.3302168063062765
P 1.3085702679948465 8.50558718239913 2.317184894922355 0.2647272092438989 -0.0651862068893458 0.2713442003397843
P 5.591975706886499 4.809614685564456 0.03614745566140216 -0.15472924535650126 0.08579077051357482 -0.44260846723683134
P 7.322545263254904 0.5996896370905483 7.680673071671495 0.4818499292359572 1.5142360373306762 0.7064499314416672
P 6.97992433072644 1.4175350183195699 4.566191406395416 0.30480916486644927 2.211767840347107 -1.9467436686880795
P 6.290019642542011 2.1722317951297323 10.706637431710373 0.05598988510205841 0.21168715079878384 -1.28899223089338
P 9.160424129784424 8.991688792663584 11.914751911821451 0.12577810953978982 -0.13103910082841302 1.031422972850501
Ni 6.226009289549094 8.792300221846569 11.043973831361003 0.4936898592936788 -1.4823232477824795 -0.8729864538457417
Ni 3.520790139965556 1.3694076940075108 8.190774885552374 -0.30843442032386237 0.36738467360582533 -0.7787627220734653
Ni 7.517721658544513 7.688287176735121 12.96287269856453 -2.052681089352858 0.46091883551024493 -1.1560651690136348
Ni 4.050199904288005 5.318754504772481 4.593731492895026 -0.4292433587838349 -1.3254167922690012 3.357342651352379
Ni 8.54357033726418 2.975957191452141 10.10988987966615 -0.03207913992273184 0.1077436206355822 1.1363424937737268
Ni 7.618160892026645 5.769558451992852 6.752472370380318 -1.2146827215465277 -1.0658428450912676 -1.0710411014627554
Ni 6.481995520181973 8.983071306923016 5.577901706428874 0.14615873007867086 -1.3005241427923797 2.5915637431330913
Ni 9.008914567254926 3.802288542897623 5.729549222305341 0.2011561693604729 0.30683622259880705 -0.2815658780677925
Ni 8.705095312783518 7.384044865333013 10.45966323339039 -0.010089265915201978 -1.4670141282292348 0.9049699487308738
Ni 5.6885890342127325 5.709760274527344 3.1673012427629925 1.3600698635664963 0.4953045120789664 -0.12856544247693988
Ni 8.655836771026326 5.725413380963255 12.92076841738107 0.28359216446920193 -1.6407021740764258 -0.4077473936935881
Ni 6.478325961152638 5.913609336896309 11.418689150216963 -0.25800351736682015 0.22401147669209162 0.43731713693090485
Ni 4.43678197005011 2.7686960829681806 5.892812409996469 0.6841625807983766 0.013124196086783847 0.6970196392667029
Ni 1.9131646064145793 7.6900253889069115 5.187559032428436 -0.5355283925960196 -1.643975188400743 0.579063596874493
Ni 0.18872753616336796 2.5407235786595 12.633707735499273 1.3652262109564552 1.091974766291629 0.22028749087328514
Ni 5.2496398779417675 6.820799743444337 1.143309515839629 0.25370360443988565 -2.424304997851012 -0.14619549685387725
Ni 4.01979498661637 4.342026414463039 7.871664882103089 -0.1257462278605899 -1.4839312156995477 -0.9177257057346453
Ni 9.24646103384315 0.40980237312367357 4.253959756825931 0.04205630574010176 -1.2519495763177857 -0.6258936698541543
Ni 5.162784450691034 6.788049618874254 7.249813499666703 0.910514789808503 -1.6802907350023255 1.3332586569109233
Ni 5.076563608836351 3.7512641982992467 11.60381242526856 0.03673977862319479 0.6761901041158613 -1.6350334058264229
Ni 7.07965540369414 8.546044300619798 3.392630560943776 0.23289078145959247 -1.946192681280616 0.13351121651798942
Ni 2.876943475888673 8.01161303446773 7.509172229788447 0.8797777657359621 0.2505537459569943 -1.1459800168634908
Ni 7.87395398797377 2.9811810248573103 7.894346251722504 0.5271280843474664 0.8061462562927407 -0.6424240634090097
Ni 0.44980516498832723 6.822087308016034 7.388887947500551 1.0591839450138532 -0.18474790320577858 -1.8034193227344104
P 4.379816434642334 8.400089659528192 2.8435201389853884 0.5965098173753984 0.35668425646918567 -0.31480047175120623
P 0.8282433848344515 3.8312495488709986 8.02490070084764 -0.1355940671889471 1.2742143012532572 -0.573616971937625
P 1.3625008297693384 4.513539212302823 12.812276387191956 0.3547636424077052 -1.103755303866325 0.46534524671271466
P 0.7330721298285178 5.680412999182459 5.078325732921615 -0.040355778109227275 -0.417804520819274 -0.38029443968895793
P 7.590459859955573 7.221876107527826 1.7149992219406751 -0.35777517554051935 -0.8835840268559298 -0.4525918037017883
P 3.6005823558515537 0.8630904002784401 -0.007639856355059733 -0.7782197050858016 -0.143123799907089 -0.6228944780165143
P 8.310585528015682 5.018797944016163 10.826262296999763 0.061515957126610184 -0.23165922304533654 1.3206491956770288
P 3.7200959387743913 4.440479119748839 2.5094421973901313 0.015181592836444822 -0.6979259531310561 -1.359465397213278
Ni 3.813517945340777 1.2942507105796208 2.1239444449351907 1.050665623130197 -1.2320865188452716 0.5914609420975814
Ni 4.539695166887859 7.362487355646892 12.011950161338827 0.5985337897839628 1.0167345176003908 0.3286273503319695
Ni 1.657849748736942 6.690856887490757 12.176923050843373 -1.2388166384802535 -1.561275655217982 -0.9272179614957966
Ni 4.427134432652183 7.862044015685576 5.369424769113641 -0.8777571357615077 -0.727415735060057 -2.1265625100233567
Ni 8.659653480292427 1.5534742464213371 6.203038217901047 -0.5539308063626074 -1.0413263480071422 0.149490108444749
Ni 6.236686878604378 1.1114073445089063 2.313765491295521 -0.04282635113690688 1.5760325018121826 -0.48019928100641174
Ni 7.239147866568157 4.763979718387609 1.5350979409162873 -0.9448053355602568 0.4570565243413613 -1.4063420071601584
Ni 3.5516916896862742 5.368399315901183 12.629131363135873 0.18923422111190635 -1.3423071402664366 1.9942550840054813
Ni 8.23831636798431 0.36232250985338177 9.893565236286426 -0.11929070204323328 1.4370934294104025 -1.03617951369888
Ni 5.487333494766757 8.861267698440518 0.5325311887198336 -0.4323672491247973 2.459247832474784 -1.2280066923489434
Ni 1.9409024260448429 4.707271695894171 10.684602603443745 -1.241271270668333 -0.6297639514428379 -0.15514216452420376
Ni 4.012603018794464 5.655093961569025 10.415001297154154 0.11042116746774532 0.8621628808676765 -1.3667074234876722
Ni 0.2609157635645174 4.094676063350325 1.4044496835152134 -0.5740543165853597 -1.3876462305228683 -0.7235251417563991
Ni 0.4617528445246919 7.649752208482201 0.39317899481409074 0.6574130806186742 0.2211845487662578 1.3078638709869024
Ni 0.9913051606390073 1.512373345914822 2.088731393277248 -0.3581114758340155 1.0317312481195393 3.2955852676389243
Ni 7.28993309203179 3.535514360531886 12.766886976972712 -0.2933340743473142 1.402059577734721 0.051152868724731265
Ni 1.202925594887141 1.2651977357082669 10.729992013662988 -1.136466678056417 -0.7094473235070943 1.4446491302704734
Ni 0.2153479336831951 6.5275936997996284 2.817110350241932 0.5346490753148598 1.0793257100690508 -0.2029680257582311
Ni 3.299181883396976 2.9433542171188236 3.8925302649719185 -1.3178315237225757 -1.400214296995866 0.6073063937702702
Ni 7.443990193035287 7.694522668018052 8.201220712984751 -0.20889339010373056 0.02510296571521483 0.8183841931198292
Ni 1.0067467386095688 1.8186757606316446 8.54276928816279 -0.18227707306778285 -0.4249498736148037 -0.7194558567830319
Ni 8.225854582308248 2.540833941337074 3.1961868342400255 -0.19493409971016104 0.41448754063089904 1.0903171760835482
Ni 1.53470339434396 4.526819521170894 3.319351582412603 -0.009453689213732106 -0.29523746201761414 1.3933031716983295
Ni 4.001474782139087 8.679537156035341 9.601376368653357 -0.13660193962817122 -0.8584080418109346 1.1543286459385023
P 4.153628126954433 0.6430373377746736 6.089605618512537 -0.6383105554612685 0.37922537499449527 -0.2353209881676399
P 8.095801363677094 2.2577628702495773 1.1147255823479645 -0.31952924468544325 0.5880262053844195 -1.6879127703239578
P 6.413616644535086 6.68918305354755 5.036948006032186 0.11025096043846819 -0.16746494775561482 0.040999839451129394
P 6.020302455440968 4.221105707401133 7.062927180840862 0.0258365014471297 -0.9115311468881591 1.8411093810860166
P 3.2014189448460133 6.004805696131618 6.593139013699803 0.1516333800399969 0.5907585167139181 -0.9472023750375237
P 2.3693855217258744 7.227090744043198 10.141859188292399 0.03354878248972287 -1.097307748468768 -0.7177702415504928
P 2.91043854853238 2.155401486799698 9.986456582311476 0.760039434632349 0.6231734427095138 0.20857971551805368
P 1.1332315639991637 2.2888943422152415 4.284326967249395 0.5584114678417802 0.7753922629393355 0.39640702898010444
