# total energy = -340891.886734103 ev
CRYSTAL
PRIMVEC
9.04602811125828 0.00000000000000 0.00000000000000
0.00000000000000 9.04602811125828 0.00000000000000
0.00000000000000 0.00000000000000 13.23977652735869
PRIMCOORD
 96 1
Ni 6.232532547153977 2.160743355025902 11.649414578444693 0.11394872100502956 -0.9601586780878755 -0.9471468392092397
Ni 4.49372308802767 0.2994407226953412 6.195963977932998 -0.49885417710343766 0.43588194714627515 -1.7450591376279623
Ni 2.5978564863374456 1.8226480489939711 4.656521744725057 0.27809951678574685 -1.0857694088118655 1.1285150273095081
Ni 3.2112857543678754 4.293724449337102 4.82622975780364 0.45706552320242577 -0.09269983892858229 -0.30783818150076014
Ni 4.95594799377519 4.358095986399931 2.460479882845183 0.04480558635046477 0.8374779765264867 0.18940365681023508
Ni 7.019717925907118 6.118190750010336 2.6720918126095645 0.49870531023039916 -0.3433111775963894 -0.6798035324987324
Ni 5.255172516395237 4.41237215593014 11.64061007914407 0.21921611218597728 -0.22515458915759934 -0.4648495380232187
Ni 5.920037501083795 7.95212824226659 12.178463399514984 -0.6926839880058263 0.28199988028141754 0.24136385192761015
Ni 2.023225633492861 6.264673085544116 0.24135165225563437 -0.1606345550973427 0.787439938132489 1.2940729878503971
Ni 2.5411197971218664 1.5434423869023175 0.4557723737932042 0.9472566253142267 0.2685555818510536 -0.3991923050347254
Ni 0.4185072603965877 8.798049482479673 4.675614291960134 0.8317523868966191 1.230625618029029 0.3445895300881807
Ni 8.599932417666153 2.338226429389688 1.6031778344844407 -0.4123231859897286 0.9589715997583098 0.1629377493092226
Ni 6.882643459758574 0.6401774689777425 4.882379359785467 -0.17301698792209558 0.6211972928197494 -0.7227453261675811
Ni 0.9194564038982619 7.563293763752168 2.551781446023251 -0.05451278633589967 -0.744689177428524 -0.3138733319512465
Ni 7.57551494792472 3.8226434819279023 3.9413092805774506 0.28384824634406597 -0.9598252060078566 -2.0800389125405205
Ni 7.680267955118025 3.7499948290117167 12.740756374422528 0.10328558486422856 1.1675510581660473 0.12056082700490849
Ni 7.872260858802886 8.993886948172925 7.032744206594368 0.41589033451569657 -0.8654256107793483 -0.0033475763159942344
Ni 6.84314850039709 0.7558164665731563 0.4085222544086802 0.00755184420532893 -0.022891816996508964 -0.6768408503259828
Ni 1.9224347866752616 6.444300068604345 9.356087205696047 -0.22149745202098628 0.7458723991033477 -1.518914673753268
Ni -0.010490678967364027 4.998084393387144 1.4541508512025185 -0.6344919530461267 -0.408570918036148 -0.6948331731383453
Ni 6.25528330821539 2.059816817784477 6.847016582078944 -0.12266861737653068 -0.07340705213724132 0.6256599565767934
Ni 3.467713517313351 4.125938717262714 0.4154298015842248 -0.253532368969344 0.40271934435137735 0.12555468067507408
Ni 5.767096301375918 5.425843931482981 4.606475498006902 -0.24333691649358088 1.2883034323564715 0.7133075777934489
Ni 5.246542605439934 2.982502653769787 9.301300840172253 0.06369419572485159 -0.1508864745716434 0.800934373074498
P 9.258609919028268 5.57855898048448 12.47540470460346 0.1621237380483595 0.2104766754304504 -0.354473364860796
P 4.317642148043415 5.971961703267695 12.664071383698943 -1.4568736973611232 0.965344593164189 -0.4379475714260522
P 2.499860862250652 8.544109377304332 1.3621084183103633 -0.16571325517183072 -0.8986974854586007 0.05838461058648009
P 6.334146582542784 7.801810390752674 5.8922571483125825 -1.4399308988591977 0.12377110641209005 -0.034419100909818146
P 4.515668752574385 1.0720448085041914 12.740848643910729 0.6845094226148339 -1.5040557543635644 -1.498264087382452
P 4.248141512959981 6.103463816011138 8.076607923275649 0.2624366134375093 4.436624652667688 -1.8279569028644584
P 4.54408232732345 1.0779518649547293 3.8343580885181727 0.6998887332843817 -0.27346638888910973 0.5536608405306723
P -0.012166908003022003 5.709427871250071 3.5501535912127866 1.643303616255015 -0.35118183859371777 -0.8964693674590303
Ni 1.4081228502352496 1.0714749087241242 2.6806837302461965 -0.16939096113373409 0.061717274504138865 -0.2715300910983453
Ni 1.94654245197493 6.446832956515755 4.6738665993012605 -0.7823488967628267 0.5835064631371951 0.3913710092180937
Ni 5.806319879889751 5.31561807719538 9.343151385291346 1.5789201077726227 1.2452122575939524 -0.03385911464129007
Ni 8.545728616361984 2.3263851784038474 10.351122271062302 0.7167325443145979 0.6392263824073185 0.28867832074285765
Ni 2.388992739956944 5.41278146668271 6.8791498836464795 -1.0453277558570513 -0.43041449627380063 0.40218404067319763
Ni 0.4784733816992144 -0.22985595954913596 9.251227455369333 0.14752398585731366 0.6261042432030637 0.37618273151342957
Ni 1.3888005338824951 0.9891922357163264 11.416421456296712 0.37362011299257586 0.6855512336157871 0.1336030049008473
Ni 4.292494189494418 6.725007371386335 1.5554220421204603 -0.11720965114448846 0.3030309899201039 -1.0376062188430775
Ni 5.479866812222049 8.145441866076688 8.030771698107388 1.5154367425069966 -1.0859954087797425 0.7510143483156034
Ni 5.341489718004779 3.073912769286915 4.69392435775115 -0.9578976499678407 -1.3876675706791068 -0.03246583383818925
Ni 0.9092434379983275 7.464185478190005 7.173893908471806 -1.0075443664606905 -0.2812218644648124 -0.18955972277212516
Ni 5.141219698466561 4.409703577594906 7.180023497217418 0.4231323607900906 -0.3603925585587084 -1.4597636173144086
Ni 8.085412422576276 6.931320137798917 8.845732906617613 -0.2502264445245626 0.8390957146355678 1.3753386168001087
Ni 4.548759123931302 0.4892734348329006 10.241351431995929 0.3227544364909603 -0.9030357078226383 1.1906879012938267
Ni 8.012374790445122 7.048203868882223 4.770622917517115 -0.5186982084125583 0.7716898743870839 0.1465752487907992
Ni 7.317567452232399 6.068808481766099 6.873046528382807 -1.0852022234544858 -0.9113442276883337 -0.12785761777663784
Ni 2.077583217277366 5.148854546313811 2.6198609500678183 1.071501843149258 1.039464612208055 -0.8414991818707378
Ni 2.526275264755354 5.250378121420068 11.386883460235547 -0.0708079239514974 -0.791072906899386 -0.07974225032664978
Ni 0.9827333715422314 3.4372193560656283 3.7209199895972085 -0.6499882489095128 -0.8520052236083843 0.5890438480156565
Ni 3.547798005455175 2.5665572285750247 2.5134127171795204 -0.361109639230391 -0.3660597841468147 0.09599496474008629
Ni 1.2187442487160933 3.3211949976665505 8.317214182803069 -1.1502814724523223 0.4956194722162238 -0.854529789802451
Ni 3.5015185249024166 2.5977569800266407 6.927554276236346 1.3713793750420447 0.4566631455576845 0.0913294409436169
Ni 4.182340703432857 6.813396113466281 5.882433161627615 0.19394679609622728 0.6477549887036199 0.2293560288334566
Ni 0.9148429294881941 7.532338255063438 11.508265781170083 -0.6144268068651353 -0.779473889207877 0.32237031367866414
P 0.2401485304977147 5.492395561355273 7.874661674701773 1.0480150728812274 -0.8441157935579785 -0.4983538404282515
P 8.563630706278698 1.5876593730129283 8.215108948080013 0.7970954589443822 0.3520341592916841 -0.4094620623918496
P 1.8867210671243837 3.342091322935681 10.30001673443548 0.468853002755657 -0.14265817312458012 1.7382295163006385
P 3.895545423635229 6.015572605485219 3.490508603913214 -0.06011933388939968 0.3833419682660301 2.2928115830939997
P 7.061365839993298 3.95402799630403 10.427462608109366 0.08709971913298548 0.14729258657279795 0.3063034900237886
P 6.657361172095183 7.964693175512833 10.045163885009208 -1.0924658469954345 0.5112934313080549 0.5253252268107726
P 2.259390293147058 8.382330207991286 5.869311897643686 1.3829688796518569 0.40428488906628435 -0.7527015062100392
P 6.910260984021195 4.036428267679143 1.7441158593007107 0.2429787618232138 -0.5938726368628675 -0.8494130374011759
Ni 5.318286655530615 2.5788598270018723 0.6916050442104417 -0.35748515510392626 1.7495871074053027 -0.9402573111782582
Ni 1.4948018929749947 1.0259643405730434 7.1763562373628265 -0.2759739858023118 -0.00699237215743312 -0.6188899848428115
Ni 6.772001488171241 0.9880976662974671 9.230825043242927 -0.25309502432160924 -0.3118719852505016 0.1414078456572468
Ni 2.5287357844407237 1.4427148622825032 9.375390525389466 0.21515891139746815 0.28848677355734187 -0.5770187985303223
Ni 6.195977546975381 1.9391699389470762 2.609149548011031 1.3733367558787315 -0.42471770299933953 1.6485754061769158
Ni 4.147413988340167 6.736631517694054 10.343734379786413 0.8992137629733868 0.8221161493584358 0.1262874450760406
Ni 8.257051762687308 7.3913559047087185 0.2450406225780376 0.10433716605719451 -0.692597084718975 0.30703368332159375
Ni 7.6656043433166134 3.6930772192310366 8.222059916191181 0.12715056440728423 0.3301255321440508 -0.14310168841990195
Ni 3.4420408891255616 8.038228339198014 12.358483884804308 -0.49609641185264236 0.8687626455723811 0.9501555441285766
Ni 0.3026611087541337 5.036683795951377 10.08640653702956 -1.1939501169848663 -1.4671876776926216 0.8796816064777302
Ni 8.71417470849899 2.413932639856075 6.064823706319756 -0.09326959538912324 -0.016234459580991397 -0.35970093180832247
Ni 3.599161353887264 2.6778324221402094 11.58534789253406 -0.5361223174262767 -0.041282917909186964 -0.5416920982045703
Ni 1.1812665536554834 3.524594942981011 12.647138123408345 -0.16379598354445984 -0.0228049137096575 -0.611492921047792
Ni 3.1517628884497455 8.352577821060477 8.11406300326562 -0.7014193109962953 -0.5154308505151962 0.004133819662715461
Ni 5.644848275537377 7.9978106849545165 3.4764347931540303 0.3638419505598895 -0.47848512652878233 1.2092484379048336
Ni 3.2150036719806954 8.279133117657848 3.590667133355786 -0.6113211713566181 0.33989083906093076 0.4590874387284609
Ni 3.434668376097709 4.604500750038828 8.967234635125115 -1.6680607685950368 -3.809463943175652 2.486347002684421
Ni 7.541266684951158 6.370249281308629 11.370399787549223 -0.1948376833416128 -1.3595458727422263 -0.7038155791426137
Ni 0.6701713848629619 0.13053328311732876 0.25967347788338213 -0.31644392089190015 -0.4234848590335029 0.7753778647616324
Ni 4.6273600634393 0.08256129067805293 1.6692843997665852 -0.3211914628792146 1.4910457152571417 -1.2802013720746275
Ni 6.245974945140959 5.668413179141743 0.3037837208605836 0.6462277534258161 0.40103141512599316 0.3985449012587136
Ni 8.056845065346876 9.076694290819514 11.453016258999632 -0.21379365561882535 0.2565225619459195 -0.06869139182912687
Ni -0.07200819411572919 4.863624229404304 5.522575825422546 1.4646199169654452 0.05252532359222568 1.9096403360778789
Ni 8.04839607495667 8.990530871690307 2.233047354265571 0.14918363294792372 -0.011152674182709824 1.5938615595738035
P 8.57238726162957 1.670439577574753 3.8157033690506394 -0.2771528366017614 -0.7260005998800851 -0.0687466705470945
P 1.6358837496405196 3.2992493331198354 1.5761555388810005 0.6646944447714359 -0.5347804586864016 0.0871557691819015
P 4.523466428930225 1.3240038334916797 8.21645952009849 0.7609776301759024 -1.88574501751752 0.17933341705842662
P 8.672608208667103 1.8899052690701559 12.674862390804376 -0.28753623671861445 -2.0412556211247366 -1.0773001949985899
P 6.437542685497834 7.789643482749653 1.320130324192874 -0.5892150834861982 -0.117212736468282 0.3454691044796567
P 1.7512658400334902 3.298353776322587 6.200544886641348 -1.6559626997799222 0.38351988860479114 -2.152031857939055
P 6.896682895610388 4.01355086222216 5.922707888624681 -0.09535476005292609 -0.19628984240710712 1.6248065858920921
P 2.4885080967905835 8.265328878540664 10.32100171078151 0.5371109065917911 1.8327476393848825 -0.546194356950298
