# total energy = -381173.4618235006 ev
CRYSTAL
PRIMVEC
9.17855292710097 0.00000000000000 0.00000000000000

0.00000000000000 9.17855292710097 0.00000000000000

0.00000000000000 0.00000000000000 13.43373999116156

PRIMCOORD
 96 1
Ni 8.858680185899031 0.12288888919333404 8.704687017149176 -1.5238812737299239 -1.454178409917147 1.3384240031619465
Ni 8.467793159968469 8.62918883151056 12.529192608860445 1.7801577811033082 0.6134171346536985 -0.5731642006709226
Ni 1.1294943442121566 0.8685187181833482 5.083340429844177 -0.5005508480795702 -0.920818485727356 -1.5699546710492187
Ni 2.625882977468443 5.156474220294598 9.828862390043167 -0.5999797782018699 -0.05002235466471385 -0.5138359952242505
Ni 2.0722234970834092 3.508290681671894 7.8047739771424345 0.7417231528216645 -0.08013665755159102 0.8297006465739131
Ni 1.6750399839668897 4.785880974492538 3.412640065617113 1.2546428068792328 0.33620516267922745 -0.33676283495491033
Ni 4.21927055617837 8.948060932570828 2.571781833998781 -0.47644727016314725 2.944032418859033 -0.5314493374306395
Ni 8.316576503425251 8.355952494719357 1.368978388978692 -0.05763359135306848 0.469640788764275 0.3762434095480359
Ni 3.553439982645253 0.969457098476949 0.6339947633224853 -0.5309819108759177 0.7512958841117642 0.7982455133884253
Ni 5.290995089387005 4.746183733852209 11.093232813339126 -0.01872045922763873 1.0011932274316822 -2.0125405125782305
Ni 5.227240861991 5.245891681177392 -0.12440243254167861 -0.34891155450230227 1.0976533047336452 1.1381366095596723
Ni 4.476756496451928 8.081064018433299 12.862080359968754 -1.2401764949422576 -0.21300612672052346 -0.7104109729719442
Ni 2.148019985686377 8.106754787578334 6.516183188851865 0.9907874587173259 0.5829534188472025 -0.5454754765064025
Ni 3.8600770728908262 1.6851363919910196 9.035304912162609 -0.22892614038488962 0.6368339709157419 0.2249609850895545
Ni 2.673932701110552 7.9885074925102755 1.2725650351904514 -0.578775633320429 -0.7017013610130883 1.0573090965886436
Ni 4.427458489635928 4.035497573033708 8.816146772459197 0.5936186118705324 0.2678608697768741 -0.6064738705666459
Ni 2.613161503358039 8.600533389827529 10.595553326171517 1.3366280876037884 0.31604360012968796 -1.3965918697519302
Ni 6.639095024427072 7.239142910406608 8.117042109499648 -1.2877709568917692 0.9354048681819632 -0.36753688291297343
Ni 1.653305171056763 2.8066270382058662 0.4279335005369193 0.27643986969513684 1.6051559015407002 -1.896352103609405
Ni 7.359225916024508 -0.2891308365870068 4.595145141232325 -0.7026740093390027 0.5641439994501833 -0.44798567238834464
Ni 0.8032619617022974 4.058655061619962 11.704495055067644 1.0910221725703726 -0.5083459186439567 0.3195094471911013
Ni 3.8285395656445442 5.37679620048661 4.396890237559962 0.648187191145032 -0.5967877536271334 0.0638947417714319
Ni 3.622361735239063 5.9498132486197255 7.096050190901715 -0.6661697437653817 -0.7847724186026549 0.7183744507933951
Ni 2.6774572653662485 7.6104061905593605 4.037403040584444 -9.230260349016362e-05 0.08821300680182227 -0.5894624236103139
P 1.0078509846268902 5.357585489582516 7.706063231601067 0.20891395892902084 1.6320015609786347 -0.48962545941631797
Ni 0.4217847880502243 1.8567018999792335 10.281808364676955 1.4942089434764718 0.3333692358923291 1.1273166361260325
P 1.7296799084829306 5.225441865652154 0.25247812189359065 2.6272262295317073 -0.7790658551361808 0.09197993004342223
Ni 8.058484778670245 2.136473366327872 4.797658893380323 0.3858727051076838 1.095797225361513 0.5997828316997154
P 5.735888719693913 5.536521375428345 7.097568323526434 0.2138057398036834 -0.8862674872253639 -0.4835514853080962
P 2.452610258668876 3.1310796993376533 10.280290232052236 0.04217637625773381 -1.271080640720282 -0.08685495011203107
P 3.920857449196088 3.155760827680276 3.663098905905877 -0.7650605419960244 0.8329826597592945 1.4282876581933142
Ni 3.8300081340844176 3.48142505777496 1.3098675914185114 0.31550803934119215 0.8583591908508702 -0.15680901070366543
Ni 5.847481564018795 5.349866326720432 2.358333671960651 -3.7626266711071397 1.774338860428686 0.30921372169204814
Ni 0.09881813460853354 4.029164371636754 9.249653490225436 1.052576981220297 1.1117468067122338 0.20991746049287074
Ni 7.491571468115353 4.279178969972457 2.898221651800772 3.1699177155350697 -3.5693702162097174 0.8690940607698711
Ni 7.416068693200359 6.613147255805059 3.4979978526189313 0.8072628863956871 0.7551767072234091 1.0538561050430366
Ni 6.04595858866769 0.9146758242485703 8.635503675802015 0.40748385561955636 -1.1975540322860407 0.09711262328429726
Ni 5.575438439084992 7.342052843830738 1.1491355292401888 0.5948339723348723 0.8223771163293063 2.0729357258368366
Ni 4.092542278370042 3.632357179182952 6.261345261046452 0.2557360614888821 -0.48277501215338786 -0.40618647696437143
Ni 7.803376083558731 6.186720873629559 1.3460338428162195 -1.4032289154524737 -1.406948530395906 0.26075691174224125
Ni 5.724369635993655 2.5496367397807638 10.355599339504222 -1.6160270399272492 -1.2183938518495276 -1.0152201378383934
Ni 5.2124174993010275 7.458253321635724 3.562506557050922 1.4034112066666087 -2.228475382909775 1.744406334535312
Ni 1.0126789033729742 0.67948275289229 0.4723586136983656 -0.8346291942237819 -0.5500399559486334 0.8721097076677432
Ni 8.777477529726779 6.869256413166236 8.78897091347934 2.558581631780116 -1.573807983357038 -1.4798845564339997
Ni 1.1052905006124925 6.676387484247107 11.00377772039006 -0.9843810409703498 1.2406603765572117 -1.4654400988738956
Ni 5.486782798080381 0.6488346474074064 6.338723214288109 -0.12671296264923337 -0.9488990460136562 0.19451526700518756
Ni 1.7645767660354232 3.406555602999662 5.193779530088484 -0.05850776642790569 -1.0757343931733667 0.7525721797210264
Ni 7.89307807957675 4.4600882446593655 13.023876216410711 -1.1538311374767936 -0.5722576296962533 0.1398433293836043
Ni 7.650901965288871 3.403985608229884 10.854488559924176 0.9447986506920374 -0.3946833614207783 0.8919331701515737
Ni 0.17603638103235364 7.497721098457323 4.715390607233888 0.451485458011487 -0.17581691926473592 -1.8540633701435232
Ni 2.2639726425671336 7.226403079190705 8.723790338986106 -2.3366751172461693 -0.16785549832581415 -0.73442404805709
Ni 0.7826551929250483 6.629163830352428 2.3887477243504303 0.04080315005929101 1.123084086101924 -0.28670577039751916
Ni 8.855109728879588 0.9528347394481317 2.855515681569252 -0.7941114366153936 -0.02190811292700098 0.15537819179440981
Ni 6.32954833296 4.811792028903555 4.9470288251104 -1.1963263305265266 -0.4852579264762417 0.7184870651118593
Ni 4.180481992260213 8.647096187924266 7.976538659725306 -0.36081884746284953 0.30377146763055424 -0.2583228483794519
Ni 3.6883463509531262 5.890648297598325 1.9770841264167587 -1.6758555820491072 0.6089624413164544 -0.4512430029833777
P 5.360660304753501 6.894194540985836 11.177838876870782 0.6195595001060104 -0.2736628211706319 1.0874591378094627
Ni 8.692474952716355 4.90176938150405 4.729388818031706 1.3948520042426882 0.3228025161200763 0.5338862290069063
P 2.453206864597575 1.595764823871972 6.809576545335604 2.8960844302248447 -0.22862532131501917 -2.0755556799581867
Ni 2.9428459395568765 6.0358438235380625 12.00146162213665 1.9207688418908726 -0.2959887383613419 1.4971384584184408
P 7.546908962640333 1.1988474887851797 6.785301109024496 -0.48969899296673075 -1.1999274176142238 -0.8146293540630872
P 8.872310336731607 1.8671470930078333 12.436687482832816 -0.028860118764801906 0.4149307988159048 -0.120535887304244
P 4.631029611060633 1.038103494488283 12.326853249214683 0.5087346694419431 2.1201419512089936 -0.33340497422627097
Ni 1.9971796498058767 8.228847896248313 12.645595932681188 -1.166185031056456 -0.418964088345014 0.14472045497024752
Ni 5.743360061631769 2.080952300747907 4.607046970582225 -0.4302561163190655 0.9928546256589998 1.1032428830062806
Ni 7.9923991988759395 2.1834675564038215 8.686108708529503 -1.6214852348283428 2.1026198831648304 0.5149958198603066
Ni 6.881307852925947 7.097306734773081 12.723350206585561 -0.3585621902181889 -0.9935637359108823 -0.723396843708651
Ni 6.314155899999576 2.9797161859504486 7.138205447968282 -1.085822373536988 0.5848174686391348 -0.40312352176833155
Ni 6.837673013156207 4.853095516274994 8.953802117315458 -0.38366387038182315 -0.15850285346632056 0.37946628736070775
Ni 1.9284139326088032 0.5460513780112145 8.56379439673827 0.11455241602729949 -0.7864024980069101 0.22006277645698877
Ni 0.35432701461991295 4.306595307034344 1.5837436733363328 -1.2553876554650572 1.1091008844489543 -0.627454586583371
Ni 5.225652972365387 9.034669756312363 10.787400682169658 -0.19660685942689365 -0.21714303170703247 -2.64925775541045
Ni 2.5080028245103523 1.5168751629925208 11.907800916317896 -0.5059787039633609 -0.384023567714087 -0.6594085137821482
Ni 1.706458170027432 6.007968558838714 5.514684680582702 -0.30859434294049437 -1.4751642681401949 1.1841256746952766
Ni 6.5677042411437245 0.918020488870382 0.014875680440642967 -0.30739158088164475 -1.3792927163518502 0.46702212019450534
Ni 7.305265204411909 6.777865563442362 5.8457862853260165 0.021919425780910638 0.05605776222551636 0.6561637815926054
Ni 0.03827089354310169 6.279791398506538 13.181118592833785 1.5653048309820332 1.7639539176499364 -1.3785972329467224
Ni 8.146406135454917 2.469755795204399 0.936773189992291 0.09308293329961388 -0.34064442939750367 0.6259039542667995
Ni 8.331684401250449 5.60145045757625 10.927608582545473 -1.5109216282454623 0.19625744650727492 -0.08579385583736837
Ni 4.584439277305648 7.532204921136101 5.798512149391216 0.4858299969296278 0.7359199158763261 -0.09287878770860779
Ni 5.324551878238113 2.069864609026862 2.439150828917436 0.9541068154668406 -1.3673103471789936 -1.9926082924306778
Ni 5.830895919200975 3.121947039352191 12.62669453900474 0.28592081260237856 -1.865458499354342 0.540855718346204
Ni 3.460360279215525 0.8037943177617515 4.841667300246955 0.7638346400087231 0.5025712209437087 0.16815863138852974
Ni 7.479079457823679 7.724559851101273 10.30343670637519 -1.3523107884463679 0.7166250722024561 1.2243531547567559
Ni 3.525271004257931 3.6369648126630545 12.265205499674622 -0.817675597088579 0.34075318706122604 -0.3050894151110294
Ni 7.335563607037048 0.8085276974145185 10.979341659405842 0.8257923126584423 1.8291740631010112 -0.2871220319993313
Ni 9.079837414391221 8.497320564162674 6.625843029967763 -1.6941011585228567 0.4263027880982723 0.5976333894568805
Ni 8.267030675685021 4.3540943175115006 7.1291783413394345 0.5709440530911521 0.36680026185726505 -1.0480168726534402
P 0.4278251936144786 8.873733012407733 10.676867960687307 0.39533770717532557 -1.3550287015981632 0.019744529616778903
Ni 2.2655605321927466 2.1379878275314916 2.4663000700943214 -0.2148303244134558 -1.1698884480499723 2.298828735822357
P 0.3219781233106009 2.9833876070501324 3.2705514797829838 -0.2190631315478808 0.6564998247757855 1.3622591579083312
Ni 0.4453580650760176 1.737288928712025 7.13061570269996 -1.393020350350588 1.3815550300234658 -0.2308590957415443
P 1.4987291642073346 9.087914540810525 2.8716763593947845 1.011272208934239 -1.0951747612861655 -0.09586666669233813
P 6.530182317504958 9.289888594056867 2.1979614090500976 -0.3028330149766849 -0.34524027629830223 0.9185160628464246
P 6.267905172696312 3.666271931591279 1.2203500843107515 -0.14726301888644316 -0.6430835513698796 -1.0488995323687096
Ni 4.350239325356832 6.8487882405355 9.366983847873849 1.505288341219085 -1.0133627729146804 0.23999139706011569
