# total energy = -381167.65556603234 ev
CRYSTAL
PRIMVEC
9.25528637390106 0.00000000000000 0.00000000000000

0.00000000000000 9.25528637390106 0.00000000000000

0.00000000000000 0.00000000000000 13.54604714688628

PRIMCOORD
 96 1
Ni 5.4647929273074265 0.5720868182854021 11.661940908954435 0.40176237975474677 -0.3137306357257952 0.12535079219438414
Ni 7.201676936158663 3.3952739363705837 10.81855018738945 0.3693284275957575 1.6684898857126556 0.3385633784987589
Ni 6.70236350687273 8.154906616457577 2.577500921174957 -0.23522611446098846 0.31484212362241903 -0.6393706212946666
Ni 1.5942045184830744 8.877948076404483 7.7414304124875795 -0.5600993970671644 1.2037071963716302 -1.6898184719871028
Ni 5.73776833525492 3.745253324589425 6.415042405485262 -0.395960428360989 0.3707044820076777 0.42285725275183306
Ni 2.237891155491695 6.87766788070922 6.203520246120184 1.5341392040125064 0.15374194174256747 0.750547950202146
Ni 1.4832799146907536 5.811671794686015 2.3964851102921374 0.41766696680014526 1.6010557633293976 -0.074967968866458
Ni 3.6627331938082546 4.834258051833132 12.140861240868988 -2.743063940029334 1.7575642120735087 -1.2272075934864155
Ni 5.147253316835109 6.439661466485477 13.210254016887335 -1.1353559614907414 -0.06785346930886378 1.0229560730300704
Ni 1.3119923350174554 5.662707965062537 11.584294611828419 1.1828187829583952 1.0792298079211349 -0.1630786457624611
Ni 7.578209740170593 2.1150087220706983 12.837873134215515 -1.4033307311376606 -1.9231784797736298 -1.2467276657972142
Ni 8.560140062635547 2.8719800608246673 1.1297344647413172 -0.9295633217995216 2.6531570904648563 1.2143991288678375
Ni 4.395316853714267 5.906010925804507 9.339267630761098 0.252180740037456 -0.7412333576694395 -0.10770042610247257
Ni 2.8166797264350873 1.2181529893478402 12.600668481478449 0.8544647408924705 1.1490841097101112 -0.2521290608639142
Ni 8.880798704520297 -0.1729849991422603 3.627929615994267 -0.13250411540971374 0.8602810904639313 -0.6923050073998529
Ni 2.7279585539734117 7.811044972344427 9.157425322830415 1.5156789404247897 -1.0436963909012154 2.3292837098781045
Ni 4.981935396690059 3.2675880094687186 11.782405861648643 1.3829830207192442 -4.115165280839069 -0.6884151854271435
Ni 3.068932548826385 3.808217035861779 9.77299902833973 0.1802289322895025 1.3598456633708322 0.7835652856684312
Ni 0.8325879516403804 1.4465641947705086 1.9624695754305335 -0.7352182618236113 -0.4368044589605445 1.4373772791994086
Ni 6.861082408035391 7.609890584457711 11.77824653607966 -2.7454247269520264 1.251983771989831 -0.7650147763597535
Ni 4.940508736149847 2.9901237877674274 4.343634410657387 -0.1420274815191167 -0.30218021188403443 -1.1458368064174071
Ni 6.005153550403868 5.388973623655637 2.1761991205281492 -0.19044109693581396 -0.030567331263895745 0.39311061761701976
Ni 5.065862330956955 1.8079923718830586 0.17450656817550667 0.11169900573890441 -0.009734453678944524 0.6740182932755231
Ni 5.38842756177631 8.058734938693203 9.479618491148939 0.5796973738037501 1.3206191137700418 -1.7621022091531782
P 5.354960447273762 8.46057169487603 4.099629899229771 -0.7414390459223424 0.7199569647891666 1.1948240349493873
Ni 2.0311835959507945 4.380813820410757 6.516339660686445 -2.471661889868421 -1.433533737083602 -0.7379914536933742
P 0.2576292180811563 3.332661925969662 8.091555108698039 0.8105125036812363 -0.11244873942073538 -0.11217131738963264
Ni 0.21689207635467325 7.097989966088962 9.679626149089065 0.8538960128731939 0.8045922815420595 -0.8610297957044978
P 2.097479210215658 7.830619902425425 11.55802903543274 2.004867055193373 -1.7427937386325534 0.03059252807487635
P 3.7299543366821486 5.384623639193194 2.204442551561328 -0.04138113404994809 0.009375270567312886 0.631377575786861
P 2.8434089926638917 1.3227192115961204 1.4528133639386835 1.3459776471394884 0.5117138066749252 -2.658314980516712
Ni 9.023163515161388 7.576562299246518 11.986192452899443 0.33327719039915504 0.5252195544708438 -1.766206975350171
Ni 0.6509520365895108 6.471425608347408 0.06483420459120445 0.16910376891061843 -1.822333128919778 1.78458342097483
Ni 0.1411644000351783 6.1686481791891286 7.238316762732968 -0.6997223829098465 -0.9534666107796804 0.9445549101123475
Ni 2.6767027796052956 1.3268748350506678 3.534475290226008 -0.30120087868990064 -1.075099073582213 2.2571771217198418
Ni 7.6744739707958685 0.8683920258807302 1.5759466156127269 -0.826227600423648 -0.3948615388698554 0.2584503750962517
Ni 3.882139005865055 8.420764709401624 13.169818597487396 -1.2912961964362082 0.7494014953025286 0.4287759322291132
Ni 8.240804926661708 5.156101370337442 1.432399904937904 2.189681292860713 -0.10683422144743535 1.2261953501718172
Ni 6.739430927664406 1.0373324650015265 4.177899077109664 -0.6866475520037594 -0.24812122525610172 -0.799658591685868
Ni 1.9205551613133636 5.518436565486842 8.561358983813639 1.150024876356826 0.7057858154951071 0.251220947227348
Ni 4.38816251756646 7.45786325513834 1.9932739441248999 1.2822785663186302 -1.0252872922664085 -0.6466661265148154
Ni 2.8630301991753413 3.4199300185151595 2.6322811084862616 0.49822991325587734 0.8213103656276888 -0.0651844071171329
Ni 6.044442239857218 8.625769296301907 0.47052578743064427 -0.5909094404694856 2.1572781939396592 -1.4501957711203153
Ni 3.422836178347516 7.582606001063488 4.157254235956627 -0.6225268102644503 0.21524350069147447 0.28808439591260065
Ni 3.9151803772074483 1.6273384426863708 10.136560548896098 1.1088031507028773 -0.7728113895860369 -0.1887570243651717
Ni 9.243069112667065 3.755249033566956 12.299986449091014 -0.7035486986344721 0.19158806605606357 0.31150920259444415
Ni 3.832576948851465 5.327139057286302 7.165912659648501 2.145843983960788 0.7172881597077518 0.3415844247132698
Ni 8.944743476118223 3.4400880316198466 5.744296088534413 -0.6642262468857657 1.0425465935674882 0.7218986618965696
Ni 4.547797692052062 4.143239881758685 0.554103797411937 -0.49363175236223367 -0.40033207506612345 1.4070773426642864
Ni 7.28199430885034 6.140317748466701 9.47864298399502 -0.7067911168311699 0.5542527084784004 0.7166700665077788
Ni 8.005387469668678 6.82265446018844 3.663148756153709 1.1288973503495912 -1.9335670220968055 -1.1519652879126485
Ni 8.827775170508932 7.908521645447533 1.3850017338122276 0.3526255130187798 0.7855308940352341 1.425721440128035
Ni 8.245765760006112 0.9735080121227746 6.039315736891798 -1.0898739178985424 -0.623051829529985 -0.8429233159117742
Ni 9.44150244644323 4.8009760430523905 9.805333295824825 -1.868351247521105 -2.3387700521019847 -0.262557969506722
Ni 1.0658942778762117 0.16469041174812782 10.815218284396938 -0.23362046053676538 0.4332334537798345 -1.1887773145346752
Ni 4.338100675103993 7.292017783686142 11.175678358584443 -1.7084916229165739 -0.41398977505887413 1.401389805361206
P 2.9880506036831984 2.837189440411206 5.342777714193093 -0.3795791587894882 3.210747605067238 -1.1565727047776726
Ni 4.463768949638172 8.047369447374306 6.275449553028218 -0.7107048500632792 -0.7451859145592844 -0.24272088017613683
P 8.156924268825263 7.705016414893879 7.80929572327336 -1.0748069962630908 1.313523640375841 0.05562658822536871
Ni 6.742087194772324 4.2272501136003955 13.469145655991209 0.36357532716206414 -0.27688235654919413 -0.39551614173471883
P 8.144679525327787 0.26274831681770466 11.726284583382855 -0.28199782339888857 1.1689353401080838 -0.11897677034724026
P 6.857269230166185 2.0894086007449113 7.192747436138736 -0.44744599783479067 -0.010046585602724633 1.0775169389950863
P 3.6789669656106514 0.4920711679202682 8.116493477068369 0.12876393164099115 -0.9544022352200725 -0.02022892545236516
Ni 2.9154799054491067 6.195516274709287 0.2752771975981523 -0.6228669672126886 0.3590023630794011 0.9818449048120576
Ni 7.649679059359938 8.799130060059435 9.65289965944609 -0.9002388618037914 -0.525177902599631 1.531797443253207
Ni 3.5888019685188883 5.224534955689166 4.706194509258782 -0.2415847096891646 -0.9026194462208261 -0.6657838211808728
Ni 5.9834128833777385 6.43917093632269 7.360095040523389 0.4286080391926812 -0.5836895256822786 0.8156953334337563
Ni 0.41722366930796145 8.200387092305341 5.713180742227412 -0.8858247432609906 1.7082242281877997 1.2638805234274169
Ni 7.091825945552817 6.753119495791969 0.4366134936671531 2.3897704544092515 -0.7595426975015886 0.2833340257118088
Ni 6.791306806200573 7.557635239191842 5.480513956260421 0.8181695060058619 2.3202239136686815 0.6797402833609648
Ni 9.124888364579943 2.0658261317868107 10.480548990428684 -1.3788767118603542 0.608653651826784 0.08307131469988274
Ni 0.41940884235388276 6.077502121771793 5.012647212523522 1.3059820805831572 -2.885780477195675 -1.7418270038439099
Ni 1.1630099948217953 1.5859302927183405 5.994938491145997 1.0794352390637216 -0.17590845053727766 -0.1016184815744508
Ni 2.316477789684485 8.453685762024843 1.8260614669171638 -1.277626926479232 -0.08800243345291296 0.06870938955125586
Ni 6.133616921337319 5.546452316482199 4.6535143463613675 -3.199207465638122 -0.8782962960944294 -1.5840389170564269
Ni 0.5108168243675746 4.039876846702144 3.3811207528812877 -0.5684120306979178 -0.9823254439929017 -0.2783193461060368
Ni 1.045532648477538 8.867202689253636 13.183947717232856 1.6334015266499546 -0.944012407345316 2.2073239456431404
Ni 5.439090997834646 3.67800441585726 9.209333594867898 -0.7085317536713603 1.0532614088818313 -0.42083893677022355
Ni 5.796178445770843 5.302390422280823 11.448807404281034 0.5611021273000659 0.7113193437188265 -2.404166318119608
Ni 7.416390318167678 4.318211065295925 8.05354457425376 1.2148652698709785 -0.8701615828024369 -0.6887843958411041
Ni 6.106267550940464 -0.10752606273996017 7.364240483163238 1.142449120892097 1.0047218094102308 0.9230851702743457
Ni 1.425573205917694 3.902111913247936 0.7590796929253409 0.16375536011451153 0.4218830617640218 -0.19993618091044277
Ni 6.384277834521084 1.6946058619907167 9.59862018311227 0.5319818128953419 -1.6312680252467198 -0.9622525845024267
Ni 3.6065165860957342 2.6413383314542354 7.719309353203139 0.44459053066386656 0.727833796434082 -0.36106670180759753
Ni 3.5200444481540027 1.0363884258203153 5.815087920781948 1.5529167417303253 -3.424017526972109 1.2028060247135992
Ni 7.361071473205917 3.446705561174416 3.509902505656245 0.10476551184386473 0.37640024684087436 0.05982828501154212
Ni 0.6211972173377852 1.7031299804798885 13.238009694343555 0.013830478125189083 0.9490674532707202 -1.4588071669384102
Ni 8.002564607411134 5.622975021876852 11.885206175310893 0.38974401513763196 -1.1164573248140257 -0.10872346805034824
P 1.945868368770351 3.5592590953186303 11.62246711377928 0.7298400282308334 -1.2227762971879392 0.060184897020012486
Ni 1.8399323641807057 1.9308562947318744 9.310929795809798 -1.2402873094885092 -0.5430491264530971 -1.7132445642205267
P 7.776726371521572 5.354164492669995 5.670889637966367 1.4150192232191825 -0.7640799232503099 1.8492996302062923
Ni 8.8687668326029 0.7465276739296676 8.285480192619618 0.6334426858460058 1.545529962347951 -0.336500325322143
P 9.168823207650629 2.039328247710264 4.03082980454887 -0.26613540244533523 -0.7505014132349268 0.34512560509730883
P 5.849979423813793 2.5100428429771506 2.281384521415871 0.343828226442124 0.00989951850189908 -0.5830012413660024
P 1.321710385412277 7.691605505349025 3.7949116365783544 -0.6216827170966003 -0.0805853150532354 -0.864850969222801
Ni 4.74174221207443 0.5634497853059283 2.251203959003991 0.34906993445703755 0.31836530628432913 0.9922625006009557
