# total energy = -340861.32783790375 ev
CRYSTAL
PRIMVEC
9.36766758340706 0.00000000000000 0.00000000000000

0.00000000000000 9.36766758340706 0.00000000000000

0.00000000000000 0.00000000000000 13.71052840666697

PRIMCOORD
 96 1
Ni 3.5970531550086586 3.7026080318808297 4.550373505571131 2.0321068647459324 0.26798196873577074 -0.611820736700856
Ni 5.8373870326480795 4.106991500537014 2.8093831415695423 -0.6533553656095329 -1.919666095744997 -0.2082930375155703
Ni 3.1454379070491827 1.7306484591323241 11.022908063705069 -1.1917572230986055 -0.976407278736254 -0.7364210238824607
Ni 1.7793790652282628 3.2716391229900674 5.613706805947155 -1.204168709389081 -0.5220295867786364 0.05260039980453521
Ni 5.260516703160577 5.5034765262486705 9.87044234427056 -0.17133162979987265 0.6190555638863984 -1.3284157269963253
Ni 6.32973289869774 2.637532345358354 7.285322098317583 -0.6871977680802746 -0.7772653115923324 -1.0153198966410515
Ni 6.593282854849823 1.7891682777177391 1.6038299139062178 -0.9014570504816086 -0.7373144822310076 0.586973338639873
Ni 8.44197329157056 0.47277399843792606 2.9935702190509614 -0.8259267813537776 0.19658269105717757 -0.6296821903623091
Ni 5.745602626933354 0.08673335942350546 2.8035152346763286 -0.18836158869896594 -1.7266760071350844 0.13837240126503267
Ni 0.42475720860198574 3.9404999468762854 10.343194797073341 -1.5518530763525016 -0.15801048721093433 -0.9145971874079926
Ni 5.182062488232956 7.673112617612419 13.334805300092917 0.775809295872096 -1.421031233741217 -0.18653739100603356
Ni 4.072087571603246 6.352327712596896 0.9579817018876052 -0.016968766643854646 0.5487605750155774 1.1775629338760945
Ni 8.24587990875505 3.0131477072631685 2.8661174827382165 -0.6475503288919816 -0.7191414108664066 -2.851675565092166
Ni 7.618986235062952 7.746901734147927 12.363510269219622 0.1893866875293706 -0.7010701551869927 -1.627256075873849
Ni 0.32585337562218597 3.9779893520273704 7.274367547996823 -0.10206276820072101 -0.529658564078804 1.513778123857651
Ni 2.53190252714655 0.12460028157298877 2.5456748718374866 1.5324533316696511 -0.7441870409811249 -1.0531652496235993
Ni 0.522520059685883 7.377056855394803 5.011102557196647 1.6868182517081982 -0.3630323101744006 0.4637671035923174
Ni 4.743936681407304 8.252456011307789 4.613812286336665 -1.4407711353723058 -0.7879330757188238 0.6264935082216824
Ni 2.428717670140252 7.1131415602120125 11.545539598633654 0.17248939755339973 -2.0175528781911574 -0.4607599413348774
Ni 7.665440497967556 3.151208390200874 0.28175039724854534 1.5535728872570858 0.5785725161706874 -0.7352442299655402
Ni 5.523429657925785 4.10253249082889 0.48827748807436944 -1.956909553477488 -0.23986104212983853 -0.008504952147217611
Ni 6.38483351866243 5.018830882846235 7.733272714769037 0.8561822378042093 0.17624089417603195 0.21268962392136917
Ni 6.336177853906123 4.045698852385203 11.69676653817802 -0.8750531065667833 0.4610599890737995 0.5029363175926113
Ni 7.160382707182758 5.533097090738359 13.467975123852865 0.44003762118586154 2.477045522777837 -3.941155847096716
P 7.967753862044474 6.80910454532355 8.248336111161501 -0.5449098338109196 -0.5381519462617957 -0.41165649894000717
P 6.193264719227224 -0.013124102103116079 12.758838950514729 0.3414301585235926 1.7443250876754153 -0.6540606192066736
P 7.25039662374867 5.043177450559295 1.6037755814349843 0.979540939269229 0.3830902572665402 3.648860755536877
P 2.2628162795291273 5.458998841176868 0.20414582975900603 -2.999821757914511 -0.41643643682715376 1.7281294517521593
P 2.968941684547534 2.851705326360169 2.6223717123507284 3.015556909261581 0.6143774416844388 -1.650229396840571
P 8.380830526098013 2.9256162225725784 8.726765370441433 1.1498844941242197 2.223211049187042 0.5097523120731802
P 4.0110853211425095 7.690086831039148 2.6368906601377518 -0.12576525402398342 0.376907525494596 0.37528515939982465
P 9.200819929020327 2.8689980404803346 4.593438546390864 0.03140756777700398 0.0607363986481083 2.871799075314919
Ni 8.168568549256822 1.0792864380502611 12.770822070721943 -0.05092764008780262 -0.5548967698203023 -0.8846528344400763
Ni 2.152558833595026 7.721505987680012 7.699407660155922 -0.6794716030806105 -0.3165413657017129 0.6842165739647635
Ni 4.216949181112587 5.132104717700538 6.30656853061738 1.331758675326629 1.3195482493033661 0.5086395386249756
Ni 7.706395940076638 0.14941710619224297 10.547947651683367 0.6621148569697177 1.1061577426602305 -0.021213400852821532
Ni 9.39745663654817 4.983870747907741 1.9065451509169145 0.0820187050656523 1.5165006649951365 3.301405988085759
Ni 3.5712171281704044 5.363729663169237 2.861908589751114 -0.35155439144178807 -0.49675898513730576 1.2087563287597636
Ni 0.7199623866147749 6.940813949727413 13.540147380985804 0.5179847272853013 -1.4907592943649746 -1.008682850940508
Ni 4.614794017885849 1.684287872902259 8.607168360055649 -0.7933413912185885 0.17010572781257158 -0.787203910862283
Ni 6.688552032857453 7.659482661466785 9.845708891891647 -0.6507567516444211 -2.3735017991562155 0.5974796374878355
Ni 3.6657837311189816 8.942618910984503 12.291090705665898 0.5850460397101731 2.0451626694886262 -1.318186078848517
Ni 9.532725754584572 8.738862776191587 0.8333701791136715 -0.20777161779446152 1.482058681267183 1.7469352716047524
Ni 8.151753586176813 8.42937377884487 6.514804283986821 0.7791411884588066 -2.6333745085212903 2.150249826337968
Ni 1.4816839612061887 6.904973254048239 2.5136055990753112 0.8833081474867239 -0.04168375289203144 -0.0429469358751712
Ni 7.863688444297496 3.7368093857555458 5.987497346231922 -0.994308327386391 -0.29429540981931895 0.2725526188255887
Ni 6.07772390884904 6.6575356859171135 2.908606412009525 -0.13458490919814242 -0.2393704756466652 0.10661336368588091
Ni 1.3401291383081249 2.058085907320989 3.381701721441125 -2.2718866600158747 -0.7806509402351136 -0.3206610442970413
Ni 3.881249450229455 8.13645618522436 9.319334037048423 -0.6536690401952097 0.6206061962029699 1.7499699446660184
Ni 0.11621996626860075 4.60198841647617 13.581375422217798 0.5576187967371558 0.13132886415468997 -4.332048888237127
Ni 2.1810740133251367 1.3836981596368851 8.609430651745802 -0.2808914777085872 0.018869840321309436 -0.18183921419941587
Ni 6.5848987924784534 6.712786188561067 5.886916700777848 -1.5908798512376603 -0.5473503249316123 -1.3583505668825444
Ni 1.8535990944666558 5.618436541244702 6.404667680962877 -0.7211260453966032 0.3927334367832591 -0.814678719243784
Ni 1.1866586424085173 3.04847318123237 1.2159110575672611 1.1673574540980025 -0.028583210954331417 -0.21829282904075953
Ni 0.5210914903991413 8.540034034479495 11.627638772967645 -1.5124123538583758 1.331438830093365 0.4609039231119095
Ni 1.3496841591112503 0.9602046493744499 13.078020673376145 1.011360397772671 0.6594735626921288 -0.29799779837157064
P 5.711532420402994 6.400599302987586 11.652317892875326 1.3625635765226274 -0.22556673699435348 1.170069710822843
P 6.870528340819719 8.677616966377045 4.687286649245716 0.562177876862748 0.35601679808851594 -0.9100885009043617
P 8.289486400753626 3.152369980965175 11.85524686263205 0.9226753364304368 -0.04070082015347184 -0.40314871857931217
P 0.290982233524506 6.505732634824325 11.326857022519464 -0.9406270358128509 -1.8928919129749464 -0.3237599949373392
P 6.084693453434849 -0.0461085959755515 8.859701939281777 -0.6076205825765794 1.307594933596232 -1.2635516793330885
P 1.6983862124205955 5.3235423697913875 4.212848016301207 -0.3661729126859113 0.4015263524845407 -0.5294096812927915
P 2.619546423846589 8.71084408283654 0.30856534533574714 -1.3112165895092194 -0.07064414468012349 1.4566425551869235
P 0.7222771372426693 9.674458563164261 7.093292409643638 0.04060337534365911 0.061510557809971486 -0.24076118534660473
Ni 0.6010173658837927 6.058098645532818 8.609512150452652 0.3081819379934241 -0.2571249714166088 0.7973687672104267
Ni 8.3190694945735 0.9091030866458929 5.491464366272349 0.7898570322144138 2.629180267934285 -1.0206852747180228
Ni 1.5635011687498115 0.6101517784182313 5.028185435565843 -1.1876563135563547 0.6056829992342343 1.4286918356102685
Ni 8.689204771017698 5.992065957649259 6.270372800341698 0.3404228003050008 -0.8520995830944035 1.5309806037788667
Ni 3.8455961078993623 5.290324620999346 12.735983715460351 3.124454698106264 -0.6618240652021764 -3.55145322671998
Ni 3.883085513050448 3.7500740028704724 10.128419475054232 -0.6965211023637295 -0.5394683510803742 0.15211494766210576
Ni 7.850536239192018 5.590417847889656 10.288668415123585 0.4935206807056661 -0.2100989803760575 0.1478723703356679
Ni 0.4718437890597395 1.4254873241493768 10.555186985091854 -0.19618982649413308 1.1341370014819758 0.3576723314140679
Ni 4.246017053222487 0.8035575774411756 1.0329623857232666 0.1901194519303371 0.4751174956081301 -0.65896808381062
Ni 8.107659975470627 4.99019392343922 4.074919417474603 -0.5777163388179792 1.5055305391368783 -0.3331054407079812
Ni 5.182193635577313 7.114209474301773 7.857092669643104 -0.01918660023077986 -1.1784245105454414 -0.7372198656346723
Ni 5.375214423467896 0.9416004618107179 10.632253848469531 0.3724736580929585 -0.37387336665396254 1.8000928294643384
Ni 0.6280271614540387 8.916314500773549 9.09168472964722 -1.3139257609102661 -0.71852023234264 0.1764075016608833
Ni 7.255511370178578 7.839360611919343 0.9065073059943771 -0.006294831869776257 0.04774050060907262 1.592929277567521
Ni 2.7198273039421332 3.881230714894547 7.744062394142605 0.7845212218237972 -0.4198349209857415 1.4501996277750573
Ni 6.49024788052279 1.8171682357378773 4.2573790970774965 -0.3963450653939174 0.559850514281152 0.09222701305722182
Ni 6.4426413945213366 3.120922721321948 9.58423481084738 -0.2679086922956741 0.40947157547354646 -0.14358351315232692
Ni 8.030254939297858 1.0786400689959321 8.029844635463371 -0.2542131970864525 -2.0906290293515415 -0.16100042307719367
Ni 8.4937202865867 7.263876697215039 3.109479178760088 -0.6373103963315282 0.37807017834412954 -0.6085433515011649
Ni 3.84679516933348 1.3931220330956535 4.17651458131395 0.39235702728044686 -0.42490565064042957 0.16313418159074486
Ni 5.699316982042921 -0.3667601058605066 6.6558307704404776 0.19795643147625264 2.122847780175931 0.35566147163162615
Ni 5.612094630378314 2.042619888354362 13.084574293526993 0.3107674393324132 -0.8135340641163795 -0.5062080463653476
Ni 2.0220953289625507 4.146382542181271 11.85711196522215 0.12141391903382316 -0.3588316418294917 0.8275604603024586
Ni 3.061915784028923 0.21399499532018823 6.51969889023156 1.8498141079488657 -0.8630411697075717 1.2240523356868855
P 4.29411065793155 1.9476973140425309 6.3561319223499835 0.44461881279864074 1.0101044138783828 -0.44663224368424376
P 3.189896856786077 7.26353009351924 5.969989175760313 1.9099954054244526 0.2523537752802106 -0.7469154956558813
P 0.870732183987382 8.82660971723362 3.5337239759523373 -1.8341758871909768 -1.6227119081465924 -1.7345710936124448
P 9.176904274010152 1.4863209565959405 0.8943077926689752 -0.9613848371854928 0.27293108521092996 1.4793963039436715
P 3.778710962277486 2.9739814896378096 12.55684206366968 0.3554418994216524 1.0268744342478702 0.1767995948929794
P 5.704975053185163 4.823739840448307 4.673809386079582 0.3242816717687641 1.2415584628914489 2.338519883764392
P 2.254450952492666 9.07238920822538 10.553816495343328 0.7878567139549334 1.3121977224755659 -0.8219238308419716
P 2.9632836134052907 5.701218618536092 9.357668405803864 0.23280876326874742 0.07568787775161805 -0.16203734898214028
