# total energy = -381164.90868472424 ev
CRYSTAL
PRIMVEC
9.26012874159195 0.00000000000000 0.00000000000000

0.00000000000000 9.26012874159195 0.00000000000000

0.00000000000000 0.00000000000000 13.55313444148781

PRIMCOORD
 96 1
Ni 5.774662489953084 7.259746352596481 6.8942222227391685 -0.7251040562077448 -0.5948617402490142 -2.7622186585809136
Ni 6.319685878430034 7.050263723612238 10.778496133777725 0.7678157361436583 -0.11798406741666778 -0.7337918137897298
Ni 5.557030947808815 2.7249965607130697 2.631625758117764 -0.43043043711340057 -0.48936500666607985 -0.11845612195707984
Ni 6.440826880656711 8.920337432423963 5.10893517731895 0.6370931381143996 -0.6391209671777057 0.3865715309469213
Ni 4.172604682948934 7.934522662889682 10.417264073522313 -1.3447486598283938 -0.5158635671772406 1.2608900733405253
Ni 7.999463944697943 4.538703866791743 6.456482980065412 -2.0567403470238967 -0.6892875607297677 -8.896016938049195e-05
Ni 0.7331327146604447 3.1385076029414916 6.940275620260491 0.167029402880093 -0.607016116223361 1.0045696001030828
Ni 4.162094436998216 6.844096220663553 8.4946845095871 0.21021056625325732 0.8120363965249304 -0.936262331086252
Ni 3.874974889907534 3.67178914836513 4.540164189070534 1.7952306162760308 2.007714037723865 -0.2611806295432212
Ni 3.9118116814422925 0.8378360626253432 1.6031727264864997 0.9487059561662436 -1.6659555493265759 -1.0705873017547884
Ni 0.6929094940999789 3.6676128303706164 0.49596322720215075 -0.32177741728967163 -0.5634392600736748 1.3705231976893364
Ni 1.5753423360192886 1.2893432644881095 4.809492251099444 -2.485603696760493 0.02516621485298247 -0.9374810339847016
Ni 7.502908069265972 9.216994911963313 11.407307017771219 -1.5828209854889257 3.1522066714085515 -1.0157125040937798
Ni 8.103890414817972 1.5985759986539572 2.9949719057304867 0.7838046553727469 0.10369310471529239 0.0426304330760169
Ni 6.586136818505739 6.015277671260066 8.537322771684083 1.6176015835032205 -2.7593554781005056 0.5599710990194162
Ni 3.395198367482346 1.5719716492121865 3.7180583068826203 0.6438050029169364 -0.02482065858810564 -1.4480018487927901
Ni 4.166437437307367 8.984843488188451 6.445342119357652 1.9093775693347954 1.2205980585896978 0.30980944629451806
Ni 0.0018640638853562042 0.7654561195199795 8.345681632456005 -0.3224407619052834 0.5156072281920605 -0.9544785969839626
Ni 6.710815189854154 3.0363313440690605 4.776924378845108 -1.4333547883035767 0.48157173587390606 -0.42959482858598275
Ni 1.8883717229074215 0.5049270316781805 0.14775090774560087 0.29938105187234243 -0.01371992068925379 -0.8750795889293445
Ni 2.950786276145958 7.646393761782587 0.8467100438540409 0.9473625547644716 0.8736857939056114 -0.4153779136556524
Ni 0.43955793192901754 8.512188004649696 5.424750010887237 -2.165608568182225 -0.17680910797467614 -0.26323854051351436
Ni 1.8179206645875505 3.8883928162358052 9.884571472277058 2.307633735708497 1.9971321484429603 0.5244281689178001
Ni 3.0348312032373284 2.599790362034971 0.7083016798438393 -0.33562640735762195 0.981344053916239 -0.7000777093667362
P 1.963045399864761 7.893407691945909 2.9513029913213322 -0.16680725956695788 -0.803215455799191 -0.2553586235448054
Ni 5.167549939273881 0.5026814504948777 10.964878445979009 1.3940943001410573 1.3682919943659726 0.8478793743654688
P 5.179421424127466 1.431680701059447 4.647152936771676 0.9970594077689667 0.12797897384585055 0.5791340451011123
Ni 0.5320749506682392 5.204192268108231 8.609262858681378 -1.185073640430843 0.41760191789016465 -0.288245089860181
P 8.957683531031224 0.7244115255534974 0.7820113774148619 0.21801155035491487 -0.8721714141436141 0.9229658710876619
P 8.698686994471226 5.735871811285636 -0.15006408786761763 0.7914045792071919 -0.24217940585037 0.11130691250680831
P 7.585823260669248 2.238765728659997 11.243462932547423 -0.6605074032732818 -0.09796931485763773 0.4273008903454834
Ni 5.794960691824425 7.188961929647337 1.2084032585132811 -0.6229021913259981 -0.921495971410355 2.100259867573086
Ni 0.6264301049327623 8.986964057635776 10.45248867666939 -2.842773120396214 -0.23036004461793877 0.3516050421740654
Ni 7.077006974982873 1.6756943495593046 1.0218700062159647 -1.1580796283405024 -0.6151688272374825 -1.428104852758547
Ni 4.741371041133054 7.135781011149569 4.70105336726096 -2.7228306437015943 1.7873247311653926 0.7760702628429665
Ni 2.5694078801280975 7.379452034891561 6.989527466197123 -1.197823998117976 -1.4408942912137315 0.03966723668263491
Ni 5.531500773283593 8.08346257114636 12.816534685036213 -2.3239414717295848 0.9712023374965467 -2.0652291012211976
Ni 5.578523706268385 5.185199744368213 2.868683198020107 2.384903613235254 -0.3873821997736748 -1.1956460166300504
Ni 3.1401744260878606 2.1350430283128787 6.048831747209337 1.260755347534874 0.11652548059327028 1.8459384270435433
Ni 3.914691581434075 2.449748498475972 10.364975831420713 2.486800802392388 2.505132253711724 -0.2606160152890028
Ni 2.3531560971438776 2.1375340029038417 8.708417537594585 -0.24478881844875905 -0.10966603446927566 -2.3177230016236985
Ni 0.05169281583320387 7.465710132716167 7.598266095456895 -0.1068481054045063 0.516763967504323 0.9629493534591352
Ni 1.980139597243636 7.102166744364457 9.630423539047277 -0.35737459766799096 0.137259370706512 -1.0072741435184394
Ni 2.3853720845117574 1.1609238011889549 11.130728275055603 -0.8586237573661664 -0.394778749348062 1.5226389166823906
Ni 5.600359089485822 4.0396570167688095 7.052685247238769 0.17242332020215467 -0.4863560446364269 0.011787736663547441
Ni 1.8455806686886884 7.905140274870629 12.040847975448964 1.2168923276033365 -0.47868207303093685 0.9431480024624918
Ni 8.892668168194234 2.366842567201287 5.00131025878361 -0.34572544346483686 -0.11239037537897417 1.1542373717762766
Ni 6.341206417275378 8.174239611723344 8.724030114398909 0.36549568411322864 2.3956032590409455 1.6442340984890846
Ni 1.666082336081909 1.2982144676782301 2.216804407693724 -2.245360074480256 0.2838400188139499 1.2371724180086112
Ni 8.620346306591873 7.585925122083749 12.005393721112831 2.0186263137609943 -3.399882581597119 -0.542151554339492
Ni 6.310592432153731 1.6503864181202659 6.527514648447935 -0.9943859747018617 -0.6801627156103641 1.4718146349416716
Ni 9.202734313933266 2.691521195856822 9.904237207365638 -0.4369080744179444 -1.3420793405263467 -0.5373361352287197
Ni 0.5630121142777103 5.527315195160488 6.222663807131321 2.468829562625948 1.4390605804391021 -0.44953321938112256
Ni 1.372341797048704 5.382283061169186 2.2260210136802865 0.17294114037883762 -0.2606080448692028 0.7317380165844947
Ni 1.8037156273290489 0.3703681031232327 6.861355248331346 0.48097575416112015 0.18436712282759216 2.225746671124702
Ni 2.486585290010731 6.075283304529357 4.752528570072277 0.37171672532227595 -0.029415734157955793 0.14927413577920096
P 4.250315682084101 5.471745163486258 6.150100513479856 -0.47127061105821416 0.7318465171379009 -0.25350151573140856
Ni 5.738723930891647 4.215053112409802 11.39225004868235 -1.231881344813001 -0.7610485926231538 -0.399475383492783
P 2.1636290452731104 9.391900220788987 9.199446968283482 0.599934012565599 -1.42159224845101 -1.569774693827929
Ni 3.7785491708900762 6.437326552049335 2.619996888633261 -1.2519750302390826 2.072526149103244 0.28907761306380536
P 6.3126667009581015 7.343439394801396 3.4002784740273357 1.6905126698406499 -0.37786140476743313 -1.204548718436319
P 7.95114459371042 0.2525829714979134 6.589994588076724 1.4184886698250216 -0.784574700769552 0.6009951068402617
P 5.446668735261992 2.438191857994479 8.735049667422128 -0.6938805794170888 1.039393135540171 -0.5707432499342557
Ni 5.277689908734521 2.14096951061108 12.806857850658682 -0.25785696448662687 0.6356569198885053 0.29717144581553334
Ni 0.6369866515264339 7.86139542740703 0.9302586280529372 -0.5942976402154281 -0.2753358379976807 0.13184976965516648
Ni 7.846060654460433 6.828344741930364 5.766845089396613 0.3805420369233898 0.9305899632918232 -0.46893990604250846
Ni 2.802513097147828 4.289976812839097 7.214577297355595 -0.09740187238994193 0.6703866100602067 0.010287240858620993
Ni 4.551418023347104 4.831898058238083 9.110403423778722 -0.2437434079033802 -2.6304784179204184 1.4421798427943744
Ni 7.844523473114337 4.56902152779848 10.34182736196908 0.3595227543592453 0.7581941538934942 -0.08522769892125322
Ni 0.29137179813964253 1.6189668018112067 12.439026096756507 -2.0496561864836056 -1.7085810973065865 -0.42872810971031333
Ni 7.665469626679923 3.6063941202559127 13.047263753059507 -0.2526507376953391 -0.08622348717561924 -2.02947842598415
Ni 4.03168404605201 5.7735142340078065 13.354716690510177 2.255162405282658 0.6427608779231383 -0.18389661094907683
Ni 3.213783188257242 3.919608709715864 12.393975571161585 0.22841834751053564 -0.47852163619367266 -1.6670320702202062
Ni 8.085259036093001 6.505508878864425 1.873490696261781 -0.6974037620789989 -3.538507208082274 -1.3491624726253733
Ni 1.7627673386999125 5.603350111020696 13.469158915714168 -0.6138233689531816 1.082713395594361 -0.6095707643244147
Ni 7.530882917739201 8.338106847268616 0.14094563924411913 0.8141866100987138 1.3962275444339762 2.418263419642622
Ni 3.772881972192421 4.405404315725163 1.888927330622878 -1.3241032156639003 -1.8000666042120934 -1.0053383599483072
Ni 8.272758119802353 4.4784852505648605 4.134979854471085 1.5398665934145868 1.1569619697962914 -1.5205658362034458
Ni 6.627362910992604 5.8964424410525345 12.663411976695008 0.5264428853549836 -0.14707944212072732 1.918247875241232
Ni 2.6572401998131627 8.49273247448013 4.956950538781571 0.08533877057782077 -0.34784763201416224 -2.6061560391249694
Ni 7.689536700887776 2.9392666761788284 7.957925785877563 0.3278033117687774 0.6851555408392652 0.7640462417988971
Ni 0.9840831254877754 3.55405587345992 11.924684292339917 0.21688515005995554 1.5636091884471652 -1.4114291918750788
Ni 7.030391487656082 1.0973807987979252 9.139868226942234 -0.11955732544105863 -0.5765634561604587 1.3126648919199717
Ni 7.643189757290121 3.9337211456884567 1.7068139377020173 0.5365138964377406 0.3949911224691843 1.851278094088902
Ni 6.150503329073562 5.492117446386325 4.917429235968299 1.4970492411387442 -1.909052324784893 2.2806867748060076
Ni 1.5841764986950455 3.9156731550647144 4.76461766794775 -0.9835994256093189 -0.8642354471259891 -1.077420522626538
Ni 0.21722687452484576 6.697851009826839 3.8751387941835933 0.8947626691805688 -0.5547283625632382 0.5343819376964022
Ni 8.297158558639481 8.332874874614735 2.8542901801512093 -0.7607536870905544 3.6289411337948145 1.280919995408207
P 3.654870893429483 0.04405598778425572 12.597258544054192 0.9339362540562367 -0.13600081570906256 0.14833105513964132
Ni 0.8097037919660677 5.860513142119688 11.269933010124623 -0.2081932787129124 -0.8076896895204605 -0.6002893390224888
P 8.468832082586914 6.904898224991664 9.620583726406544 0.17266963188500586 -0.6845577593542662 0.5553235729450758
Ni 5.752280759148782 0.11847686323106252 2.874877298034587 0.3358454653469635 0.595795050696561 -0.6928824771698777
P 3.4980135752275516 5.909341800179714 10.762516855881199 -0.2675711064505973 -1.2157209330030547 0.6113232282391471
P 0.4853113012839926 3.288521686114718 2.538447566197149 -0.07939772250303745 -0.05885100869993736 2.4356826435603343
P 5.709091519400638 4.120007152552395 0.6844642568250418 -1.0074482072024584 -0.18961165905598315 -0.6981542670917782
Ni 4.292782631802152 0.39169325325530824 8.757845325974444 0.23161217185748498 0.7097311732961002 -0.6978125674816433
