# total energy = -340870.53067200765 ev
CRYSTAL
PRIMVEC
9.25535587711840 0.00000000000000 0.00000000000000

0.00000000000000 9.25535587711840 0.00000000000000

0.00000000000000 0.00000000000000 13.54614887187076

PRIMCOORD
 96 1
Ni 6.608092758473667 3.7127027378085864 8.63930001397089 -0.6061933632117495 -0.01650185430976513 -0.7784138233744787
Ni 8.693370728917884 2.39870134405387 11.620902749697292 -0.09250417797800843 0.5159949505487824 -1.0702700276246857
Ni 7.022390256491884 7.9408269926543795 12.883701663311347 1.0223927443274328 1.4256499634601512 -0.1628079085995777
Ni 5.076905182191071 8.858828727087614 9.724347040117859 1.1245380449396312 1.6323514881188854 0.6341998757270045
Ni 3.2056480625426733 3.387191869339075 12.24478408087288 2.261308884500028 -0.6191972316705853 -0.6842201735091893
Ni 1.6551630691216377 4.058779007180549 1.9581769439036634 0.4976799542896783 1.1113081765129182 0.9105536134662382
Ni 1.965152705676921 5.195734697126528 11.627147338351154 0.31034989217902037 -0.5560000301868102 1.8216852109231336
Ni 0.9644451105486747 7.860879228029994 5.941693247637515 -1.5593884654975982 -0.24790576681118595 1.479029407522556
Ni 3.435856530880522 6.276343780099452 9.931358809859029 -1.9762661036272289 0.8999899790177791 -0.026474392141444727
Ni 1.385610082675632 2.7272849906960244 13.513882189740853 -1.2404580307384185 0.5644990687967568 -1.2025103478500516
Ni 3.2298045415505046 9.191984519564967 6.347495254436847 0.9735793223691555 -0.49838495077650297 0.3440855938685687
Ni 0.896407137950066 0.541734493979454 7.889073818835187 1.934626059488939 -1.1549210281068625 0.052983751285882945
Ni 7.428404210942283 7.791565867382619 10.544403970298076 0.4465293995577923 1.2443272838858377 -0.6806915915306406
Ni 2.8632461694795643 7.068083948776046 5.2950678047708 1.7745478911156989 -0.0388964199548814 -1.199074068474993
Ni 8.850184224638069 8.847861130296703 1.648606574972539 -0.7667916657545182 -0.43201552221233336 0.906304094161265
Ni 9.05870739400452 0.631438329301983 13.062510512426979 -1.3370965425997747 -0.5409284805656683 -0.6984771976488358
Ni 1.7929382976697508 8.273538528046531 9.796967339443201 0.23952577027760683 -0.43906214464646964 0.5414285601305385
Ni 2.8628944659537803 3.5653759819286406 9.627668368557666 0.49792575175189735 0.46181795028574657 -0.583128510972486
Ni 7.713432152522806 5.276700550904501 4.652898815790012 0.10979201852417865 -0.9588836680301936 0.48153805442249326
Ni 4.660525229085971 2.646411690477469 5.393887240160306 0.3449068042182834 -0.22111770008406434 0.3882491757596604
Ni 4.715279914837055 6.4151833745808595 1.381151777718516 -0.8383979172375947 1.2080130228358357 -0.3072308869340645
Ni 3.04290188366386 7.735135962206088 12.323053849465035 -0.22268453035055197 -0.2746665798447979 -0.25141969350171534
Ni 5.75392521397032 4.684765006297277 6.171205713208547 -0.23223489304314845 0.6698862733850205 1.816251698612388
Ni 3.9335077645096694 4.191547088164204 0.838687036155262 -0.5117577725389831 0.2016109975097044 -0.685447103937755
P 7.03654169572674 6.027171087437065 7.43213504492238 0.657196593732494 -0.8255678553524621 -0.05126856836698912
P 3.779156193469976 8.010214396149287 8.311077326210462 -1.6169096996425187 -0.30388588172123143 -0.008008215016457175
P 1.352984952981147 0.7297283583316249 5.835342729118248 -0.45042950594314685 0.7610807314126699 -1.3204558487192999
P 0.17536955884769523 4.5750890383881595 0.4607177357438026 0.15686223253910403 -0.4183981885392149 -0.43392173809611073
P 6.342334467963757 9.201934027202292 5.86238040043073 -0.01693714207497083 -0.34739511785777594 -0.40330221343804085
P 8.390294843251047 7.560996440163044 3.6768854358498095 1.2459450219949186 -0.8713682015160282 -0.04017091579193082
P 7.246703063094871 4.373896110927533 11.015457162021972 0.01675999306715823 -0.8889555755804884 0.38432155857048006
P 9.00462834923718 9.172927741681011 9.513311041613235 -0.9309573739335709 -0.6619621334419373 0.5783035787800169
Ni 7.994184119658266 5.548919079861715 9.404712397135732 -0.3088221426805843 0.8539664610998132 0.36705402973928397
Ni 0.7441741178854268 4.725331231389739 8.580726568358262 0.3960889835190533 -0.6172043696102725 0.3881131644024283
Ni 1.604869464934452 0.6504405005858827 11.66896396203134 1.7566818094685552 -0.06515226832761684 -0.3492658525179275
Ni 2.9893689048970797 0.8636764971978459 8.94323572220471 0.8562475438245061 -0.635022628738616 1.6507960679773184
Ni 5.45872563620987 1.6944983318738531 12.553473339918353 -2.140664496642378 0.3751136668189669 -0.33763135360279267
Ni 6.693667779510604 6.375487152946918 3.033009759233373 0.8790915383022151 3.1683706827629243 -2.0306811880429994
Ni 8.40354851295956 0.43830866793776385 6.527848822459147 -0.9481171735423091 0.9470509370613237 -0.9875671520078153
Ni 2.868197784908373 2.301409042394743 7.230433072884961 -1.1101887181964945 0.9748607601847404 -0.8270187288663756
Ni 0.18908692188888548 7.174150327867903 8.362295540456223 -0.13350556009103456 0.298014510542119 -0.8182443251078554
Ni 4.346528023407933 5.164525636891123 8.100285669102702 -0.26206303214817445 -1.599931162806651 -0.13052128065173002
Ni 1.9630517398781557 1.8687304074763138 2.513461278981763 -0.48683966914106475 -1.3544162648251448 0.05515813322938243
Ni 0.651789005946588 7.745113235911238 12.70520379415536 0.0007253082017987508 0.026763127026457136 -0.038773007003139674
Ni 4.904403858149708 8.398735727869877 4.236869640675104 -0.4726597780962569 2.4512447596646494 0.15049078179512146
Ni 0.47287557130881674 2.339929833824089 9.131174979956825 -0.37701114095199584 0.4374701175690014 0.6973073457104506
Ni 6.394803080797242 5.739357283718089 13.234885963627534 -1.3927300728036789 -0.5709489381871587 -0.4471778317750686
Ni 5.2328209083849115 0.9084363240674906 2.3839057320454717 0.10638813504895227 -0.4472935314173265 -0.5111332515811068
Ni 7.140618173291132 8.114448214764687 8.02678425989171 0.5017937193477358 1.8618810664157288 0.378259154426484
Ni 3.9923070408072756 3.162092357481044 3.0293659255991265 1.3405191951280784 0.1678130751236529 -0.5332791915505267
Ni 2.8588313646953747 5.026528279800409 4.192844689067229 -0.934538663526926 -2.0910892568174115 0.8944559365734273
Ni 8.349052977174843 6.358984853302871 0.859108053505024 0.11320155842635989 0.8014174833585036 0.5474601110365991
Ni 8.493704935187639 5.995786175438767 11.954720300124476 0.4171432330861912 -0.7484375887273627 -0.36516606868795176
Ni 5.243020310632662 7.021770147643791 11.325121935583704 0.35432346954649296 1.8130097946363228 2.090557038463025
Ni 7.093110431242397 2.344464958235521 2.956040368151026 -0.33381403673923155 1.207715546200075 -0.028440514728880047
Ni 5.652625343188439 6.717213405026284 9.110828005454596 0.9048321376014288 -0.4575028678501605 0.31111402403855454
P 3.7040860014268655 1.1086250454084425 3.9309708714460503 0.2768327342581813 -0.8138824485947339 -0.5180011823455337
P 0.6623280797573993 4.741629913203069 4.346932482462585 -0.4312904711208507 -0.5267938409364992 -0.11666329172271521
P 3.2971002346025893 6.645151203664225 3.0164972786977904 0.5029584290797984 1.6708414166639678 -0.5677479147513578
P 1.4701207377792742 9.30440932818877 0.7106447399154383 1.7606652195963355 0.1108770240582413 -0.31681133153364793
P 7.160841126023741 0.7222592860866749 11.44630601307073 0.16155758113224433 -0.41290245553196636 0.25340844179697003
P 5.542329266431227 2.6928087898131996 1.0110698916405714 -0.25141943639139924 0.07530915425596062 0.5328595875146049
P 1.5339364169972802 2.7323199043283077 11.059590401294365 -0.3846758565861053 0.20139425351320797 0.45299469556716176
P 6.069875299752058 3.8150947405915887 4.328468972894492 0.27418295534016 0.39824279663726253 -3.0564464483870912
Ni 2.493846403134523 2.5987095859539586 4.852569237198229 -1.6111193182129868 0.5542056572905487 -0.1324300676386687
Ni 1.8667219952369654 6.186465018549625 0.4950875000332972 0.5143396743335464 -0.5593059546315915 0.22107527688190315
Ni 3.2627721194148323 1.5841744890488159 0.4311931502897866 1.2248095255678841 -0.961297933898641 0.4133973928905138
Ni 7.111306461023774 2.5064799639949404 5.717734921167095 -0.13932808031008265 -0.712465798618444 0.19640631338031336
Ni 7.347373569672718 0.16059615969355723 3.809339760267041 -0.09136106551250071 -0.12757813886300612 0.6780808933806709
Ni 6.888307914964509 1.0252342883737455 0.44779263117122164 0.8822902477451708 -1.7352539786120826 2.023333746538993
Ni 8.704690029234579 2.213696034135273 1.0902207701183764 0.5613913764057106 1.5617022012324393 1.8322226201193477
Ni 5.112593834702258 6.277574742439698 4.511937893726767 -1.178649482072054 -2.4282045900157345 0.5029697419337079
Ni 5.207794425918561 1.1896556866780066 7.162120216214883 0.8375939332790606 -0.8819369781708102 0.42382501598174105
Ni 7.16007293148058 3.4980340120968476 13.022319129250155 -0.09200332708218993 -0.02769669458432004 0.8817731988994363
Ni 7.2353004645747 1.2739257025271646 9.169929931891495 0.43660237025206744 -0.16252328747962333 0.154218881378986
Ni 5.209330815004883 4.8909558259664205 10.526075588926734 -0.2959164903625097 -1.0604247593994898 0.335504537067777
Ni 5.997683523406815 4.625910197864021 2.0305677104016526 0.26200595365799395 -3.033836938517691 -0.2447785340361139
Ni 3.106162241525364 8.800862432824761 2.370182815790716 -0.7217641932012343 -0.48107988383915207 -0.5952939426904265
Ni 0.8791958780408848 6.521277519740542 2.7998127364619503 0.5997856599131929 -0.37220060693722995 0.21730166877208382
Ni 5.181398150772838 7.130224408568605 6.889842452979642 -0.8938103325696284 0.7008927490688638 -2.38733921925994
Ni 0.3060801742055103 2.7042113883333716 5.6117222231397 -0.79740707664753 0.32354042272736533 -0.457737866679102
Ni 9.099449470859874 5.4610024537715285 6.454590829109421 0.8800109647926908 -0.38077909263486037 0.7374458656025493
Ni 5.525938031058479 2.637794954095748 10.564682455166336 0.1042266086212592 -0.7730013941096558 -0.8478917156606429
Ni 7.77722932102893 7.445498853366598 5.803955966048762 -0.6037443874506248 0.054104752264203596 -0.5480177833122819
Ni 0.8972808435509622 8.9237272829508 3.8595954174948655 -0.015599397100153782 0.789755216529227 -0.7618165811374299
Ni 4.671816763334843 8.787460677421183 0.24158237525460108 0.2844794521701617 -0.2062577522530964 -0.10969123128025625
Ni 8.455748720470735 4.425161527488597 2.499021072641526 0.5115019477744351 -0.13880768903023835 -0.051571187209072465
Ni 2.168863089953689 6.110376737352927 7.341213204757924 0.6868118454957656 0.37165193352261156 0.1970909981521638
P 3.2416791632237025 4.336846921092917 6.502503955748402 0.06174787063175818 0.10586594399689511 -1.2904762716380742
P 9.156147781358714 1.6730536721569396 3.274551410921831 -0.3419505498034369 -0.08072929683026742 0.012228680855707972
P 6.3790412096285305 8.019571561006344 1.3913252649696302 0.112717933921722 0.24211641382291849 0.4683580653971095
P 4.511847191238538 2.4273929474731326 8.655785653974242 0.5974940356655387 1.6049682110099261 1.507997769730448
P 0.9977736472947283 6.288782978485094 10.302117262456314 -1.794762675500677 0.9767726324954726 -1.8539615544583363
P 4.0733747035006065 5.598481510929506 12.486948618016212 -0.538604460418182 -0.2584956265118903 0.7826186054844457
P 4.179228209405804 0.2959918362290597 11.607938772629756 -1.419698888083039 -0.804979489678149 0.08424733728585491
P 8.404307452146778 2.9993739446700554 7.450788289287279 0.12755911269961256 0.019986213313939773 1.069810314379448
