# total energy = -381164.8563702945 ev
CRYSTAL
PRIMVEC
9.25068406445527 0.00000000000000 0.00000000000000

0.00000000000000 9.25068406445527 0.00000000000000

0.00000000000000 0.00000000000000 13.53931120180865

PRIMCOORD
 96 1
Ni 9.112709886709412 5.151530065345248 3.526421732844252 -0.3257492574532261 1.534606887677544 -0.07629208699452023
Ni 4.661882119215305 8.261424957373825 7.752799233354069 -0.991745708865537 0.6058076977375566 0.28173557087643736
Ni 6.059614193434644 3.897831138454378 12.537821830453954 -0.5650292302686141 -3.162108503903296 -4.286167552323979
Ni 5.205822328779467 1.6019409199018042 11.852339682718391 0.29371536894613287 -1.0301677602871615 -0.26612897468743196
Ni 3.5882662545622837 8.672220074484636 11.304526211832043 1.2254646426533797 0.08060742654042247 0.624373376554886
Ni 2.5481193640283637 3.2711990660790917 0.37275908038181654 0.050113628826939496 -1.8522525421870295 -0.02736707915904319
Ni 6.1369591609884875 0.801794695880701 5.652716389423991 1.23706623144805 -0.3849805323107176 0.5542269974467874
Ni 8.155930158906653 3.9491446816933644 13.495524776503558 0.8796260706494463 0.10302461789335805 2.3404358698401824
Ni 8.221138229267499 5.557820099427868 8.129543508332489 1.1975470903075054 -0.6770689071763888 -1.0676590723644
Ni 5.905914081497424 3.1894045196000724 1.1395306872589472 -0.3503673131122224 -0.45706578031274187 0.9029714302436062
Ni 8.888288296845014 3.0630031756632574 2.931680467925624 0.4085673184917222 2.0369155989884855 0.5732834998576062
Ni 5.587681306850881 2.5915790766904805 7.435613636117775 -1.5025529445657928 -2.5089254022055694 -1.9126582969685963
Ni 1.344179865492011 9.162626576689142 5.2271756822783955 0.33270614838703344 0.8491284162812215 1.4558874221884541
Ni 8.625605878634401 7.606892822548784 2.465982542247408 -1.1253291733823587 -0.4512674284634099 1.1303446243190791
Ni 4.408209867061078 1.084929450984602 0.27699507624186465 -0.4098089042083071 0.3651200459413647 2.409496729193586
Ni 5.807782827363807 0.7276930180798035 2.7644974842972507 1.0166396438937395 3.1354119684487163 -0.7998989898314481
Ni 2.844344761828766 2.6466113948315892 7.217752631229957 -1.5983098251531442 0.9766517906468922 1.6882305586746928
Ni 5.960890895535516 8.018011713593861 1.7866067709120703 1.1444862059267837 -0.898914229455097 -0.799462673624978
Ni 4.098848498213378 5.550909838602282 8.149703523616557 0.055039091153014884 0.01989031116602381 0.08391952163279096
Ni 0.18282959026879522 1.6952803198083077 4.764321416811404 -1.2570593867405253 1.1915991002541864 0.19404578356793678
Ni 7.194552841237339 6.379743358267594 4.209087047351716 -0.22207749289417236 0.5654989708161808 0.6123519266139776
Ni 8.611803858350903 0.6478716424630298 6.810950109262817 0.4067279512901382 -0.003997551195167309 -0.8610166830783752
Ni 6.86468270632495 8.01021338712001 6.669369318219304 1.065103652932398 0.2363463441083607 -2.02507926847519
Ni 3.705157895515562 8.661794553801323 2.4559631265845008 1.2179683342763346 0.1463243091222577 -0.8221691140835582
P 2.3390816613834424 3.571541018186569 9.155620108751663 0.399275351666835 -0.004448265579340726 0.17834431367227996
Ni 5.205332042536153 5.302880503588093 10.44043371072534 -2.237220990312889 0.7358584665107715 -0.0700954712655051
P 3.1384332516630224 6.984691827731003 6.643361020614037 -2.2250789556337165 -0.9586874928589877 0.8636700615408223
Ni 0.7897734322356561 6.4233233298195795 9.733695341671126 -2.6760905593325783 -0.7745911071942788 0.35703624049196575
P 5.0669048096123745 7.755514309059972 9.901988407359836 -0.40953893837637206 0.1709652475993894 0.8134121938265345
P 2.853169914208429 1.3793232133854507 12.1655447107 -0.061470448600655425 0.31950687608794004 0.895015408621323
P 4.245851115053245 5.049902052721577 12.423780325190586 0.0016974423070809477 0.28273161624111953 0.43239964502462946
Ni 7.616883561091799 -0.001031451247727962 0.6357819237575977 1.002798624245589 -0.23324636502679827 0.44819161775156363
Ni 6.118531798786925 4.242086086731941 8.449532062771128 0.7166070744803271 3.861994408974201 1.2983381908846543
Ni 1.4567976905129996 9.021137367415609 2.6189092970159282 1.5752046065942487 -0.6142807682055743 0.8194751121911629
Ni 7.582646780214301 1.6810897708036916 12.535506384289771 -1.045948934380818 0.6711777385029344 0.21883970268316502
Ni 1.6441425395622076 5.281872200596252 7.838150667768079 0.22646945131428095 -0.463342357350073 -0.6237413993978418
Ni 0.7883303255572207 7.070010884751585 4.6359820546109205 -0.4519248595417507 -1.0780530140042144 0.12942779047723516
Ni 4.888422115678175 6.779086128789284 5.688744102692165 0.5872872703358659 -0.43879063615263786 -0.6850825215094847
Ni 3.3146217760058634 5.574369572810696 3.9099365833223314 -0.32623853838481875 0.32469150561267307 -0.9552578983521482
Ni 0.8069075488369272 8.907094937083857 9.782003337731757 1.8992443375555355 0.27827486602134655 -0.013034207476138843
Ni 8.26692911425632 8.228862550270664 8.72833379756619 -3.394307915722819 0.10731604617986035 2.2123573943019896
Ni 8.197576737536888 8.719380060681203 4.6045981846284825 -0.2824881327717458 0.4592777003623961 -0.024754581236860595
Ni 5.941297947170603 2.7288869768700867 10.038126096034173 0.949564447511797 -0.4716066542413943 0.1992512390282762
Ni 8.448196264025192 1.5598503084474344 10.111238875732987 -0.9588006213980842 0.3176955339108142 0.561640259191723
Ni 2.470182352709009 9.013690566927528 0.2804224546031491 0.502981826118566 1.2807608441225231 -1.3152861315929023
Ni 4.305240505281168 3.0617543333453807 2.990102236624289 -0.570156009972218 -1.4811940192740425 -0.31154699781091505
Ni 8.96068414854653 0.9348278550596341 2.5474079864413657 -1.879380508752073 -2.479490384773904 1.2912967106568407
Ni 1.5826717454711552 1.687768764533374 10.410010986793475 1.7081638072635097 0.8422584286342655 1.4528393793907495
Ni 0.2955389970597613 3.8460643117074214 10.062835597628846 0.5766907257669422 0.9342424724427459 -2.6832873341913333
Ni 2.4168614110775835 5.673416644644089 13.338712734523867 -1.1359262321719146 0.15050826529661823 -0.7112458101684138
Ni 6.25906818762534 6.843739158119963 8.392855898112341 0.18905861476599053 -2.2785974963771465 1.948819577380502
Ni 0.6830640189808008 7.843691827385918 0.6953387513629555 -0.565529052723168 0.21724921826759358 -1.7103111926238157
Ni 0.31572028891665205 3.382614302201384 6.602227854936707 0.42453129802014633 0.004050773030605927 -0.6597327298907865
Ni 1.9212005204541578 3.9229467450694577 2.5993579767282777 -0.02752648755504292 0.08291139208325075 0.42452692714477214
Ni 5.574314068707679 8.342248182050051 4.240959353440702 0.15923278965380963 -1.1404480313016683 -0.3377581089886441
Ni 4.08015286618057 4.7288293181373415 1.2153835195100233 0.23807001166768677 1.0497731932229146 1.2988922636159115
P 2.299072453792201 9.043662782556572 7.787147947505986 -0.8734183991768376 1.041354630141916 0.02176053160554317
Ni 0.5865590350655754 1.5235968784936595 0.4740392672932499 0.2578708484436978 0.47910424817001995 0.1409717865610927
P 8.075680476628266 6.877883432159101 0.20048637050680743 -1.126265826264015 -0.9473237311067362 0.6821090407034576
Ni 0.5570391778761162 5.524027351374502 1.1818479404673021 -0.3886361267854339 -0.6425909280041772 0.20435539302406094
P 7.648197125877084 2.2005526709374674 1.5757457584830483 -0.9743840776586381 -0.7455396983542774 -2.142199959450298
P 4.877580314222237 2.494789171713102 5.348677864055598 0.2763586228352402 2.3028134315017184 -0.3793989244578821
P 2.7061302946332186 1.8715150975703292 2.4100381066800574 -1.078352547522504 -1.4428853535018311 -0.5520392457668493
Ni 6.06036349882537 5.54480438727044 0.23004785577352918 -0.17230530656705162 3.7336333691985826 1.082667372847774
Ni 3.06376173173782 7.9245983082166696 4.548125535014089 0.590132710204461 -0.9170983565632915 0.6435442930563819
Ni 0.23916255455726337 5.514563901810146 11.887542234988382 -0.7166027036049529 0.933732622685863 0.966264019654665
Ni 3.6984418990505348 3.2288494354773105 11.15127383299249 -0.8853943405917912 0.9101208968041938 -0.7879896399883719
Ni 6.7701129654682415 6.771713333771891 11.774827277787114 0.3676145302284443 1.194309042986182 0.7795613067153606
Ni 0.3129053058253191 7.602387739520592 7.285463011568476 2.7396083773805655 -1.1468523921661151 -2.814318978820579
Ni 2.6528186036856294 7.314700722900933 9.147131681263634 2.2087262253073057 1.4653624515584247 -0.8757475615306466
Ni 4.122095466693562 7.320436146879332 0.4385397680721194 0.5663708318981729 -0.7059868757623196 -0.9131200886418339
Ni 7.471277797511188 5.356756486249686 1.979853556248726 -0.4310796406616253 0.26829898575555733 0.39374465165659284
Ni 4.029588628332309 1.0815529513844162 9.753150454846882 0.272583214953208 0.3153913112576697 -1.4724365847963867
Ni 1.2980282038335824 4.51621160084784 4.963375781460379 1.321063914616944 0.7339895316228328 0.744537225231692
Ni 0.019191468686425378 0.22413574373386155 12.135650200815178 0.7967563304374086 -1.431165751072058 -0.757177796813838
Ni 7.30370165981978 5.219226569658012 10.21695384047546 3.159115739823559 -1.2934482097822044 0.3373066232735223
Ni 1.795326465496002 7.5171149359191896 11.764767159115328 -2.5926024688102514 1.112409379996897 1.14595816248662
Ni 3.7895888868878767 4.300198882590481 6.066572557816177 0.49543795233303706 0.7389463614074757 -1.0495970726563666
Ni 5.748078913885456 8.689324588897632 12.890006464915846 0.35582936466805815 0.1377990452600659 -0.30594790645658276
Ni 6.710242539680839 9.216308294990178 10.627248495590738 -0.4230246315676327 -0.6921170597587628 0.007009084327981477
Ni 0.6466246502819201 1.902366128163807 8.370435015698725 2.366450034515757 -1.0531858184488894 -1.0514423533952215
Ni 2.3892481198267497 2.4791277639785423 4.8337774011898 -0.4666462249123254 0.5136035674984704 -0.22484734232982567
Ni 1.0123855883417079 3.2833729660074322 12.208937818438496 0.2583228483794519 -0.5774908530707344 0.4449975362942981
Ni 5.523833087013943 4.562585278918336 3.8599218360939367 1.62420237664919 1.5026938410190314 1.0509872681356738
Ni 3.902474981740113 0.8649352384041735 6.644768974693896 -0.31852728578349015 -1.1933101694080224 0.21028821356872812
Ni 7.111768471587855 2.8533271758336434 4.847289875069228 0.14206424829432307 0.43766552140925913 0.1474676786980815
Ni 2.8169072335708183 5.806913263083211 10.959923437842239 0.5986656873761367 -2.507507953032752 -1.0370259208595753
Ni 7.997789718728092 2.8609774913661186 8.016030217116164 -2.393773404921058 0.8741295663112493 0.612384836734442
P 2.4709501594674075 6.861824245019587 1.7194653076294735 -1.1206559362764055 -0.13239844306978488 0.7869257175002319
Ni 3.9505785376879636 0.9355956618180324 4.335355181441291 -0.08081054369016405 -1.4071128238879123 -1.8112465320883129
P 8.083876582507074 3.4850748763703066 11.471465902475524 -1.0303101994022967 -0.15096540743869485 -0.6544444849086535
Ni 6.141612254958058 5.126617973774563 6.371545402252019 1.9596007271564055 -0.7345528603254705 -0.3701318973336593
P 8.600231252871911 7.6569575234698934 10.917342540144556 0.1153563999858336 0.12332759111676825 -0.03948880212324166
P 5.171261773967704 6.249678743531674 2.4892563377107155 0.3894208274702583 -1.275917914207925 0.8702973370493527
P 8.331378628542604 6.042121150300532 6.028892672414872 0.5422546555762596 0.3195477566282045 -0.48470231108308787
Ni 6.853554133670092 0.7893682522836338 8.195046675507708 -1.4230099547341428 -0.23543514514800098 0.8001216473652155
