# total energy = -340865.4949437859 ev
CRYSTAL
PRIMVEC
9.30411924226670 0.00000000000000 0.00000000000000
0.00000000000000 9.30411924226670 0.00000000000000
0.00000000000000 0.00000000000000 13.61751898584353
PRIMCOORD
 96 1
Ni 4.687778059330397 1.442752531161993 6.16790523688604 0.13788286322312382 0.5500260719915624 0.7941852272761225
Ni 0.5273407227355169 8.12090496318723 12.212041499135244 1.975833386965184 -1.7044423925478647 0.4380167341010908
Ni 0.7818818824499397 7.8208378183424205 1.7509403111505373 -0.4270638346340128 -1.8097252103477801 -0.08977032398661315
Ni 7.922810963593703 2.9739500184151075 12.01495513563941 -0.8970434947949454 -0.740140638825893 -0.2752759312940227
Ni 5.176690909391019 -0.048158120421591295 3.7408141222382136 -0.6205938549077957 1.0664678802697762 -1.0340308427869935
Ni 1.76698247328943 5.560802161996308 11.874489919291495 0.07948591134146955 -0.5045442855096794 -0.46992900942865523
Ni 9.36906184353439 4.385450013546165 13.192284409396661 -0.658674206719285 -1.3403075933379047 -1.3562070381769804
Ni 2.6038786815200545 8.302698146131101 0.4711801294826639 -2.208468857880861 -1.474498609531738 -2.820881719639761
Ni 8.841769502218153 8.207563528412637 10.03744556841345 2.38559189755153 1.8511325696499732 1.4078705279895432
Ni 9.107569576446132 3.8217878706982424 9.884603082437089 1.4659476346379334 -0.628114331654557 1.6691074646919963
Ni 5.154147028830448 1.5542251820064839 11.079212896584414 1.115324753871479 0.2927213804639798 -0.17842350364964754
Ni 6.77934403127277 3.9347677888356816 0.5656225207406632 0.08695342336310831 -0.03953816730393836 0.9996495370936461
Ni 4.047291805137599 5.48536436439618 0.019449330550481925 0.5796840040673114 0.47988792041357997 0.43627018372362936
Ni 2.517229420413741 5.145698888694667 2.122317946366145 -0.220197245152324 0.6554785826001227 0.4808741955862492
Ni 5.838120735660517 6.47206619413145 1.4325217218081325 0.3693461682075703 -0.617721161345691 0.4321291649720622
Ni 8.764433664323201 6.560352980198003 0.06573732303452688 -3.517078863005168 1.076005387446566 0.34193795139794664
Ni 5.670544246689636 3.9800602405768535 10.992006318744473 2.005659212077365 -0.4265678688342009 0.11048004573013875
Ni 0.8516683581134227 8.229232821778535 5.671764947114542 -0.5934890282712038 0.047167144604105864 -1.582783704493087
Ni 6.476727557796678 6.560436717269834 7.15920609268862 1.9037519956179023 0.33001034672242524 2.5688598737776727
Ni 8.548810704359836 4.945371900518994 6.5463493505522266 -0.23756247590364893 2.2490249249263523 -0.12536184793797764
Ni 4.8884306916743 7.769106916189397 12.541462209304258 -1.3831298307097535 0.18840144079796586 1.2766406513065625
Ni 7.0568672955570095 1.384555266239842 7.764109673824938 -1.150135176682445 0.8495248803886918 0.20079312959409934
Ni 7.892879612473869 8.574536593649963 7.557232585808307 1.7494570095853417 -0.9902770947398106 -0.501356374700001
Ni 6.135033784133049 7.0016659569825705 3.8695542877060496 2.175391101490286 0.38144218014015596 -0.7298156027508012
P 5.03391920192013 6.799105980224753 5.736052688394494 -2.492662660489804 0.19436125792582656 -1.4287795102280683
P 7.50835897862852 1.7557058809495982 10.107630260374084 0.57189921791557 0.39166745741258996 -0.23558221224882653
P 8.404801549049676 2.251224655565732 0.4943408731390525 0.1001840631207694 0.326898797676637 -0.4247845516815329
P 0.9770348499984008 4.709242662076265 7.711845645647928 2.261906151764395 0.5482530392515397 1.8038039597673385
P 4.151321160708274 7.829918638576476 1.675553686205417 1.962388574314188 -0.7053960362558561 1.5910161197052084
P 1.4392541823832992 2.6973478619210023 11.334296486441916 -0.1875046400153093 -0.4277372065519537 0.3810935385514856
P 5.803267505540873 3.327478631564104 6.89050499412767 -0.14622917830529011 0.32491082071233074 -0.5632420564612042
P 0.906215617115676 0.07116999817250354 7.619545993016879 -0.023125016053237593 -0.0887285129856601 0.07876137447061919
Ni 7.133077335041796 7.429934558799775 12.06401854684868 1.5405422793253727 -0.827538863035904 -0.8730106222154578
Ni 2.6770090575852996 2.1573553980438165 2.2460459828789743 -1.5844526075550776 0.3304772590565147 -0.030451631621637876
Ni 1.7661916231665868 8.653854208911568 9.925999899514329 1.213270414580033 -0.7621161146557197 0.24565013800778981
Ni 6.678794416242605 8.758227816888658 9.782076342099815 -0.2033485490261014 0.9995585200417366 -0.23879994785517586
Ni 0.5546827375119718 3.6825145120060476 1.6424226485297513 -0.052372857174761415 -1.017798697198847 1.845529878751215
Ni 6.056051117158766 9.18563113563028 1.5031967408449272 -0.8580683990833287 -2.493127515941364 -0.1505871981636697
Ni 3.1856745524788113 9.480339107877942 8.054952715001672 -2.4959295041665337 -1.318065751220569 -0.46666447974477054
Ni 7.870773025510634 0.8947836459870034 2.1384131419838632 1.1609417803796456 -1.5057328849556713 0.13765943435840808
Ni 1.9220077056048384 1.171490939026851 5.735453503124951 1.6995945775372598 -0.3530350897523727 -0.33298408463876844
Ni 2.2985919258644802 3.3359919005335312 4.273844313798654 -0.5223489177912681 0.7967406467081246 -0.7450568451805878
Ni 4.68737798220943 3.4410726215616325 4.828432149295884 0.08807236745889993 0.16274825900623582 0.16277525558942935
Ni 3.4313591212293026 4.673710231262884 7.730896759901261 0.2083028077075832 1.4124501769404256 -0.17297867848499243
Ni 6.4598591898823905 5.081751678173492 5.41730752447195 -0.7620461806497327 -1.0893576403837562 -1.3366496848703433
Ni 3.306925832489279 6.702101234568742 9.459654190312007 -1.280760329901891 -0.1948492533058386 -0.2770955010012647
Ni 8.969282454377717 0.7088771119924404 11.5987763061707 -0.6039367059670889 1.9147331772197542 -0.39525183232973865
Ni 8.993994194686787 7.184501201264775 3.634910917082356 0.22630772892543605 0.5371623286550168 2.7766600308172245
Ni 3.084575994422202 1.6575846410025152 9.920416497647057 -0.06214099230511879 -0.46955542813932033 1.0248334925584415
Ni 0.8530537414462618 3.2656155437195986 6.124424297132133 0.47501053771662066 0.24567456348782202 -1.1464453865356836
Ni 4.706795678754998 3.0052397709224126 8.832363968227776 1.1992136793766508 0.08373414509486224 -0.034815822127604555
Ni 8.1021664673354 9.01437021549886 0.11880615751301846 0.2447829049114881 0.24564936667684145 -0.4944861299427291
Ni 8.797565632410775 2.8657803298483726 7.94485521295902 -0.3215385618059882 -0.1946602772234841 -0.7220269599443179
Ni 3.9254915821006877 0.6025152137653336 1.069516863363659 0.6838139392097061 1.9038838932100761 -0.6326078486495362
Ni 2.5644385206879208 3.773629750276651 0.06649746956436536 -1.1431967976913988 -0.9255966238422898 1.7091732223646305
Ni 4.340464597735037 7.468472220079958 7.6324424324906746 0.06560066871894508 -0.09218279008284769 0.09489453258705594
P 2.753730823620161 7.458200472602091 11.730988768883773 0.3701159564940594 1.1180012722623778 -0.9490445704525848
P 1.295524150645907 5.923365074783898 0.3389388240004071 3.6185780453929355 -0.5875811474272009 1.7268984075585356
P 1.1773432299358892 0.48248649500359087 1.9327614064516843 0.27880657015510046 1.6155053630958243 0.23441827384771238
P 5.207441022990972 5.540528486494251 9.471719771950863 -0.09710439575418116 -1.2524429710144365 -2.2256281432689673
P 3.558481300386992 1.5984104435756759 4.1679550648214345 1.0782252779160206 -0.7066044547416604 1.1520650467153062
P 1.9414905309840522 6.917435766840246 3.812170202792563 0.05214454321403923 -0.8471772060921215 0.6689663326739124
P 6.041648340803932 4.454421448377165 3.1234914029375322 0.4478393766184674 0.784786559670042 0.2766275602259107
P 7.840525334341664 6.9137606397988 9.059000213960662 -1.6903103240218569 -2.3441182037877755 -1.379257749348857
Ni 7.687686570012938 3.051881319931964 5.671805885238548 -1.0713198090454388 -1.3873256139586558 -0.3714670712053151
Ni 2.2889156420085195 3.971723749870179 9.722622090688299 -0.21207538737613799 0.6772787091943497 0.02478286337163474
Ni 0.3570827866422435 1.4790758120982164 3.632704910445579 1.5665173632328957 -0.088230490303319 0.9921239181405624
Ni 0.77221583312498 1.441040573249015 9.450489633006121 -0.5814701494334567 0.13367422445841493 -0.20570419374247154
Ni 8.170970428022738 5.40262283330862 2.544624468669022 -1.1654278411754575 -1.3529921307841086 -0.5177314736239148
Ni 7.335023239939525 4.85384728100833 8.756064609199704 -1.2755062805918034 0.03128004106020419 0.4180058381968027
Ni 2.5565672359358604 2.419796685279486 7.80951098375949 -0.7877872941695787 0.8224717329256416 -1.0108112101374205
Ni 6.309299934731273 8.796104885713289 5.660625125325367 0.4892158826827252 -1.07607686411445 1.7044174528472003
Ni 2.3889628346077023 5.265331251983079 5.6343167981800635 -0.3095117125484412 0.7961868310871836 -0.29705985993833356
Ni 3.7834642041571813 8.662618689096487 5.628583599995406 -1.1469074137737665 -1.0633761287183299 0.07426580059311082
Ni 6.021672397112828 1.6246387552967858 13.566562138533328 0.16241530114684932 0.7040747463412712 0.15869131532804281
Ni 4.233941738247634 5.639933694876068 3.956188662221815 -0.8493724139712275 -0.009064938415745679 -0.4034145706461891
Ni 7.872001169230814 2.7477575791629234 3.178301968510097 -0.3235573920082298 3.9928185655783297 0.9699918621282133
Ni 1.2293997762571418 1.3078893249195342 13.609974227805951 -0.1679596280038462 0.606482355207078 -0.6750649893724826
Ni 3.5479397334554497 3.3902628271987445 11.774946079535205 0.13573110698744367 -0.7235611372006571 -1.0708834928389686
Ni 4.5105345906226475 8.677375021976827 10.243288038387023 -1.8465020128564973 0.02988470337457434 -0.3723574442300684
Ni 8.072281636811026 5.253598757807725 11.295296410442846 -0.6218578092218838 1.2736635709561097 0.5216817165209144
Ni 2.6636204302115227 8.950832386217746 3.4728620052641928 -0.45642711828747845 0.11158253476569815 -1.100888266731175
Ni 0.9095381180435257 6.119672683511711 9.528219035138676 -0.8940599866865894 -0.34537294522142453 0.19081442111483266
Ni 4.204494201320599 5.698177480393679 11.282740501727828 -0.27991265873508564 0.6455063018787592 1.7405463373592733
Ni 3.0014157779754895 0.3658463364152529 11.993425404059897 -0.1636959676314858 0.1509291548841207 0.3222155332683548
Ni 1.5960844138026082 6.952223868126246 7.352343788041695 1.0112174444369035 -0.604084801509179 1.2149912539258818
Ni 5.6297177721127545 2.327304437383227 2.6866816197936236 -0.14264300361592855 -0.9766733879134469 0.46462919448229656
Ni 8.965104904905287 1.1389079139657203 5.975135984649019 -0.8710761241969063 -1.025316088621815 1.048918044311471
P 0.1708766600129094 4.2025868569066835 4.034407461018623 0.03102524473692076 -0.6880793993542795 -0.2900674877809004
P 5.077415958676495 0.7393164680147121 8.292687844399728 1.4396848442866625 -0.19885271803827687 1.4038464944318145
P 7.992154563188393 6.974442104518587 5.594144403175368 0.3892480493378199 0.7110612049614334 0.073706328545215
P 4.373131359867999 2.8170081375666913 1.1624268662071613 -0.5514427498334309 1.013477444115674 -3.127385241489498
P 6.243947802227165 5.627354525863318 12.987136957119283 -0.4703280446392868 0.5202570682592459 -1.444468638828551
P 7.658685630802333 7.7048154532618085 2.1049276173707825 -0.28617432337408133 0.31618629635513934 -1.5679119295875772
P 7.258254953309201 1.0173961186206697 4.611968096966578 0.584913885007683 1.0488015733382645 -1.5044059386141317
P 6.379657683307021 9.356222159187057 12.103849480682689 -0.47229056768229627 0.4781812221351184 -0.011581019969380055
