# total energy = -340896.24487138307 ev
CRYSTAL
PRIMVEC
9.02903943976037 0.00000000000000 0.00000000000000
0.00000000000000 9.02903943976037 0.00000000000000
0.00000000000000 0.00000000000000 13.21491188938879
PRIMCOORD
 96 1
Ni 6.312634943260027 1.9424714526154534 11.303018509957074 0.7343109195179933 0.23112931868379546 0.8382392801725433
Ni 4.4583410908892676 0.29079556807298695 6.128759455729495 0.8055212211142322 0.11619843627115473 0.04751989995783429
Ni 3.187097467455752 1.8382853652487194 4.922753351756146 -1.123090513859827 0.5588236156785343 0.12920924670852585
Ni 3.5822533833587866 4.489093999596356 5.048876393613409 -0.5175083018695151 0.09737590424801293 -0.06083692878171458
Ni 5.028606199823799 4.862336436511691 2.5439634948334455 -0.7098471300486743 -0.3604984880089533 0.11577291869796191
Ni 7.266056374535726 6.119404467851805 2.594602863149273 0.27675765804587177 0.10998999346759768 0.23729816649866875
Ni 5.034673714401357 4.579384395095736 11.371458629745602 0.0315021843733393 0.08372128957905581 0.118742285738931
Ni 5.483922606248071 7.832393851266034 12.454420594348218 -0.5397462873321092 0.13948903136797913 -0.5221216322718105
Ni 1.7285644766378734 6.257332076016656 0.45098246744030135 -0.016023114901133693 0.6782832391994642 -0.5537176619105367
Ni 2.7875353802523475 1.5306659877823332 0.4523521727400269 0.2616866226453622 -0.3306433523207338 -0.5456353991230345
Ni 0.5097461655431627 9.055223764632782 4.791369991457089 1.0079107486611738 -0.38204458961084525 0.2647999714633633
Ni 8.750638144455175 2.122573704518066 1.2147823304158882 0.15808144965818582 0.15868514468045575 0.8466856111676837
Ni 7.1285531312297215 0.6214516370470852 4.7141428103785605 -0.7437039306971192 0.33943189714664124 0.8533709936076593
Ni 0.9522025109364576 7.4736159357097 2.563270290103078 -0.06190393659364823 0.017680190888582456 0.14585533990563915
Ni 7.756838848312153 3.8335044669149103 3.6405891049869807 0.31653905170886776 -0.1409738434436217 -0.6560056587481863
Ni 7.417157351403938 3.822344574031187 12.590031350964557 0.247258105924858 -0.05279503231384456 -0.17620438451114168
Ni 7.642540236649489 8.73683274298332 7.149003002906375 0.49683251868771855 -0.2845247035858003 -0.9289138611409808
Ni 6.945209454128681 0.6222290373523347 0.43272484656637183 -0.3813128536511433 -0.18458540948598534 -0.6043863919099978
Ni 1.7513718305410166 6.496809291999662 9.335476123223307 -0.004638784323592012 -0.25133253310454784 -0.6991760234880733
Ni -0.2525991191609294 4.579257988542037 1.3648494822556323 0.7080159903772064 0.3918795734233961 0.4131505669870304
Ni 6.288166246079695 2.1507713950325225 6.666922717448177 -0.3266601993032697 -1.3008794692492693 0.4057049093422626
Ni 3.597548576356382 4.192183063036196 0.39521009014033454 -0.6648433116444744 0.6425477334710676 0.020682982270648253
Ni 5.9201967682615235 5.721873914547136 4.7108381819032825 0.7973070607345558 -0.08462657500214457 0.32746109793801026
Ni 5.066988646950586 2.980964494530668 9.387635981799344 0.9618046983317305 -0.35849559864631164 0.04595769767703698
P 0.0373748063130132 5.463318337995113 12.53421202265893 0.3362660978241499 -0.29365211980836525 -0.7266084086674132
P 3.885520763762103 6.092651423665338 12.434941344423182 -0.058004344428925915 0.696958189901148 0.6179487039754649
P 2.450309782101714 8.612439665103826 1.463128771948797 0.27532632491598386 -1.0547513631637964 -0.31224016722319775
P 6.199410787303805 7.775194885717178 5.737399348053255 0.8667417584876105 -0.2879424710180976 0.7898662881857945
P 4.646686855900974 0.859713544306668 12.521142487910394 0.2530173770061384 0.41760551743459046 0.1413278843489308
P 4.141954516019891 5.9551752674779825 8.082993038166652 -1.12493990836374 0.7902761220297034 0.002386755064621696
P 4.761581384173934 1.102617280798874 3.7076017336226657 1.3964856831913692 0.12922441621717745 0.40636362597218406
P 0.25223615177102193 5.62950683995127 3.548481163826199 0.204089540957184 -0.45309522570076805 -0.09399618914250263
Ni 1.7474261402576938 1.2469193908859826 2.732275852398817 -0.12279845808617562 -0.6500322147735708 0.39760619149452814
Ni 1.9770617031312658 6.55812549958329 4.7715873658031756 -0.34361379643847273 -0.35714448393505593 -0.10607523179422375
Ni 6.008961256076963 5.516038899927199 9.029352857610347 0.10067591515552338 0.7902195577601552 1.502764803466283
Ni 8.567050683286288 2.1751136856591553 10.14652856177954 0.2811236483240513 0.6613085590183385 -0.20953333768057464
Ni 2.1998081088282353 5.210035720540252 7.141682257639285 0.5474529119477475 -0.0037535535051612776 -0.3735848888792663
Ni 0.5300885916491729 0.008675101199580395 8.71298795243589 -0.15897387956546816 0.29488599221546635 1.7232520690552
Ni 1.5559653566012592 1.098400719329053 11.493445468585039 -0.8275260075200974 -0.04761863031922767 -0.4498183547217092
Ni 3.9282732660310593 6.837502041337471 1.4308580816933638 0.2304538898833257 0.8852143633705013 0.02145791276345982
Ni 5.490676327831425 7.853910052513537 7.970481273430921 -0.3931543263707616 0.2005383332708159 0.6561478407530054
Ni 5.4278161544847565 3.1607597590885828 4.484123513324115 0.27619484356386625 -0.7600726018631297 -0.10644315665660377
Ni 0.8384402242230592 7.426646871970922 6.941806409122309 -1.2625157818694064 -0.6313750046836998 0.2156988430613382
Ni 5.278611275922032 4.442838229982024 6.941410034286067 -0.2969783559681208 0.2329882262694052 -0.5698011977359605
Ni 8.270356443675325 7.0947122909965525 9.307249539782292 -0.4403998896212867 0.3475416707379692 -0.5451779998706416
Ni 4.701240312861699 0.40051735958778806 10.388916740113443 -0.5122938475481114 -0.8016231716114066 -0.49068655369098074
Ni 8.230095956322153 7.109709525689 4.994470109997349 -0.41699410910283663 0.18822609156236617 -0.7896197193926272
Ni 7.195927824351358 6.055605274391943 7.004828202276921 0.2507074979260392 0.4314383095526248 -0.36749394549018
Ni 2.4477274767904316 5.133641016908228 2.436353595669375 -0.2926851279094056 0.3084786432982365 0.4151483141433496
Ni 2.205144271202249 4.980481419022629 11.560775016508927 0.3076412349986057 1.3051973798983327 -1.0228838250312384
Ni 1.4962834051761693 3.547915945950373 3.8058548391011358 -1.1759688499160972 -0.40614508220347467 0.9764273333409118
Ni 3.7760075430609055 2.7425797923332063 2.5672078542508063 0.4326392718392614 0.20255742058337373 -0.08698119127725021
Ni 1.0686319759329077 3.2299854053179575 8.346472149985258 -0.5966597126897015 0.7415907410088582 -0.07126532320389017
Ni 3.6546121063119896 2.896813845925246 7.4859965547405745 -1.0956290752147648 0.5597600114498746 -1.6382326294900107
Ni 4.139643081895107 6.901319292876432 6.0198150645199435 -0.6133595419428857 -0.3929596938614523 0.2550341503258511
Ni 0.768616855575479 7.281351567533321 11.361454453924273 -0.24333280272852284 -0.08606639277246468 0.7243054715658495
P 0.14289899734104816 5.566231330785305 7.9808420963144755 0.17274805053142508 -0.45532205814875776 0.5527151887879513
P 8.267792196443143 1.7193729143760366 7.710531613172387 0.7092871437801462 -0.47672957729025633 0.7979986874849417
P 1.6865252684933623 3.031951480869168 10.510519844772007 0.14175931545939457 0.9869333750785584 -1.1659245783062178
P 3.9984559904527273 6.306504225405619 3.769685409568039 -0.9754706258545973 0.31076101157450997 -0.04781969058644023
P 6.843695962468728 3.916391049983341 10.321942936347824 0.5507284973752258 -0.2555838521817341 0.2562893628891909
P 6.281854947434288 7.711720737681114 10.146329922909441 -0.4399450614720552 -0.0832752031805727 -0.32323291878927557
P 2.315424960265191 8.512172180901764 5.95195641487843 1.194951047445555 0.36971383595963425 -0.6231873266665848
P 6.597663663772469 3.869142086018516 1.5907452169476202 1.885634974302217 -0.32218827957484514 0.10339151431447356
Ni 5.29783410112385 2.5937992786293282 0.42610836638417726 0.15457935004219828 -0.07176103189338609 -0.07718014602642836
Ni 1.3924855665100824 1.2762095951859813 6.9767469863726586 0.45086067994329443 -0.027778455664848933 -0.9275689170773121
Ni 6.889599599540612 0.64184191706271 9.284374468082522 -0.2745624501667659 0.0015388052420296078 -0.7596262583543304
Ni 2.7583806115455975 1.5523085955835343 9.27690835527868 -0.6415401181421596 -0.19411134669854957 0.38845049313718905
Ni 6.545773773478975 1.7482297247776382 2.56734058113219 0.1647562905752001 0.7897050800175819 -0.03169784532391315
Ni 4.0388880295573495 7.013604428719461 10.268462129285632 0.28831013877016154 -0.7610174822749023 -0.0872580990877207
Ni 8.139173528054277 7.170167974515385 0.3456000323332004 0.1682301080564135 -0.05035145586935845 0.40066091916045193
Ni 7.453986803728134 3.7550330841863997 8.059430856557135 1.14010787435343 0.1009106568741488 0.5929490966073337
Ni 2.9241086324847085 8.328656952049275 12.307073892124869 0.7009295158440703 -0.9047781444350418 0.8214913712902434
Ni 8.890443792846416 4.790483339773286 10.108138891421113 0.5707604763254364 -0.4546980514115137 0.31357971197022766
Ni 8.752498126602463 2.5395347509342012 5.529766651658926 0.3734005407826021 -0.83925229481809 0.5173195828974768
Ni 3.6519756267634076 2.624985581234814 11.55168277368214 -0.1526744197100016 -0.05783645139249394 -0.30236584553227924
Ni 1.0737785284763723 3.3101993926796065 12.564976669117433 -1.3261307876168902 -0.6474246019473947 1.5517291491801277
Ni 2.9588162605146704 8.398054150030099 8.127488145068748 0.8646997883569172 -0.36320714518936803 -0.7499347420981793
Ni 5.756951733198644 8.014022010852587 3.5876373996424147 -1.258669925760755 -0.11209187030194889 -0.21699390772367788
Ni 3.2350236093868228 8.548766878197663 3.893364290419134 -0.1445924140328155 -0.6389787851728868 -0.6000952207338117
Ni 3.216938443168297 4.443605698343768 9.375662572452171 -0.19501508945974155 0.1997765154041269 0.37669746636631896
Ni 7.240612541084001 6.149353792038949 11.329078123906106 -0.4291888513968156 -1.0494692888292505 0.730745056543606
Ni 0.6212213965385617 0.022804645191278314 13.494275215427564 -0.06855872290600451 -0.5071878937801135 0.27802572612501797
Ni 4.657864806863796 0.2774732202170535 1.615813442354068 -0.21633647664533712 -0.1977386590384917 -0.19310501692122226
Ni 5.93962726137299 5.703788748328611 0.4176653115010303 0.005606547553500022 -0.3254713212014911 -0.6787663494834697
Ni 7.737263890567888 8.569813569388568 11.546793548765848 0.42047461145226944 1.1063919701582237 -0.43484527835164466
Ni 0.07258625474986127 4.9823955754072164 5.792532469353085 0.47226279976815433 -0.5598489716192552 -0.3164958571757582
Ni 7.866559736923 8.623093931772752 2.5620540784757013 1.032758403832473 0.29962222134887107 -0.1349446065304063
P 8.802753760737417 1.5056555482290048 3.496837766312419 -1.684556709367531 1.1452143423420598 -0.44329469467057847
P 1.8156947082947745 3.070731205736151 1.5790760862332804 -0.2819402306880757 2.004987125711005 -0.41390544287518394
P 4.636890347989291 1.180628182510338 8.199694277253556 1.1859462728437833 -1.5192363187587448 -0.34346775777891175
P 8.453176436482469 1.5919551082473118 12.279613874141644 -0.3082703839421723 -0.4777212517795644 0.21728187127774193
P 6.235969368441503 7.707296508301645 1.3714966611722965 0.014339556551123692 -0.4797439386365479 0.13978059446646893
P 1.9525749478718342 3.2187713381969343 6.073824973299763 -0.8142822551363137 1.0341483422014641 -0.2708464347677594
P 7.075913830653583 3.9683170564350343 5.7470730610270575 -0.49905960824602436 1.12533971490532 -0.04723476461724768
P 2.2884642481690762 8.540171232546122 10.171742154722741 -0.44957718524518064 -0.4338533467520206 0.201940098714349
