# total energy = -381165.0942546613 ev
CRYSTAL
PRIMVEC
9.28652797192774 0.00000000000000 0.00000000000000
0.00000000000000 9.28652797192774 0.00000000000000
0.00000000000000 0.00000000000000 13.59177238355963
PRIMCOORD
 96 1
Ni 7.296035159600301 7.63140883841959 8.044562762692689 1.188327628591766 0.7559290120084013 -0.36896718760159686
Ni 8.857407002678432 3.697784084335582 6.083949143213178 -1.2196380086692737 1.5747281811784621 1.521704063572947
Ni 1.7478360424748323 2.86800493155439 1.7815145655851508 -0.24896866085806155 -0.508598400974395 -1.0172950180895513
Ni 1.8073069689620322 3.203452902599148 6.65648867935268 0.4119143805870842 -2.9050920330400936 -0.861767959422103
Ni 6.351975990992832 2.932100549076978 6.882275753689638 0.8024870622735986 1.413698961745862 0.20709567477335947
Ni 5.300815292844939 3.493582616108375 2.52744472674461 0.5197737008649242 0.9852809270767999 -0.30174132457440295
Ni 1.2170273780335696 1.1879976909319168 9.94988439336758 3.1982019071917436 -0.7467013227625463 -2.2188589428659333
Ni 9.240810605262835 1.5512123812453698 5.735130428889802 -0.4504431327899016 -1.4814477871560614 -0.4377457398278912
Ni 1.8700374668416437 5.699588099573052 9.368007253139558 -1.2797861389140799 0.5141519838027726 -0.7546982249250938
Ni 8.074979857104958 6.94203270524489 3.159733785216818 1.7924610239506935 -1.094350465612657 1.0924293373305443
Ni 8.965242167945352 9.171681689464785 0.23959335578738297 -1.3244019778512417 0.7993202345098428 -1.9212306120186395
Ni 5.14430943336824 0.2619841038906445 1.531085688713248 0.3916659147506932 2.1005329187288146 2.298926437742486
Ni 0.10980205193618858 1.4488005484376187 2.6339361313833773 1.3052634572495778 0.6401254971828202 -0.3779981874556135
Ni 7.835489581780412 4.98806359668068 8.229030358529936 0.0020329712696287566 0.5511833255244573 -1.1771181330291922
Ni 3.4623798814117803 6.365831491042629 3.8949259338376843 1.3464895537789003 2.0590977915124795 0.3134670976517634
Ni 0.38758904083671253 6.284305060119593 11.736155518688324 -1.217982989564354 -0.1764913196239412 -0.51802200828114
Ni 7.219690611403664 1.9911709404673517 2.4038549664143636 -0.7745471413302208 -0.6789740946189017 0.5189416918819321
Ni 7.047527665409566 2.7626864154252 4.705934227201547 -0.4106113455049445 -0.792886563069357 -0.393597070335135
Ni 9.221188171211077 0.19825994749539716 7.654328918629313 0.25225273092597206 0.8814608098653399 0.46730648420414356
Ni 2.479874486124579 5.847531780064554 12.13007239982928 1.9936223355174891 0.0118044488340958 0.4374138104097693
Ni 1.2610362350952247 3.528685692642044 11.797196797091356 0.05412737797202292 0.5465584251579361 0.46458137196349664
Ni 5.574238542152031 6.226533568289975 8.505323145045733 -1.3791685320691602 -0.10480433550160015 0.07796818914536251
Ni 5.708410301347388 7.252221319630499 3.6811416971779134 0.407055509832886 1.709371968638998 -0.5889158070782246
Ni 8.543383052153033 6.433047382034877 0.6465847399579034 1.7527379943294585 -0.2910465638647181 1.883701761835246
P 7.046626872175765 5.139257562036411 5.940936609187119 1.033029912326305 -0.15875713556897175 1.3194425769634373
Ni 4.923234343431595 4.891390838290339 6.251562619050172 -0.22616169026587502 0.7167132610408883 0.6807820943619178
P 6.363305555376715 4.473738519765148 0.11467747923253145 -1.092524468147512 -0.06981419257966041 -0.3981525509163014
Ni 1.9186245822977697 8.11255315013544 9.337670022869666 0.05061088017833219 0.967541857925824 0.5132451557177871
P 3.98354912959856 7.386968843573233 9.857406359757729 -0.22078757043815522 0.009800788140505702 -1.5629342738673275
P 2.633575814089857 1.6640251256186525 8.231775456260982 -1.0038046969126002 0.03814925737621172 0.038009132253921635
P 4.318096307409516 0.7056182709676597 12.478783390425727 0.2732499020029294 1.2345380657095577 0.13004305546373088
Ni 3.756289211891697 0.8693926960535916 10.389754730571818 -0.4157314403403292 0.5402931609745146 -0.869480240464696
Ni 7.208212462568845 8.389570285849551 1.6458959652988037 -0.27869524138821683 -0.7777723331357379 -0.2165820169972399
Ni 8.173203465701945 4.72787365003509 4.096628397330709 -0.345325894033573 0.43401558336149765 -1.9250011348046652
Ni 1.516090731655334 7.982532469038113 13.408052834248139 0.5091493883818586 -1.0746930963930459 0.5725445648090527
Ni 7.290797557704801 3.203917229008323 9.789963877477804 -1.5943498120641315 -0.3973843052917092 -0.7822080003095884
Ni 6.615694818348156 1.8329006406357862 0.19772782943048203 0.6321684471192726 2.1689101217516327 -0.7228821088557615
Ni 6.5252811799535 5.533786425384661 2.015251836700012 -0.19511304849018657 0.5483926501531975 -0.8953293403173161
Ni 9.183336282335091 2.1859930152292133 0.11113745468897734 1.6862847478022314 -0.959723647432986 -0.9114843528106238
Ni 3.1554972710595006 8.896048246450018 3.063517924013105 0.6090639998913252 -1.4419206755957168 1.2351746708522922
Ni 6.512205748271118 8.998831540385108 13.25702138313562 -1.692518387416769 -1.6614859435909966 -1.378402600437413
Ni 3.472251460870852 7.594327731382834 7.428406260980875 0.03890233349215236 -0.8427243125270906 -0.4089635254888763
Ni 7.165615157791083 5.79127399232885 10.669133430402995 0.3424588568984231 -0.7782137915485308 -2.286041868470334
Ni 2.469919327911856 3.4044133724903096 9.698708879629722 -0.9474561429195425 -1.0917801337823199 -0.8563043652043704
Ni 3.8873871302583107 5.269213237436453 10.359934759921748 0.9754189466810557 0.12086190318509506 0.13600004437811417
Ni 0.06932393288990407 6.206428234772676 5.575589732002732 -0.18210146672186703 0.35670251130163083 0.3775125060684466
Ni 7.074597895064499 1.2614541288634828 8.172963873274812 1.0581567893009194 -0.23596916327460007 2.0173443617247773
Ni 0.03465546587522358 4.176476752610985 9.952901586374402 0.8173902046376762 1.2336158110056044 0.12021269963687037
Ni 0.4113792687372291 8.55110015707353 2.1087095990332227 0.63814574774863 -0.45678578717847784 -1.4639483448197175
Ni 8.193253080050145 8.487533871657401 5.731188297675901 0.8540903882721871 -0.662399220979356 0.06898784002362313
Ni 0.8366465403728979 8.552075242532798 4.218124974208392 0.43321159940296355 -0.918462841010986 1.115674423901414
Ni 8.148166985719202 3.7529924943865507 1.153638465305747 -0.06618302358497635 1.965464385026034 1.4438369187818232
Ni 7.473138538588025 6.86753617615677 12.484776915715365 -1.3237512316411202 1.579904326062763 -0.04666269416386157
Ni 7.9340289323356386 3.785801798458892 12.307146061926817 1.2469930036434589 0.6714495041070823 -0.21834785064841106
Ni 6.188690965942171 1.2260167373152075 11.076424769433842 -0.6143116214435097 1.2317126804456207 -0.2391264779566591
Ni 6.262425999719242 0.11536653962374792 6.496908050394421 -1.535960316381645 1.4130142769740117 -0.9712550451113531
P 5.936784602436272 0.9332867959145973 3.9743433942102455 0.017791005434833876 0.616897379892815 -0.2368024578091728
Ni 3.527329859527251 0.5092787775006126 6.471709056168466 -0.4167722229000177 -0.41846478011109217 0.22157741332930228
P 8.920898995869091 7.000565692385555 9.742284055825209 0.37552941420014685 -0.3416669571247471 0.5226816185403385
Ni 3.9037035602767385 1.8436637268004747 2.9239163317888504 -0.7039096815183168 -0.18032380599615394 1.2104116049749991
P 7.962557146915383 0.48434630663352424 12.004335594183006 0.15361415791545155 0.6897670714693476 0.10671363670917104
P 3.693605146653002 4.276362649752821 4.255176364354961 1.147916057543939 -2.1048953094625684 0.9858108314383409
P 0.9125880532463713 4.8987736281962295 7.4030856132357155 -0.3558684454361097 1.6334856017233288 0.9490761950214687
Ni 4.698751097651601 2.2220990368067013 8.413389301987436 0.4238576689918894 0.2599189892219782 0.4600104647633626
Ni 2.5501363583610175 0.7544997693672028 1.2027521269098775 -0.6535661960687583 -0.21448065438352096 -0.5645366069029116
Ni 1.9385070391386652 1.2280597735155798 4.522825250437547 1.0510106651744415 0.8329911443997268 -0.13377681147455023
Ni 3.9651153711542917 8.293166836776532 0.15878755945138684 -1.3850159919888727 -1.4038243829446275 -1.2791978705107774
Ni 4.218684023205039 2.6219583673322857 5.869172176690589 -0.5787866890640224 0.5646448503460016 -1.0772184339180608
Ni 2.134954256332641 1.4856959249107047 12.490458413658036 -0.13314483431750618 -1.1940922989896854 -0.14732626802421078
Ni 1.184310939243063 4.798785579244374 0.12286448247911409 -0.654165520215654 -0.04032775308476926 1.6258697370492838
Ni 2.9353601204693898 8.243344613071999 11.506727196650612 -0.41117441709726604 -0.05514013550725343 1.1175870675430946
Ni 5.7762576762561135 5.079582331929174 4.21638560747962 0.19200509898882417 -0.6254959201951035 -1.0800746724199335
Ni 5.04118253789036 6.275770740718946 12.919917624115742 0.8930073770523588 -0.4638095267944787 -0.2133419127933874
Ni 4.404488879100712 2.469324990108111 0.6081459425007179 -1.2479018886109734 -0.02798722924154535 -1.3076155024215221
Ni 5.783027555301892 3.978961584675906 11.538572559097505 -0.6924731575466009 0.20466443962404754 0.6671269654723284
Ni 0.43938279447460427 7.349367690958201 7.7255092285031 0.08414140783560993 -2.7125755416324897 -0.5134693559134511
Ni 2.444789982647277 5.368346925795426 5.702061102028321 -0.6131214577901506 0.14023336573317138 0.5125064777795495
Ni 8.880409732988985 2.0332853457795705 10.879276419362013 -1.690093065804728 0.30699537388449066 1.6601176024885602
Ni 3.651750764129922 3.0810378880841154 11.515438888739562 0.44740023219851976 -0.320568484583235 1.7643763498993357
Ni 2.4437220319061734 4.78388070150984 2.6459510415472027 -0.5435296656339413 -1.001178829253979 -0.30219409584110535
Ni 0.42545207354652054 8.813918191195052 11.374206582166284 0.6609419197075391 -1.0556574199178337 -0.170594494523532
Ni 5.477788660438095 8.237531246429121 11.179912910858063 -1.9145753114856512 -1.2805911513138784 1.3596237771680133
Ni 3.3948853945740276 4.377140053600275 7.739699043567503 0.41928470490922626 0.5607917951484986 1.8113493762147646
Ni 6.093652636512127 7.256502409123098 5.9583209899466505 0.3435461764253309 -2.039022875139475 1.0719044779043152
Ni 7.408039976021618 8.47276829184562 10.266749092864314 1.6273170110187716 0.596586693359921 -0.7256434736509826
Ni 9.253514575817878 2.4980667948360753 8.23694062323665 -0.15199076337941567 0.3068408505844974 -0.011531911898999493
Ni 8.042588446800874 9.17907376589886 3.5156882677964028 -2.3354792971658553 1.7136271443709263 2.0772469516176804
Ni 1.8345072100115336 6.954885260250868 2.421347070900824 -0.5442899408387335 -0.24184207711560932 -0.9126722024711379
P 4.249728886922514 8.026801348888908 5.169291122834701 -0.7071585274729176 0.5665924609906758 0.6283516444763437
Ni 3.623343274416564 4.9008259509247845 0.5758668991876544 0.07056161226864621 -0.6786527067237409 -0.07153426059456067
P 1.5638420595749436 8.32147217467987 6.12293027391628 0.3311966537210425 0.2574795265425501 1.5458932592246408
Ni 0.5942941570621939 3.2243197314274954 4.071374612588471 1.2239970569689178 0.054017334756719874 -0.7470430223726812
P 5.168203670384412 7.393868734013582 1.68595061865992 -0.052540235990561124 -1.0811139123177251 -1.1514796065254815
P 5.471835995872464 4.240980977373647 9.34206069339483 0.06526976774208759 -0.5950293761751301 -0.7548236947593646
P 0.25461152916575575 5.317521757047073 2.3808299484361686 -0.1189528590878403 -0.3369574674642197 -0.2041162804300614
Ni 5.341239550027759 8.990891558788208 8.863521252834454 -0.200292535808597 -0.3578798194391837 -0.6545267602098147
