# total energy = -381163.12118157145 ev
CRYSTAL
PRIMVEC
9.36881428089447 0.00000000000000 0.00000000000000
0.00000000000000 9.36881428089447 0.00000000000000
0.00000000000000 0.00000000000000 13.71220671435797
PRIMCOORD
 96 1
Ni 7.739802246509727 0.30505889543074394 9.867550824524832 -0.7528385460085356 -1.2790240639370747 0.4972004435500985
Ni 1.7769455104639424 4.971879784858894 3.5420001219692896 1.6347968643355844 -1.0140525998928536 1.360135169586793
Ni 5.5969108541337835 7.850588474200701 5.347266620821142 0.6222113359065606 0.6244571945179439 -0.8995845160492443
Ni 7.657553426814247 1.8333926159047977 8.270420964637873 -0.6081510011587526 0.09545786128969366 -0.6780274144349161
Ni 2.472327005424374 8.28615401429212 3.1096405900906277 0.11543096197751088 -0.12049115010923765 0.3827724689158053
Ni 5.347587971147553 4.743636733780036 3.716241328108547 -0.42178356007168 0.05249369902334186 0.3072074898952967
Ni 4.165159302170806 4.585472412775468 10.024391332085616 0.06475426155824977 0.37479253603412227 -1.9684435222590162
Ni 4.709693520002074 8.346564128131561 7.8024927297208375 -1.056975881618941 1.760714327666716 -0.13702051522282852
Ni 8.62152945553134 7.849051988675008 8.278402257438715 1.1216776926727006 -0.009247743850513105 0.0015444616689844369
Ni 6.103295260619797 7.890330983956735 9.80258184570489 0.15443433982390176 -1.1493083099057755 -2.0057024066104745
Ni 0.7599522991776794 6.6362402553091 0.37682775958329623 0.021648688618027233 0.06663296663820137 0.21438835178003074
Ni 9.607718942671713 6.88955425313646 3.1067606166113713 -1.2085691524496216 -0.6189110678887341 -0.9652584612082861
Ni 6.311920014803525 4.7364040092322615 6.070558750108355 -0.13588228785332726 1.750303673856353 0.6441032508836455
Ni 1.1606180695632515 2.641565264790948 12.430074214714475 0.7356049557390687 0.9936516676389983 -0.2618763700586651
Ni 3.4255101602048903 1.4307397200314238 12.548328324189168 0.2606468685269382 -0.39333893157774197 -0.15744664428766433
Ni 8.343022716371124 6.25227814372693 9.958448933472262 0.2045852496466799 2.7975273611845366 0.8424538324745234
Ni 4.600687367005501 6.479846640184752 0.5527394252910357 0.47000228586875187 -0.4136277637337651 -1.1802875318961095
Ni 0.2013470593278852 -0.11733034439643997 2.503601980923571 -0.7742864314696665 0.2670342601105207 0.1701782329217198
Ni 5.968449918111875 3.70679943717688 8.172420357659787 -0.03017292403895449 0.04956341275042432 0.7281767815957976
Ni 8.739613989469355 4.175202670972897 9.876326592768226 0.5262598228099001 -2.574589320062282 -1.356894036941676
Ni 1.6340429877603135 3.814878077569529 5.869564895075095 -0.7883629641673906 1.1702152352617716 0.13514360991508984
Ni -0.016174320802173032 2.4323409064996317 3.778617956044592 0.5589945940387598 -1.3228192067451539 0.7226591942116779
Ni 9.368711124098823 1.867270247983492 10.234845815678906 0.28583802308058515 0.5346166794150277 0.9773434173972781
Ni 4.760481861677572 -0.22300682083306586 2.820847829841031 0.5951193647857751 0.5004143225017059 -0.4918736320205464
P 7.498714551188644 3.3390734805704794 3.3372222028883027 -0.23518291992787882 0.8282901393796315 0.19194313540263716
Ni 2.896359535258915 5.645844170601433 1.7091443391170669 -1.2322204733199746 -0.7718734511527996 0.1307958744693554
P 8.152807682053167 7.3069349249024516 1.2140559118891519 0.28921593841388255 0.02747737948466235 1.491582047376586
Ni 6.486863882006362 4.705168382752625 10.794701792221868 0.2331790021239726 0.5783897107359199 -0.34798647158487167
P 7.021129879495194 5.626947272398246 8.43531115734302 -0.5709350542300877 -0.6435383795191111 -0.6309374029256488
P 4.405750450340293 0.47074168981560777 9.667640004410902 0.1793922953208201 -0.34598923864918474 -0.6675959346889471
P 3.3735413479425795 6.588562359941712 10.671222695078404 0.2557622867411273 -1.0349803511844562 1.516163593370692
Ni 1.9991737828385625 0.5583785145466126 0.49997988511184366 -1.733077539786054 -1.649553968040101 0.0008530920289146598
Ni 8.965617893958939 4.817650365810368 4.852077947281491 0.879533253825324 -1.0260221135499041 0.8480398112027331
Ni 3.0246748142826414 0.7722413727389689 7.596411608587266 -0.7806769083770426 -0.49652758585278994 0.9614360021384024
Ni 0.6337234550720735 5.145999196413797 11.661422971569687 -0.17197800513461994 1.119810814667291 0.5098775247971348
Ni 3.841879000039329 8.563058686227377 13.370278751209975 1.4609491529820773 0.46220078754646204 -1.1897821016501058
Ni 4.575925591124974 5.183999106732155 12.202821447294555 -1.460712097270607 -0.1872264466532582 0.8979613786235245
Ni 0.5555697440551324 5.408279149412427 7.679027685798643 -1.3381972318631212 0.393832840495025 -2.007430187934859
Ni 2.6967382115031797 4.485469690206889 7.949227097424519 0.38223562257572885 -0.4985001361981286 0.25755640252707257
Ni 2.3921299560345446 1.445280119640421 9.850547363667635 0.3124376279459845 -0.38281643477986327 0.5747397726881586
Ni 6.30015278419212 8.066267945462764 0.3950922628292626 -0.15454489725983708 -1.2882170432902524 -1.4015831523189346
Ni 1.6412288682371823 6.914484667672247 4.908311443759017 -1.0117020973828061 -0.02334587381479205 0.885299723995456
Ni 2.801153645551036 8.225350410257073 9.499995380336525 0.5049109248204788 1.5146191317017077 -0.8623873381736566
Ni 1.3126177108366848 8.459102324074392 6.661623183569832 0.4560275688562146 -0.7723591325399666 1.5771532456801869
Ni 9.168649466076578 4.300960263725195 0.10453535486937342 -0.16777502279686587 0.45814744341269487 0.4233928135403289
Ni 2.0656174130106035 1.3391782990399752 3.03034294686218 -1.6136950493599629 -0.24871489297604263 -1.4113446025810727
Ni 0.5055327812769549 8.651584611424163 10.12538152766888 0.31956498301938513 -0.34530943897334077 1.025234584651602
Ni 3.5127712954872354 8.977937884607027 5.406297645213133 -0.4543499240434756 -1.1653003144586576 0.5504379627180005
Ni 6.439785590746561 2.724975817444879 5.117546107745934 0.8069890639090102 -1.2799077520936086 0.5554914659815079
Ni 1.7902398577868592 2.9635245641228964 1.3848784377337424 -0.06709447965565218 0.9596508852135215 0.2438207981085349
Ni 6.725749905994898 7.487593768755732 7.27599816359519 0.4845662997258558 -0.7246181177102617 -0.4888633844393129
Ni 3.7568757489746187 6.457314642079315 5.214957416312033 1.287550099130215 -1.1625212090516237 0.5200858327887042
Ni 3.906055377179554 1.406849243869734 4.112126192617527 2.313549329861983 -0.28119846742604476 0.6678957253175529
Ni 4.957657924932052 3.936457179197077 1.0026102077555077 -1.0128830050647846 0.4018284571059918 0.3434957828033697
Ni 5.531450949450754 2.4188779205214566 2.948795851348861 0.3011083189760943 -0.5416941550870993 -1.669216479466035
Ni 2.160560975921413 4.621045800220934 13.47466982634096 0.9217636232494447 0.1081107741670138 -0.6819138939735159
P 2.6631135374073738 7.728625251191729 1.0808576069142595 -0.9543991498962788 -0.7247659561420356 -0.07019857250227264
Ni 8.430761661176701 9.392329904649262 5.834255708189536 0.1233479028317424 -1.0508327448356807 2.05095227958721
P 0.9526022883012915 9.173221447396932 4.724554333056063 -0.08488059999447961 0.25075480622420687 -2.040929862354201
Ni 5.621672630014312 -0.08831887440338564 11.397311415398661 -0.5273869944358078 1.5973220073185779 1.3282884573898415
P 5.708793233083941 1.5838074061214975 0.4035101423709403 -0.30631917375307244 -1.2455812108975968 1.433597243331686
P 1.4590803829291146 2.2811469832457694 7.7428583536955875 1.06039287772029 1.610216603893059 0.044708398650968165
P 2.7949327529348156 6.839599735923075 7.459138806325032 -0.35601165588219336 0.07859656675798077 -0.31371263800366617
Ni 7.224985907260765 3.0219672269843167 1.2075108583022671 0.7511205348761645 -0.15557822362035786 -0.6641704539471658
Ni 9.239693184011518 2.135883519368514 6.251518332896847 0.5199968726193238 -1.192549379982598 -0.9031704336282896
Ni 7.143196159460157 5.307498815266819 2.087258436887422 -0.3381985389601724 0.9962189141455425 0.24156748329798397
Ni 7.471601202948671 0.3710228423167147 3.9601949436876156 -1.059909510325968 1.2612384578188796 -1.25035806346095
Ni 8.382540374586812 3.7538777284366804 7.254415226366294 -1.6828227573955599 2.623642111724875 0.7251811893025834
Ni 3.7821247031925616 1.604446903762361 1.2364623678845625 1.1738237785486365 0.39474198257285564 1.1738019241717657
Ni 8.097569153641668 3.255719140801634 12.013785009800577 0.7821205828021046 0.28037725707633 -0.28419148861609766
Ni 0.42081434216334856 0.5319444053347665 8.31223023480225 -0.22069835315845862 0.7306208722609158 -0.994956502493351
Ni 1.8692189613331511 3.6991357471767774 10.328363445071359 0.33427092177099205 0.27799975798308896 -0.7431089774255976
Ni 4.798359977411577 6.027183014212907 7.716352104614548 0.10190515957693418 -1.520540639392465 -0.13754810559152442
Ni 3.9843880325473533 3.710668757433656 5.996964840953333 0.5461488484243432 1.8193606765550152 -0.725798254061292
Ni 2.0870345222284947 1.625283146501027 5.3583874032540555 -0.8107259052436231 -0.5122493674634211 1.4797398033260194
Ni 6.553944591542714 5.30545641377535 13.535717019544716 0.4358009573966946 -0.9531197689632229 0.3466790656273578
Ni 6.984694561145072 0.37157091794630637 1.4950285229418219 1.6080396508463985 1.7869665764950258 1.4407688213794607
Ni 4.521230453935975 6.848799911448872 2.774212683491995 0.35176393634943287 0.021677227863117505 1.373239568179235
Ni 7.236809350757256 6.084239092575531 4.426314060586291 -0.8681201268923759 1.0256958405587366 -0.19765381263416926
Ni 9.317201383731383 1.7268785674803855 0.634403630981618 -1.2714902174538747 0.07497516795530959 0.16815940271947813
Ni 6.103351473504882 7.039670762759501 11.948432846480628 -0.5600443754595129 -0.5166914623951746 0.31035323461313
Ni 6.224434027980836 2.333040844994632 10.419864905652048 -0.2834695228484086 -0.9072073227018246 -1.1138018894690493
Ni 9.315458784293707 4.342014407466578 2.520495826654849 -0.6730456449496086 0.47400497927024166 -1.8398035177903993
Ni 4.6461354845977985 1.6957647355851024 6.38981983095616 0.29636000565783155 -1.1376437290836539 0.07404262883871118
Ni 7.604919428745081 0.9444795264063168 12.238898876942962 0.12284396661213037 1.087206141258392 1.1409529959625446
Ni 5.929672396216489 2.8846110422758717 12.64879761370396 -1.0898155538567813 1.6004335563643661 -1.176820142172799
Ni 8.791788915643648 7.023219125057569 5.956528102066483 -0.009291709714571095 -0.5020641994003031 -0.13881411678814157
Ni 1.8095770902565562 7.84747802789259 11.908105722719695 0.27093770892998503 -0.17828183586546067 0.4879035916292049
P 8.012481583249327 5.880411171252503 12.188259499412942 0.995832477340401 0.07072667709160078 -0.8987239678211619
Ni 8.219569851907364 8.18809063625902 11.750757425430297 0.5214660009656825 -1.289428289989534 0.4342225571659811
P 3.571035950879215 3.4172000220262952 3.815764367391057 -0.959036391557974 1.7082193430917936 -0.41699410910283663
Ni 6.659709134832641 7.816148713271144 3.0058528665929023 0.9782145071483218 -0.7712710416821104 -0.6888378747868588
P 6.481889041676221 0.8002831704642842 6.6315521006929 0.9989751367344408 -0.5359379693296125 -0.03472146264158536
P 3.928512424771543 3.053680662987187 11.444920918422525 -0.11049161569436454 1.1340290151492016 -0.8636037270792611
P 0.5465372703031774 0.6674230796813277 12.475393042671072 -0.9408532928910441 -1.8733978088060768 -0.6883017997777308
Ni 1.5604041082972224 6.263370819717299 9.354700062491055 0.15495550243469441 0.037508024247787014 2.2369530813634833
