# total energy = -340860.9134086635 ev
CRYSTAL
PRIMVEC
9.38360676586163 0.00000000000000 0.00000000000000

0.00000000000000 9.38360676586163 0.00000000000000

0.00000000000000 0.00000000000000 13.73385701134634

PRIMCOORD
 96 1
Ni 5.007299028222948 2.6436716947920735 8.371376491206654 -3.222217810490367 -1.8582820362105608 1.1162688629523032
Ni 4.6499618976440775 3.0582488268554404 12.640161266833907 0.44576346792604515 0.7698476789720226 -0.5830732322545185
Ni 8.50295530248795 2.7671599602897743 10.039490888566892 -2.0551606612416027 -1.7485494101694081 0.13934247848778586
Ni 1.7648499998690377 5.033582510871812 4.740652580651842 -0.9363975711125356 -0.41119164348844667 0.030415379067063746
Ni 6.515028818144987 8.970990842495116 10.701751137217755 0.635502396588512 0.8293291221671072 1.7788516606973752
Ni 3.2906620000960976 4.790134216033489 0.1787079764379984 -0.858629156682805 -1.2299766715911205 -0.6003111933993597
Ni 5.862699240571344 2.80376541041945 6.104754069799759 3.0929908231700276 0.4737373274311518 1.9020684372678922
Ni 0.34596513749705726 7.931990979483497 4.371678839279377 0.650062553790874 -0.6459649866827326 1.6719930137699077
Ni 4.587401391103563 4.554080203354146 5.122179711202333 -0.4848534919489714 1.4509933273209463 -0.8099682011419923
Ni 4.3593985130592525 5.961499236576305 9.1423955577601 -0.10176272046179893 -0.3865792442564052 0.23254419675345112
Ni 4.025520399482224 9.091954917763417 1.698314597487731 -0.09085790062383708 2.5401329381566256 -0.9992245337410856
Ni 4.92572733430414 8.79791021505552 12.78188094198476 -0.9898729173228564 0.7017795225491914 0.3498101550571717
Ni 8.678100323423708 5.073087495502916 13.568899996494144 0.26667224878541174 1.3641550893794634 2.8206400359426
Ni 1.0934060152422924 2.7505134418252664 4.898330955888707 -0.8349878631147815 -0.41728670064259105 0.2864509740742357
Ni 1.454346450832646 8.109294229983425 2.04748423670724 1.6309075565835074 -0.46488167681273485 1.7574608537264247
Ni 7.344933770815781 1.7148822936551125 2.6192527348145154 0.0857113234258911 -1.3599379659743225 -0.6835118345882552
Ni 4.483036916265765 7.156867523315407 2.7154309510793504 1.720562952258811 -0.6575483206449578 0.29489139153210503
Ni 3.4114008688011825 5.501036267257333 6.911934741881207 -0.13330115738971235 2.1884312225036955 -0.6130556375492215
Ni 3.9122977998245303 0.6438008173524538 10.771134464263087 1.1781226630343062 0.19164360188434737 -1.2778405851519348
Ni 1.7370276057048522 0.3344580204773133 11.333522170651666 -0.3513756997720787 -0.7190845894865422 0.9240087105298797
Ni 5.638027542941295 0.7868173069631683 4.8455106332073585 0.4750362487482336 -0.05206509612635549 0.6615451005091768
Ni 3.3719803366312857 2.219832942816379 0.916492184424595 -0.7154871019432709 -0.3491439822280825 -0.42585952991326653
Ni 9.306623690543882 1.451062188452388 12.682639916460163 0.23838162937083462 -1.50814509394159 -2.1234545605219943
Ni 3.117299864452479 6.805920628967839 4.5384217786857555 -0.5524886745994421 1.1356261844329927 0.5767133514747615
P 0.9678908906756326 3.4695416965385495 10.508158883672426 1.8924319426193925 0.5622897198502639 0.15254329344877599
P 1.9813204251552425 8.489639964437703 5.730396953205711 0.4070837919676602 0.3899088228502704 -0.4939449127272784
P 4.1881476889458 7.7301683644132435 7.92413314714856 0.37696023310940235 -0.5327248617089535 -1.7931976450064022
P 6.070949626300103 1.8550170776173207 10.469401772503343 0.0850387228388987 -2.808464576922331 -0.3893112984755876
P 6.653990651257104 4.235122024590289 0.07493560718932656 -0.5528260033342028 0.16753256776875664 -0.20033881566550013
P 2.0693198897325553 0.8277973945833476 2.087930397100457 -0.6659090339048274 0.9914628875177959 0.28283034660251294
P 8.838212806264686 1.9258351581424837 6.799303309451958 -0.11084051439335103 0.050388479754880956 0.31670360231119005
P 4.236097919697566 5.10533895207705 11.136564955707593 -0.760495034112529 -0.42829950681332696 1.6849313190981305
Ni 4.86360785728326 1.8666996680842385 2.8485392902691666 -1.0541795498207265 -1.5100055441890963 0.4804106256862694
Ni 8.291561408480943 6.5661131735682 7.3253239093236004 0.8989114012416196 0.2559432924036818 0.4135231198351007
Ni 0.12538281571076942 0.4424577045897172 3.1727682409729963 0.11739219946893975 1.6152284552853537 -0.4803242366200502
Ni 7.7123864295258455 9.153558296410257 4.637841092739565 -0.4970382069406214 -0.10284386934111965 -0.11301078257179246
Ni 1.984051054734257 2.8867540289651688 12.428590961019047 -0.7407551324814403 0.6413927939310179 0.3679973674891598
Ni 7.798846982587838 7.3193446750701705 2.9616511633666125 0.40416327588675555 0.798342958198238 2.2934391893756696
Ni 0.5475869433817757 5.833647593916262 9.85871195010797 -0.8386905087773492 0.6124172326342743 -0.7412775806438137
Ni 3.3861683501140005 3.224582641005307 10.258367270636805 -0.11130588406554379 -0.8704251208764686 0.6756488869004106
Ni 5.154659189421723 7.691085642088172 5.476718650233223 -1.172521000576813 0.3207096381467896 -1.4011648338345934
Ni 5.679174658762527 1.4619471723412432 0.43059213379018507 0.5779693353690498 -0.1665789456062357 0.20567565449738126
Ni 8.634429017373076 4.358591522874389 2.6421740711466755 -0.813180794542019 1.5503307261707042 0.17691478031460497
Ni 1.7212443790660124 9.189947923583516 0.03280790445741722 0.9676261901095142 0.7699939747418997 -0.5158489118892213
Ni 6.889265824571986 6.174413274885031 1.383631589982291 -1.5878320655502718 -2.570822396820682 -1.414021120971971
Ni 8.688516126972525 2.528281481963409 0.7545536517001938 0.48700319130212255 4.184161091282491 1.0692133042253975
Ni 6.38623881480487 7.274125073897418 8.97525381506469 -1.2656306733493041 -1.9017475635933636 0.5284586302334318
Ni 2.836917693246454 3.2917880329121862 6.805125837471816 -0.3436299943883888 -0.6999380984650784 -1.3193335621893987
Ni 6.803799933830872 7.538658333216999 12.574101613317398 2.862637977640941 1.732279469364791 2.7600363062176143
Ni 6.458379983888938 8.479336764170494 1.0554549558973911 0.71698476953472 0.9345751731918164 0.14971173753725184
Ni 8.604579764139933 4.212432463346107 7.683008233354098 -0.2484402991584173 -1.3592527669818397 -0.07555700860070858
Ni 3.3239081189911093 3.700228286127871 2.8149328408730065 -0.58790330665331 0.4197521314639481 1.0501151499433659
Ni 0.8695563215679879 2.7120312703354434 8.453504633008745 1.125093660332785 -0.9007937058659969 -0.4991686230200629
Ni 2.569109555153416 5.866612204607252 2.0407965401403545 -1.4979007905057624 -0.17338439856384333 1.2686874578977572
Ni 0.8885975364880437 5.014871598911143 11.965814932623692 0.15417440129429577 -0.5060082716497157 -0.3257420583643745
Ni 3.2445134218500726 7.4098870970904835 11.732668899691898 0.04084480193050385 -0.5807443270110256 -0.36493569784470054
P 2.1442292228228395 7.1936324947606956 9.820312354357993 0.5791535854851381 0.7064391328083898 0.01717034113169946
P 8.173205975903246 6.365529194595644 11.309199861824153 2.0309370128075477 0.6965475847262906 0.44644069649872786
P 0.9560300116795009 5.154724874669329 6.8544441980951305 0.9768417951705113 0.1947438380762259 -0.3077654192812958
P 0.45794065581093346 6.304085337264418 3.052198277190325 0.11876568277769868 -1.4211597888992815 -0.7607259191764125
P 3.278407009614335 1.2496149176541635 12.58090003644453 0.6397328897300919 -0.2592214489343213 2.563667788053772
P 4.21017101410713 2.456787781748593 5.070264906577255 -2.9884016890030276 -0.8439525285072368 -1.8083481274945952
P 3.357623418226158 7.407391057681487 0.679791641236681 -0.10432045388664615 -1.484430266823153 -1.8358437618117027
P 1.068717745749553 4.329014394238466 0.708993425600575 1.4351447903244638 -0.49290464438822207 0.17796738994883543
Ni 9.027001591488716 9.135316564789624 6.671551133024003 -0.48553046341133793 -1.3570405898218694 0.4048564452990382
Ni 6.796705927089515 1.3058414896041803 7.983834468696889 1.8063994884086567 -0.524080298660078 -0.21136139202824888
Ni 7.596686557672757 4.305189416571394 11.882587970465236 -1.090175251189045 -1.3588460184617244 -1.0603818219766963
Ni 6.623315640625494 8.406923470489206 7.0097607195002505 0.44976976087196086 1.5603868248551256 0.1026500081627587
Ni 1.5252114493918127 9.327558517316325 8.967206433872379 0.2029340871965021 -0.1899235338694471 0.005128579475816975
Ni 7.7826602608565665 5.033967238750644 9.65999718561012 -0.8973553696084093 1.2439066514086514 -1.4895233650753443
Ni 6.411762225302875 3.4624383061903914 3.795420285317949 0.9215967586542774 0.2545027033024133 1.5966784601973083
Ni 5.925672625811091 3.8357369519373163 10.294761589613463 -1.2367497286488958 1.3708379007162779 -0.05325988776540505
Ni 9.15625139156207 7.2708783459443636 0.9036450883537057 -2.5459873400548734 0.11019773860302956 0.3801311746382163
Ni 7.966588337757815 4.6422204220334695 5.432509663512911 -0.1644747547790393 0.6232145803600945 -0.6638212981378632
Ni 1.4675867200284862 6.600109981007272 13.378644553527158 1.4284357537354044 0.9033740649986636 0.6725962161170158
Ni 5.835608767737615 5.969597289245341 6.888284299300628 0.3329961688236265 -1.6343937153598949 0.9024003882314845
Ni 1.6869285289957165 7.269386352463046 7.498988197106203 -0.26553067898180077 -0.5327125204137793 0.49736807947621436
Ni 5.093928486207353 9.2546666596882 9.076816344911789 -0.18999398209606633 0.6152086793364825 -2.3177985920566404
Ni 4.198225682649792 0.60327208121939 6.575344765938765 -0.9954900063993178 0.030704113952076156 1.4126329823751929
Ni 2.332060880153195 4.6897577740860035 8.829537661777403 -1.0893938929383302 0.3473285262858986 -0.49449101503873544
Ni 3.097631824598134 0.1683878856785477 3.9241887063624246 0.028622034612066836 -0.20897463696362717 1.2357896787284717
Ni 6.027944556332325 6.274864785686922 11.140836373523289 -1.1957267492693149 -1.4093206301725083 -2.8642857976570086
Ni 0.7951865458687458 2.7934340593318376 2.551860609132301 2.060695732127219 -0.7641416297261808 -0.4975979360988333
Ni 1.5437534564300694 0.9826325369595906 6.770722719858274 1.2969122570714051 0.9669268500496444 -0.43709293673524086
Ni 5.094041089488962 6.109291043687914 13.247239338971676 -0.7065689735180348 0.01450924935976856 0.6567245391920818
Ni 8.160960369028285 8.468864658980872 9.057973124095229 1.9324915296444396 0.8447014908581194 -1.0109047982924915
Ni 5.48444605043363 3.6865469874123966 1.743567979644966 -0.1437804596544814 1.5404972850200502 -2.055430112852905
Ni 9.203253878026961 8.277758122877058 12.447639682824544 -0.39251515012486593 0.00576904127329329 -0.9111506236202888
P 9.21341632419216 0.27546516124243914 10.421608247985148 -0.6292818696000969 1.1022848899683855 0.736163656456016
P 7.318124806186075 6.979048174441439 5.46840946641117 0.3802859550485257 0.07831554518245222 -1.303280365381278
P 6.3919252805261175 3.972709460407676 7.983381240488414 2.167031673781997 3.139552215869335 -0.5616659702233359
P 2.9535840766000185 1.8051807418986057 8.380523631116011 -0.3069107845904843 -1.15274818882526 0.657952498061912
P 8.22544451496295 2.0886219689216716 4.56483194002643 0.7620693205781843 0.666914078130574 0.14361719460373976
P 5.591062590903605 5.378467595226105 3.2810184673869798 0.06811495050036656 0.02948721082583954 -0.6476300330899815
P 5.838949331758678 9.220960744059951 3.0435597287695666 0.1374959121973503 -1.1890673349712684 -0.8301464758620799
P 7.814480071517866 0.8187534743487971 0.428273444549723 -1.6857970095325354 -2.945146477858818 -0.6637979010990955
