# total energy = -340865.1500660265 ev
CRYSTAL
PRIMVEC
9.31558681025099 0.00000000000000 0.00000000000000

0.00000000000000 9.31558681025099 0.00000000000000

0.00000000000000 0.00000000000000 13.63430293074729

PRIMCOORD
 96 1
Ni 3.4291979529969843 3.7883417744270105 8.256701829204886 0.0910864716948754 0.6234454654239778 -0.987628344263054
Ni 7.5757799369255405 8.413921920732308 8.063463020961276 1.3707934206315877 0.7463105150820308 2.0543512779664295
Ni 4.633973490094587 4.5646562080345445 0.9430848648161754 -0.2047996796503312 -0.060882951528301595 0.3446237257602259
Ni 1.8026219570367725 6.936125163017083 11.911500007748044 -1.517089447619071 0.22869474110037388 -0.5650533986383302
Ni 5.276432255657403 1.9306181209267048 7.229343507574281 -1.9743686294941998 0.1871554842060067 1.608006226505302
Ni 6.5113996098705265 4.362293713989348 7.791745050949782 -1.0045613725729667 -1.8495497985438858 1.3702426903344402
Ni 4.531790817481147 1.9515688758458063 0.062006409467552245 0.29214493913521944 0.4476714835820355 0.047715560908408144
Ni 3.5935621681115375 1.3449285418810113 11.217349982082695 3.68446230679057 -0.12414134526731524 -0.968877546018112
Ni 4.854128755102649 6.950350064200483 2.4984180469058606 0.013322428140518991 -0.16226617716349473 0.05496170094786018
Ni 4.431303581681969 8.198368555648674 7.22853957242554 0.17042634437678392 0.11880116400132441 0.02490319099958292
Ni 6.771304484144844 6.623354333133205 7.02446114727492 -1.5305172909892029 -1.505986395727374 1.0736379156556541
Ni 5.032745818161278 8.814827518197164 1.0236795963671317 -1.084330876593126 0.18430310235887615 -1.6576367450482354
Ni 5.675772834524477 8.92063395411142 11.602450754827343 -0.4852180743772418 -0.8975438314701316 -0.36928034796664144
Ni 6.755011522671518 0.9796364331025602 13.37714644548062 0.08141115338864044 -0.5122190284461179 1.2634742891279336
Ni 8.318874987677797 0.6902113955276024 11.406703259033838 -0.07250690892047512 0.2462029251874663 2.1845316303389732
Ni 0.5789804933663972 1.8795873359347797 3.0615145330634714 1.1849389146251916 0.3438547088046852 -0.38186126995544556
Ni 1.7509670277231133 -0.016936668527531736 5.860895903468166 0.3133768519308022 1.1074733761478603 1.215670025160461
Ni 5.048340110617737 4.016303501250194 10.145516253955748 -0.05319869551016644 -0.7426657192405919 -2.1770157815779023
Ni 1.1333715635738524 4.927563526568758 0.2772234818644022 2.123455331852943 -1.471763212878446 0.26076333950014446
Ni 0.49598886130824454 2.173736307622444 5.743013672266393 -0.8587250588307211 0.8775267649182564 -1.126966966096098
Ni 7.146312750051184 5.924266114856642 9.599544611180878 -0.2360959186604515 -0.26178869544086525 0.5427722186426266
Ni 6.317765820742715 2.3586041294853044 5.483880128586697 0.872197382285543 -0.01701787471423521 -2.111012992324532
Ni 5.920977712683925 4.217566756042187 12.234523572564767 0.4741533319226479 0.31652619619306127 1.305815987318938
Ni 1.7338915569508973 4.420711759386274 3.5003615843789326 -0.09832926930021775 -1.954752140814853 -0.10510926833652866
P 6.279888644441662 3.2763012253459314 0.8562207432872042 0.8538844429089683 -0.4835915945174123 -1.7509569911696359
P 0.10413708274328791 8.39316679313793 12.35672823608422 -1.035365502438017 -0.19028451675329164 0.36785621392560514
P 0.6342116764877233 2.8899279434318967 0.6176765097552175 0.015372111580696105 -1.7923039295475391 0.744317653021718
P 1.7107609546991724 2.016908402303156 10.731068893874136 -1.9779254936075223 0.9173284702962266 -2.7732126956985725
P 0.8677683447979727 6.016946888840699 4.935112878185672 -0.1203235141831218 -1.0866345850256383 -0.27981187149116327
P 6.0635807168198115 7.800257634251283 9.373842845737586 -1.125621250701481 0.16308713040289333 1.133087734281855
P 8.946903909145597 0.16480484237452406 5.661112895433241 -1.0113714535162646 -1.459582354541538 0.3439974050301366
P 3.7710334139825057 4.606166463223302 11.747329556840837 -1.6612478594382616 -1.539471414858697 1.6179808212195101
Ni 0.31768387041048246 0.6977551577923816 7.770543706743297 1.316118397686211 -1.2400368840406 -0.12346283114305188
Ni 6.736808865885425 9.040693237969748 6.207343511523696 1.1403176763713911 0.2269070530723318 -1.6852128548942913
Ni 7.926399996349796 2.145687075491979 1.6944167574979434 0.664748695048139 -2.5157215991917963 -1.498082310388949
Ni 8.231867406110696 2.924768238406304 12.825897522731685 -0.2575481749969564 0.588440924324335 -0.1303256197011562
Ni 2.7913038250110302 5.630200983451002 10.127546486841945 -0.6458703700863974 -0.737287228537498 -1.399244733993745
Ni 3.073929415713844 6.2839129779788125 3.9783126747890636 -0.6034685080814187 -1.867175996266081 0.27333500551756795
Ni 1.352054965853049 4.2084654276491404 11.49009080353488 -0.9846764607235817 1.1699491260845787 -0.9970738059466699
Ni 0.5638091285548147 8.465586165632859 10.192132382319768 0.015258725931283398 0.09929523275791287 -1.1271119763143942
Ni 5.793950369830714 1.9788076519167062 11.582013288745964 0.9393918778541692 0.43136503311252805 -1.6749428404268507
Ni 8.806527330276792 4.158636353366226 2.1127853541497044 0.9330229982133479 0.9187160946723726 0.2742492898017212
Ni 2.377626557917855 1.046950863980919 0.6988860700410162 -0.27138688065226163 -0.4174095993737005 1.7238789040059215
Ni 4.811221161880158 0.7336751292875193 3.2745098379866864 0.16147761982392833 0.04018145731489209 -0.019650170130759707
Ni 6.406711044383259 4.654206944823039 5.5559510981318825 -2.0038645820707877 -0.37247468653422305 -1.6446842986526258
Ni 7.231783259781178 7.843416748319846 3.4689755090239136 0.05973161153267778 0.24103269384043652 -0.20645264187272186
Ni 7.947760637092126 2.2212737475300366 7.439653128796661 -2.437829000479376 0.9831733938154938 -1.179037718649408
Ni 7.506108662563618 7.105696791204014 11.750547160553179 -0.2707011674391467 0.3162901689228553 -0.08052977922495164
Ni 0.9738700848166891 6.364502120177634 2.354740024042689 -0.4891158667697511 0.11287862786930238 0.4739928950853837
Ni 6.383245081003437 2.8851117850089643 2.9823534703351253 -2.5733068538054327 1.5390777789647043 2.476693795865373
Ni 1.9834002362542416 7.995223552304586 0.8868047466108605 0.7404250028355313 -0.4471500638609267 -0.8640958362243313
Ni 8.16119936395138 5.624537106620938 3.933387325445862 -0.10873195269078048 -0.9757027964700615 0.3118802127806177
Ni 9.202411826407102 6.588970501916485 13.494728714784486 -0.7283734709876358 2.078583411040917 0.3568698901174306
Ni 7.997729445178414 0.9609866281456719 9.312297557821166 -0.8608302780991819 0.0920758321913382 0.40214778811862345
Ni 0.6161534112984486 8.033482667668192 4.209972689608193 0.9897906420216953 -0.12425884468178601 1.1048341387528005
Ni 3.2277949644016175 8.346300075486528 4.431761908557034 1.7272804734883025 2.498484923598536 0.43291643676004793
P 3.6169442912093346 2.8264608499397497 2.9381239953327225 0.4208492211828687 0.7087011893696891 -1.6251117758373366
P 3.5135412767131013 8.14837180080171 12.750254957172277 -0.10985115389688824 2.4499314401698644 -0.9926088281967809
P 6.706281687641805 0.11189603506526205 2.12682860138872 0.9153854876372429 1.3297195334094132 -0.09803719198109569
P 2.992781338301529 5.730380804882759 1.8498203095815124 -0.24940214885105438 -0.1801335443622188 0.19724217901804741
P 5.6971427908536985 5.3096795852733525 3.627010714404346 0.16798970991083326 -0.7583509911863326 -1.0158078920210636
P 4.035624028463274 5.450177266771749 6.629147696621062 -0.5459133353747695 -0.24684750075000064 0.7638994318083876
P 2.5165499052315785 9.234485392074717 2.6496631210010406 -0.712899800832069 0.5673941309563648 -0.2963582058856186
P 8.510925127034046 4.696359975507315 8.458939494385735 1.8245440205281673 0.1285271330398367 -0.11577009048448449
Ni 2.074357626663361 4.442100346889278 6.0637744810271546 -0.9331685226522767 -0.6724316655146935 -0.023238915923282557
Ni 3.9383506701416815 3.97128126980332 4.836142219932439 2.266857325122083 1.1986189832154455 -0.5744844621442429
Ni 7.775468857532862 1.165212239569179 4.136769876255684 0.3179459593587234 -0.818451556022655 -0.8357303977077607
Ni 0.5734544872223283 3.017840267039806 8.23678230975468 2.047181242580552 0.5783341749076362 0.46133561133268935
Ni 9.08468143927166 0.606692501251388 0.4425285712550026 0.9169841995829303 0.4513108801068357 -2.4161525439472062
Ni 4.909863911474808 6.026616468034131 8.588152273923706 -1.0705875588651046 0.15488299732554614 -0.506836681088282
Ni 2.1542946777797733 7.016257841458218 6.369060236843671 1.7959703226555326 -0.6196134932723973 -0.7619387085375909
Ni 1.4623794614097063 5.4109027524369635 8.049637758455523 -0.7760918601095215 -0.13991120650706226 1.0906979564617345
Ni 3.4365386354675276 7.819224169162483 10.365056690228968 -0.23968672133550337 2.6261201409517225 -1.0798363311568822
Ni 0.3568642973176635 7.585579934335454 7.811228600933464 0.27649309153057544 -0.28817952672956826 0.47987017980176716
Ni 2.1842908675705726 2.5083615043539034 12.657186654773533 0.7039364209911941 1.5133592911526774 2.34472626968542
Ni 0.26539175495344125 6.04995201319747 10.057548235380128 -0.24012406598323807 -0.4091995527590823 0.16327996313998974
Ni 8.401308616081145 4.525735686001638 6.241075251658008 3.3000139928342396 -0.008930469720410427 0.505608979328768
Ni 7.3053950273982275 5.309474642361739 0.21978077841502155 -0.7607773412396381 -0.17870503944580834 0.15520232833817788
Ni 5.234922000468644 6.577288755954478 5.252438098500829 -1.0386919957080885 2.358838026496454 -0.24674182841007183
Ni 3.0925978518445154 1.8652692788824634 4.708211265150747 -0.8803197542823612 -2.022372668177304 1.3624676743747117
Ni 1.9048232608239954 0.2188138204956784 11.945530778221576 -1.4638419011488402 -1.3600346394531868 1.2487518953160945
Ni 5.422640391920319 0.6083534703941517 9.062789810076511 -0.6045483714091588 -2.1857693594008163 1.3700817392765436
Ni 4.906510300193849 6.23026451307036 10.999610248755612 2.514948468471198 1.2833399177036091 1.596052396577535
Ni 8.498116195058161 3.162995741983978 10.260548847127396 -0.11831933926889947 0.29489987617253727 0.272949082933059
Ni 0.21154207336813247 8.79193912120462 2.273820178509217 -0.5898699434613777 0.09796237287910226 -0.6057912426773245
Ni 8.336313766338783 7.170663694185702 5.67116068745447 1.137820106760518 0.9411697956901984 0.20509561362419518
Ni 3.3586789602279308 6.1743244137865885 13.35036879096085 1.2471125599404587 -1.8390321868420134 0.6989867902954026
Ni 3.0911539358763243 1.4765018911372998 8.756863141881857 -0.5664186544169728 -0.5885052019033671 0.5335941516877842
P 4.969716557253033 0.37375438791073745 5.567785619718911 -2.754855276237307 1.0706898887709237 -1.1365060159347846
P 5.63744851005263 7.137444311330425 13.11756295895406 0.950798319918898 -0.2546842231856001 0.44010189876489364
P 6.311151754049712 2.4875039053037176 9.197686960735705 0.824880085256818 0.6008470112981718 0.24864778718353303
P 8.189304489603193 6.473941634979593 1.9494458535932218 -0.5517582241913207 0.2163267064533242 -1.003476367038904
P 8.54809431873134 3.3261675619764124 4.291655481708083 -0.3861845799211478 0.1520306154784156 -1.0430423022569844
P 8.161823508273113 4.99603309022167 11.547600579209881 0.26834423717119593 -0.2125960357662984 0.9104625964143288
P 2.4656402228692436 7.9573463760035335 8.335835876731247 -0.5208923878503998 0.27477893705294615 0.8264754547683959
P 2.2695750655627367 1.972668680155173 6.829708556161432 1.2748591339261075 0.750795547436578 0.9967637309054188
