# total energy = -340890.5891515081 ev
CRYSTAL
PRIMVEC
9.08572131848465 0.00000000000000 0.00000000000000
0.00000000000000 9.08572131848465 0.00000000000000
0.00000000000000 0.00000000000000 13.29787154839163
PRIMCOORD
 96 1
Ni 6.3168931681717595 1.8259028969924267 11.33639530499171 0.8825424729652929 -0.027218726506636995 0.9877131906673764
Ni 4.622687801542509 0.24849266063654918 5.899694108567115 0.6664988449700263 0.08224830457795512 0.25882909859190906
Ni 2.7620138491033854 1.5574470894973766 5.030717551202862 -0.361099611928062 0.10459839013838114 -1.914661443441554
Ni 3.444878491189315 4.085403671978771 4.541808527600673 0.5381241783476539 0.8209581244945925 1.412594930048406
Ni 5.122911273889869 4.378336412678263 2.639095851240378 2.064114785111097 1.1828624917121373 -0.25635338335790686
Ni 7.288356661893144 6.29620498075286 2.660837982331035 0.2578783046428656 -0.7799402873213341 -0.7421890367144895
Ni 4.961857777979718 4.50158422222476 11.55143524834339 0.9547290224318719 0.7305938756777224 -0.6003093936271467
Ni 5.58666466090589 7.566406991089712 12.347658800903911 -1.2654278133098786 0.5073455024039004 0.852536413521506
Ni 1.6657398017704839 6.923501351317494 0.8045397132739679 0.46297546092895747 -1.0123911530300305 -1.1352855132641222
Ni 2.619131795809746 1.611234559642254 0.3990757713110664 1.2853885727025218 -1.8294635693169716 -0.8938136750037381
Ni 0.2725543763772044 0.0720552214072577 5.085864245255454 0.8815916790162495 1.5631533318566693 0.0840089960228037
Ni 8.433520975585772 2.1860881468156323 1.3354920036579825 0.40370741929625953 1.4537168968996965 0.6999887491973558
Ni 6.861027931601924 0.7836843485829962 4.849188473752424 0.24616050198530512 -0.15216508417375083 -0.05228106879190351
Ni 0.61273286787963 8.09468717083697 2.9357310233729845 0.6829839871092431 -1.0998870791601703 0.10728133628718299
Ni 7.884879694386714 4.159225157608353 3.999122028147045 -0.20385634190045537 -0.8246908520641474 -0.5870479006315503
Ni 7.472124461073936 3.5765851072737993 12.577804664502699 0.7361292036736548 0.4794523755380582 1.259505791398489
Ni 8.03048746407283 8.642610680052677 7.214666919222531 0.292166022181142 1.413794606783462 0.334426730622566
Ni 6.851342552687322 0.38590420113048723 0.2138042852537573 -1.9643654955349008 0.6040135819516114 0.09557356093195152
Ni 1.9184773114022504 6.506085142973581 9.245119385744125 -0.446060944561806 0.849665262621298 -0.7955006036534364
Ni 0.1031501940126342 4.948619882033588 1.3546674184790575 0.004512286048056745 -1.2914116389681503 0.789221455512944
Ni 6.397120087323663 2.1285482737704453 6.867964879820777 -0.2755448686846932 -0.454826606569578 1.2037185092255398
Ni 3.5269134688815615 3.906296847829113 0.006099244714232479 -1.297745551605978 1.5198618681578857 0.4541699468221856
Ni 6.10247014529691 5.639761616231339 4.670226112571568 -0.3727487661312161 0.8916863442480902 0.911732721376004
Ni 5.639834302001805 2.995889401299211 9.438856038344337 -0.5703203034642241 -0.4801640568931021 -1.3070485741744589
P 0.4063661540888113 5.572881621681264 12.629268007136924 0.1797512213221356 0.7204611581190947 -1.8836361987046333
P 3.8111784314529773 6.153749956360709 12.794174757453906 -0.9566817752828685 -0.13531176006183793 -0.17856825675762797
P 2.3757525791254834 8.687694029184245 1.7170741271621321 0.4417214366461877 1.1655340277360184 -1.0255356608317885
P 6.607481792773723 7.865109164819947 5.936382251209853 -2.033927720004755 -0.2062801208505996 -1.9754790889495595
P 4.824236357323559 1.0087967225770094 12.594241642921464 -1.2944221436596999 -1.0658870680656418 0.9989599672257894
P 4.001487949975715 6.194817416674027 8.30581025973266 -0.6028159620990844 -0.34148286613839895 -0.8752068585358282
P 4.742573894204951 1.2224565448619653 3.6660903650256937 -1.456549481252485 -1.1384050327297104 2.104777810048098
P 0.3304022553747417 5.870884194870764 3.3579653897266657 0.8313566941200973 -0.5391171383885424 0.331079668527204
Ni 1.5789075632274778 1.4933473256676282 2.6159835933764355 -1.3166544726953389 -0.8489466392877186 0.6142013211178906
Ni 2.0040375489621 6.561335414249088 4.772779374694249 -1.023659269744682 -0.6557650034922899 -1.0692040482540166
Ni 5.804122314697697 5.59859421298363 9.215518105721825 1.024737076189893 -0.04967448440699187 0.3451055504926508
Ni 8.744834130491869 2.572413016842692 10.722259601742085 -0.43189802279786266 -0.14874783096208577 -1.6550065065142403
Ni 2.407916032556711 5.320534798065753 7.074760439657346 0.4621992448845653 -0.0289490789341824 -0.546666154380394
Ni 0.23613153679666643 9.049923566301807 9.21490663667778 2.417968256999707 -0.8656336130250963 0.8798574699339622
Ni 1.2034946444916343 0.8709163588635653 11.451169770846127 -0.0900451749145546 0.8794175541830661 0.4017718928364435
Ni 3.959121231515315 7.025043372658567 1.844175191115461 0.748122628590105 0.27309332182040713 -1.1193981526099044
Ni 5.740449579769436 7.925665497339477 7.998430313580909 -0.05625059496261281 0.11213557905569074 0.17050039214782894
Ni 5.601519815244889 3.0257541672394503 4.65518560951788 -0.24232904405435687 0.2567567894439126 1.194703193100807
Ni 0.7703346982647753 7.254930293200069 6.838643440014772 0.6678409608202175 0.36762018665539914 0.13062052523375567
Ni 4.952699370900996 4.757601677248807 6.832752258318499 -0.030244657817154363 0.4288067854670486 0.42332442219623867
Ni 8.025354031533665 6.964659668843895 9.250025675250583 -0.18159727339193885 0.696640144440097 0.7418949025128384
Ni 4.540462023702789 0.25189162897796785 10.42059820858175 0.6467409456168088 -0.3097127728156537 -0.883614365873233
Ni 8.400476207187644 7.112130011398204 4.810292500831778 -0.7941358620954259 -0.6854393906282712 0.1781872192691254
Ni 7.391216112823915 6.108893750261847 7.034188151155327 -0.37595236067017834 -0.4000250853486659 -0.2325868770659285
Ni 2.5741029610060275 5.164360334498135 2.5039230324767945 -1.3888628765387887 0.16072685770083286 -0.5225389223148872
Ni 2.307682355084027 5.246776912485328 11.147512244714369 -0.29384932342083586 -0.9556672179754252 2.266212749559549
Ni 1.1591835816712683 3.547120113071123 3.828643004951708 -0.7503715725252819 0.11097703997121533 -0.49877344446417327
Ni 3.552953146151024 2.9106653354277667 2.5253053690036444 -0.08834490439399624 -2.4044213715532075 -0.1466590667538571
Ni 1.2728732124014799 3.5295392423396477 8.146634782416925 -0.7715129824895874 -0.9678192799569267 0.6043573384442753
Ni 3.915391654858678 2.6779345841167808 6.74151526208525 -0.403494274844189 -0.34525544580695383 1.0146154143748591
Ni 4.017715048232261 6.912126028239557 5.8717682355540575 1.3822908797482258 0.21048156052645683 0.3807418116390217
Ni 0.9880267636663354 7.530245820282852 11.422645148798855 -1.0533837933923085 -1.2191978358080617 0.3565220198597086
P 0.24353639966289534 5.571836763730816 8.077804992074098 0.1908846122311358 -0.368701592645036 0.11702401749624362
P 8.567099250259757 1.5721841294593684 8.127499344769605 0.0872724972654239 1.5739239401096117 -0.7924816143214546
P 1.855340634031177 3.1588963272906385 10.424520514470524 -0.2908092510429314 -0.19922090001097303 -0.3805667195137381
P 4.180567516961447 6.0217344257517444 3.7290026250804535 -0.40337086189244725 0.9983539582106742 1.087256020659721
P 7.025252344248657 4.177369343060941 10.59651503598008 0.08029349484442946 0.09916719182048082 -0.9979767773769135
P 6.1404757175293465 7.711524131825183 10.246435833968047 0.6620649775683888 -0.4991079449854566 -0.04078566655779428
P 2.3941057361681617 8.520116985374765 5.854201901976675 -0.0712234142223612 0.13477491372176142 0.285703811495566
P 7.060232371285444 4.109326376183409 1.3707845795077733 -0.11165324010263353 -0.3776518598597883 1.627371775516107
Ni 5.415253442704326 2.8054345112355423 0.4628711634769883 0.4546065201389719 -0.6960449340582593 0.12741050293689024
Ni 1.6190755371312793 1.1013620512655249 7.087792089729778 -1.0150519876916453 0.023775248042726797 0.36125876321374556
Ni 7.110140238431696 0.5938609161502507 9.456767629331432 -1.6481871695995614 0.3600544584929992 -0.7891800607520473
Ni 2.941093416089118 1.5744828169503573 9.004946520109545 -1.0598604022555878 0.34687189836445426 0.8895767541042551
Ni 6.2830034276919635 2.089379729210552 2.6437768148583913 2.0084730273770766 0.5073822691791069 -1.3492208366671345
Ni 3.969751525445975 6.8058685175394995 10.549161165093578 0.9247769561544719 0.7328153088090734 -0.09932531466489991
Ni 8.210412003140231 7.071280608396283 0.48444157443491964 0.5342950344095508 1.0107497607718656 0.26474006475970535
Ni 7.747794331287742 3.8536632642903843 8.309799799959116 0.1837163766174707 -0.3479625603254717 -0.015547717926611934
Ni 3.0483866990183164 8.551072037871993 12.180039054204283 0.7209992900107518 -0.11662266829276689 1.6581327108480475
Ni 0.05095363366883237 4.990468714379417 10.218948801294179 0.04553500831732158 -0.2131169412667749 0.5769709760115225
Ni 8.732068692053767 2.5209060627461866 6.098324330663953 0.05091684145452522 -0.7113741082161619 -0.42056768538670797
Ni 3.808007514716396 2.45721515637531 11.279893021319925 -0.7553579699962797 -0.04072344586129115 0.044159982346665884
Ni 1.113591432146438 3.248972168340692 12.597818691400526 -0.7135284355550033 0.8041060859342603 -0.26518152317249816
Ni 3.392181307601428 8.300078986731412 8.058376994200653 -1.0953375121162747 0.5542313683221616 -0.09173181858835815
Ni 5.750025930028339 7.999278011378969 3.6429917357437134 -0.5891757456078305 -0.24834953921682387 0.11782902989604221
Ni 3.096068564444046 8.56114810280285 3.711515337278452 1.0929371302048985 0.002002118031693326 0.5420247989536408
Ni 3.5314290723717647 4.093735278418442 9.229002224715408 -0.28100846290242576 0.6758720586548101 -0.2944579035391123
Ni 7.3132515382777665 6.0034176115943 11.918297594756034 0.39640188677378185 -0.856609812259931 -1.5795076048449765
Ni 0.5410865039312438 9.133875631190097 0.6089495735268721 -0.2971652751679463 0.39340732292183217 -0.8480470102915846
Ni 4.649999479795127 0.29556396559036363 1.704454968837095 -0.09063292909722455 0.36764229814258614 -1.1731959151566504
Ni 5.647030193277945 5.538528509414747 0.59463047674506 0.2706222345720952 0.835832984723896 -0.7283930113716618
Ni 7.744005585502198 8.516500868294077 11.550837407881307 1.1278419125018833 0.10886025073852865 -0.5673990160523712
Ni 0.2620476482563368 4.807872973247389 5.901010629584681 -0.6100952693693169 1.3025195759558537 0.060100564836322305
Ni 7.7586426825298 9.129241913322886 2.3142422458685883 -0.45522898421431923 -0.24467568990966249 1.2528255511648358
P 8.463367570083395 1.7852352084166712 3.7123003435994857 0.7697744025319259 0.21358668181434184 0.07716369096619613
P 1.8041698516230773 3.325991827870781 1.3579655353139546 -0.5542043717389681 0.5839996007235296 0.9396708425471687
P 4.835102880008233 1.1185976645872873 8.214480589142068 1.1459987859165683 -0.13642376217909408 -0.8074369500797062
P 8.366050409150661 1.517978716134311 12.627991463293112 1.5091689072204137 -0.44047856537802205 -2.133290315665494
P 6.260761581929352 7.681613937278403 1.2565189140466184 -0.6757651007633007 -0.4805052422826047 1.339534462617306
P 1.8973166664753214 3.425771219278052 5.8871276474256655 0.2376318956890036 -1.138598122577123 1.0756292350540702
P 6.8728484550239655 4.147295605530613 6.130624978486934 1.3845254255056996 -0.489695393422305 -0.3541725457909255
P 2.3435073542024822 8.656729890965705 10.076714559929819 0.07084134829259413 -0.3467700826792673 -0.4072887088896147
