# total energy = -340857.57655176346 ev
CRYSTAL
PRIMVEC
9.41307786548241 0.00000000000000 0.00000000000000

0.00000000000000 9.41307786548241 0.00000000000000

0.00000000000000 0.00000000000000 13.77699094462135

PRIMCOORD
 96 1
Ni 0.26853722301243843 3.015121756358123 13.194761010224829 -0.5544715093574257 -0.4171049236490881 -1.0066753335921759
Ni 1.9506344472984727 7.345156341912986 12.534499498460587 1.2998708254790967 1.0365366399279825 0.7848222980039838
Ni 6.448391251985898 1.400957772798196 2.256023869654495 0.7934532342061045 2.5323754056983936 4.053147187265059
Ni 9.215148952231514 7.902222282437455 12.842552821816412 -1.0451279811414194 0.8031583773090103 -0.514964709512055
Ni 3.216646337647213 0.7362627014194388 9.511593126813281 -0.7219979064785952 -1.8748196288542682 -0.131886793540689
Ni 0.550254637473379 5.588017120593238 8.83831144592208 -0.08750595343246866 -1.631002430290159 -0.2428473784516721
Ni 0.5584656651840836 9.182494985559 6.278008897084627 0.7912199740002115 1.2530029572829646 -0.374830074140277
Ni 3.0276034974384785 0.6480678108626636 13.019959215325649 0.8512485479480179 0.877907545296443 -0.32393791527610016
Ni 1.3695463323870751 5.20846300004867 4.593483098742234 0.4827529006662009 -0.03239384294967325 -0.6668644558395612
Ni 3.8200716860304693 6.991930599801113 9.086311215926134 -0.9395625991040786 1.101414314437974 -0.8909291543670915
Ni 0.3669933096112164 7.759689459331312 3.366201316745773 -1.0048786467030695 -0.5887337729744054 -3.056115290299917
Ni 5.437003114445317 1.2446347908061406 9.503436694953457 1.0182926061161302 -1.5174044077563287 0.5043553094273249
Ni 6.485177559785316 6.197805709527265 5.904350187127257 -0.6449391165213797 -0.6526362280553212 -0.021847434892394633
Ni 0.7292405454270217 0.7213834494392594 0.2077061494395197 -0.7059426527879455 0.933884831993011 -0.7055718997120881
Ni 8.324022295869382 6.410324765614134 0.6839090456572052 -0.9987290821619057 1.3387001396414686 1.324390407887016
Ni 8.518345872689036 9.013567892475997 10.479826068157031 0.052994807029476475 0.5969975556450944 0.010328378509201567
Ni 4.542384206242452 4.976882461542704 3.7813020427516904 0.38981009248887705 1.4795225451088907 -1.5256278241073853
Ni 4.35051744271237 0.7476064014012914 4.216296367248726 1.1273022379483295 0.3289708497143173 -1.2255620874631925
Ni 0.9483487559303685 8.445855761030048 8.479861445665714 1.8357774273501417 0.04782997499908537 2.4052731780305416
Ni 4.415175873693488 3.036875379010236 4.789281704843405 1.604603885691972 -0.7489556660143618 2.0289063555307636
Ni 3.434521434966905 8.228263056042492 0.5680651218611172 2.198029407715092 -1.7086782850060829 -0.7609606608950379
Ni 8.248463520867864 3.846964849127435 11.008256484895263 0.9788331145689273 0.6427053420948544 0.569650016870077
Ni 4.57891636094295 2.9675198222379433 12.718848978109241 -0.43799925059959405 -0.7906764427919156 0.12915113977708081
Ni 1.1315178356307003 5.9756570749146 1.7859940698172752 -0.2681598890745317 -0.3097811641597439 -0.05117112355717639
P 2.430852021171341 0.6272714982164874 7.418826853520297 -0.6790951935777982 1.2067583244931281 1.5334799731619526
P 2.51930671267368 8.29395692557477 10.539687594722954 -1.1622913524290048 -0.7082882702019867 -0.12982091215059577
P 6.153714853403294 3.162097552156519 0.5326502994880992 -1.07599715991645 -1.7858633161285182 0.31736926091964696
P 2.63025865996942 2.425900742281245 2.999512990853262 -2.8561706247490424 -1.0891126142524856 2.679249416676534
P 5.9684748966006405 3.048274616150742 8.503682180189054 1.094644085593676 2.3499702916931784 -2.5352123609265567
P 7.735761415721763 5.770301370986216 11.626278692926565 0.7657629673796877 1.499263989401876 -0.030005802333470905
P 0.40738011964535353 3.365570640537339 9.101686537103097 -0.7356921161362362 -0.5593612333495593 0.33157383455480316
P 4.695534981036861 0.5318596009581219 11.405253979795797 0.20041877697381613 -0.19898641540266376 1.3394244194020029
Ni 8.609455052113443 5.2732532141181165 6.143821708700839 -0.9123045347190739 0.4953327942137405 -0.30117413921702324
Ni 7.668617932217858 2.122733747579123 9.745664365688674 1.8573173583044464 -1.3433121844921834 -2.7138446381529002
Ni 2.6835460930432458 0.6356999680229357 1.9178675236931049 -0.07132934367260618 0.23823353382874454 -1.271654510945881
Ni 6.273665703016394 8.232094178681786 11.761871253816608 -0.33715544240763873 -0.4538483018167087 -1.2681182156578485
Ni 1.9614594866969712 9.387408274833707 3.9757498721974835 -1.028871410073241 0.35821843372552503 -0.3409295647380903
Ni 5.989447233800514 6.6224014070473265 9.771165334588217 -0.6541804326139894 -1.1724837195809743 1.2566891478853002
Ni 2.400372475456264 3.8248347033658088 8.386536427741824 -0.051430033645517875 1.442264946309013 -0.3942755844593984
Ni 5.560606238220694 6.466313751998715 2.0657083813356065 0.45683335258696167 0.6719295290672945 0.1472892441386883
Ni 2.8641265763656762 5.046388627558803 12.640223422380737 0.8313289262059554 -0.41993776511219294 0.4634986804222792
Ni 4.064642271814632 2.253886159700235 7.932666999764901 -1.2445936501733468 0.9530930294903457 -1.7758774085603997
Ni 2.0004390416093036 6.440239526664941 6.851959075147432 1.0258755606697105 -0.8533522245545819 0.8771372427893217
Ni 0.355242023363316 1.8657096599478178 2.6867616003984867 0.6146096122999027 0.08423448177004848 -0.22227675338917205
Ni 6.579910774138785 1.930810505582614 11.614361736510476 0.4540871573003921 -3.6340460591215478 4.838342552337744
Ni 4.42949316493272 3.0441987534902637 2.4492734143042636 1.5795400007448088 0.13596250627195938 -2.5418954293736866
Ni 3.138828423988616 9.0545806721797 5.8368292392060654 0.6303954143792497 -2.5620533923788003 -0.632299316270182
Ni 6.516400738641681 4.182164547371374 2.516684229215922 1.3306142773095406 0.4310984097147027 -0.35362258682472647
Ni 2.488412991538139 3.0522092826451526 0.8798497892322177 -0.08220793825832294 0.6403029033009489 1.737240155804176
Ni 5.753329591824918 5.217518380832456 12.350700683859593 1.5560203203563137 1.2035022794496757 -3.5444192026913344
Ni 0.798546212887304 3.9073968082042696 6.518735181920662 0.7431619421507202 -2.0253967997156086 0.8617142233660321
Ni 2.4341183591463658 2.6938910654771155 10.442159637589125 1.2093304560956786 0.4739373592570999 0.12583081715459618
Ni 8.016280545386678 7.095286193362428 9.095321413936778 1.2646264004545058 1.274914155533759 -0.2717077543267902
Ni 7.334077149415566 9.157343241843533 13.475894813866024 1.1067933193617003 1.1038661184125764 -0.4404955346588865
Ni 8.597716944174374 0.289903026861753 4.265011868465291 -0.16016301477756287 0.7992315314507783 1.4737635311379265
Ni 7.864861776896029 4.2693484733791065 0.06932731753907932 -1.094981671438753 0.3632446832955228 -0.9523103856880503
P 8.89429478446002 1.8872561948896986 6.4270903983729735 0.15464517028312721 0.6026575821443492 -1.9396188847178402
P 8.516679757929442 0.0070767518432966504 2.2067567620824944 0.8316472287773227 0.39936868271158965 -1.9068704866422257
P 1.5980676206282467 7.309669038841387 4.954591352151762 1.457572780310677 1.4669575639596864 0.0267232749274572
P 3.1397697317623985 5.156135700904102 1.5158820388992984 -0.548493694507436 0.3061345685460921 0.5842019465423229
P 3.1291800193073454 4.482149921798111 5.95918230625786 -0.8518069915546492 -1.7078071952550393 1.2149891970433528
P 6.636031543611697 1.1033727331946044 4.711262351321218 -1.4667269360061193 -0.7757432185208512 0.6430413852780344
P 5.926727896833388 7.306299157011246 13.781537448013193 -0.1436688737772816 -0.4609458320934384 -0.6745224866054512
P 4.852601596170205 7.1882120967902345 6.902603315992477 0.5880948538388259 1.4225242733469758 1.9088885455135192
Ni 2.965147726648011 6.958448282287669 2.851905577538658 0.3063353717029886 -0.2359380529263485 0.7965336729036411
Ni 5.777850659331951 3.423188089370564 10.496276362811654 -2.353158716723489 4.746555969252051 -0.23577324521371007
Ni 4.602270206810493 4.877009706744384 7.965911166411578 0.6919141997193373 0.26056922121146736 -0.3494165191631789
Ni 0.4497464999277552 5.5622441137470755 12.87724283720362 -0.6928503383803616 -0.8775756158783208 0.07360194175686678
Ni 0.5846641431439974 6.853153594712362 10.80204230827719 -0.9219726539364573 0.9680681627429394 -0.9364947588120324
Ni 8.733933592118436 7.486013637181796 5.3520030224727595 -1.6299202529695735 -0.9198358100991127 0.3378372989660117
Ni 4.873856325702213 4.922408980673913 0.37843772952486376 -0.955471042804219 -0.2854513291651278 3.0538686603575855
Ni 8.713187168784271 3.94097325649509 3.840707976355102 -0.7103238125747767 0.8309774564038076 0.3145826993134453
Ni 4.097286825409408 7.268204431406269 11.637382359426104 0.7464077027815275 -0.5388098915607688 0.18592084046795723
Ni 1.3902645164880272 4.581909719663578 10.852259195392937 -0.5227803489017319 0.6380285054444753 0.004015548917296311
Ni 4.650869927170882 9.325197244064423 7.574521041919467 0.6674015592899538 -1.0165203447070557 0.7436393960077708
Ni 3.832638144810465 6.383083318640869 5.330331293596965 -0.7247333031318873 1.3147770531669678 -1.0881065415854745
Ni 5.758224392248586 7.953325881476106 4.194474029129128 -0.20467472403669268 0.29403007197307424 -0.390039949111496
Ni 4.940792721495884 0.9111689814815083 0.8166513266082361 -1.4751030758849564 0.28404467862558824 -1.787847179327766
Ni 1.5665997017506983 0.8251249791878259 11.237656954597147 -2.341519075602032 -1.443349180512127 0.5821710321552231
Ni 7.949607715769664 1.8410850485856685 0.6988184194861459 1.0394880092468226 0.3502783529428419 -0.7053348440006175
Ni 1.279896180012032 8.151885343277781 0.9843829588185354 -1.2618619503354913 -0.7118299648066579 0.6723486188825839
Ni 9.21209911504446 1.0244817286738952 8.239700886801723 -0.15871419814617826 0.34994513797313925 1.5715724091583
Ni 0.18355219196426137 3.985214721862867 1.5334892008079 -0.38614318516025115 -0.38152188433815587 0.5815863632963467
Ni 2.288771025796614 2.431256783514067 5.1981133210759305 -1.2714436804866556 -0.788733460132932 -0.00914464261374554
Ni 7.3765960215573205 4.998466648795536 8.173061944264566 -0.69700986907469 -0.7351205599034824 0.2594173669952113
Ni 6.407820886935872 1.5838256340109176 6.916724815214762 0.8017424707980902 0.8908810747379755 -0.05718082008636604
Ni 6.505114458434029 8.73492196528091 1.7011549414740343 -0.7981832926919221 -2.570824453703211 0.9832867794649066
Ni 6.763399898482203 8.729349423260116 6.48996881635387 0.23381277905322959 -1.145312044262189 -0.6262518245245214
P 6.359955386639034 4.163686675772024 4.7632432492050345 0.9657865657976141 0.4858855327579115 0.07451622604102005
P 3.67821660452145 5.067953988656159 10.027926797350634 -0.15263019673562747 -0.8473864938894503 0.7151004080278136
P 9.461837480506688 6.967080074573254 7.390928373720933 -2.9977857013210887 0.2901664752526099 -1.542374447438105
P 7.961119909843025 6.137882056648273 2.8674324492672003 0.16221706909311417 -0.4921273999025653 0.17731818640061076
P 8.689042624386751 1.2851580904674762 11.930460417408824 0.42029771955477296 -0.1975399127641243 0.8224213393036803
P 7.049209177835777 -0.018523995680265335 8.64207230778278 0.8018365731737932 -0.798027226730032 0.022228472380897202
P 4.261601510400878 8.662102395901098 2.502369761900012 1.5132302217739808 0.1687996074066383 1.233278996491476
P 2.230127551489965 2.7830234985765783 12.699271659030112 1.2947754132340605 -0.760387047779755 -3.907008511791046
