# total energy = -381166.08015602455 ev
CRYSTAL
PRIMVEC
9.28189029620461 0.00000000000000 0.00000000000000
0.00000000000000 9.28189029620461 0.00000000000000
0.00000000000000 0.00000000000000 13.58498467635048
PRIMCOORD
 96 1
Ni 1.9379659121617192 8.053163095338201 1.8313104932868849 -0.6004346063511014 -0.7971540800964594 -0.3353173607576354
Ni 4.84546241194229 5.307236463046489 10.906651059015054 1.1396916127516177 -0.7409657058303497 -2.036894001721931
Ni 5.587837293979775 8.485662063885963 6.136038740047826 0.38865900960356936 -1.8094243912779095 1.1529047690077823
Ni 7.581847260826262 5.444385676697054 1.1790154301149505 -1.253771717128189 0.038698445011462385 0.7692810078352751
Ni 3.5622132081772917 8.505933712682177 4.974753577117181 -1.0516223306165116 0.35098206387808584 -0.08740593751949462
Ni 7.146870027521818 5.896868555436322 9.81682252990201 -1.1590381355990298 -2.4484738817877316 0.5718123146287184
Ni 1.5615295620796716 1.3190030458726045 11.83216877838213 -0.20989869143979337 -0.00777218774625113 1.8598892327966807
Ni 4.099374773715024 1.4410413418307553 7.752272051827752 -0.27752024724350915 -0.0794342321679277 -0.7100304497040739
Ni 4.296494281721051 6.228900341488571 4.924815149986513 0.8956864665464187 -0.621076450971169 0.33313063751896177
Ni 5.424550276753141 1.3058970165226724 5.653758208318411 0.29781884959154514 1.7867197505915422 -0.9645172121668871
Ni 4.028331184023536 2.7238264510720316 11.85004662762498 -0.26161668863937526 -0.9316975945337052 0.6522168811297154
Ni 8.990977463205837 5.884115237924419 7.408639759060528 -0.42280763046082026 1.632372571164808 1.031872915903726
Ni 8.893229874619337 7.241359672551783 0.8016286144483187 1.0304935190576963 1.7806822861482108 -2.294924001451312
Ni 3.1344294399905523 4.017638446196962 1.221943245370263 0.42910940430913186 -0.9460993717813319 -2.4136084373691142
Ni 3.2211315789124484 2.1361249919008856 9.764846727812198 0.07109305929208402 0.3135329178926923 0.1704739097852677
Ni 6.546257458700704 7.979808314918573 10.540698604223904 -0.8708156714466679 1.2035603863811208 1.7114807874518845
Ni 8.893870325062075 1.651025550034379 7.299090246735759 1.388159679824177 -0.25263248286289397 -1.0635990433624134
Ni 5.09349308920071 8.64765889833665 1.1030802841434237 2.1132585938255994 -2.6922746252916085 -0.2893792034646242
Ni 0.40419477173495627 4.07562241599089 6.468028757592939 -0.8404535142150429 -1.920959103524808 -0.26182417666449104
Ni 8.317548463612614 3.0955754464644785 2.110264716850003 -0.5365023264735147 0.436929414574183 -0.24528401291762272
Ni 7.178214971654057 8.408028331957611 2.123251938001862 1.5220725026559592 -0.0028444114273305852 -0.571759349903596
Ni 4.551653450863853 2.129080037030773 2.948458410633395 2.0687098606809466 -1.3942071715698376 -1.6654081614635383
Ni 0.8095878355301649 2.3931405391385785 9.14076582711547 -0.8552820945874431 0.6428714353590734 2.2749812397807982
Ni 7.154323385572807 7.977534251752331 4.526530157916642 -0.37839696555592894 -1.466522276194481 -1.2441185103091412
P 2.6711238769580685 4.336740558818293 10.768260856608054 -0.9125966120381961 -0.44038754832611254 -1.5201871127077884
Ni 1.630215551590648 5.660542342066191 0.3672806933180438 0.4208980721429332 1.8688919505159232 -0.16451897775341345
P 8.97119775460477 6.727718417476323 9.384344909702339 1.8808090136684834 0.7231497606948514 0.8671431076910872
Ni 7.0252772623064415 1.43592702017933 3.5166502642162807 0.6805707496820601 0.06874872742962354 0.7679005825479808
P 1.9765878584259315 2.8060640006757134 2.951175219975268 0.7407800721821047 -0.8708683790614744 -0.46821434073039364
P 4.9095538656684115 2.525602398099544 0.150172634175275 0.5788949325071127 -0.11498307580681488 1.8403025689140047
P 3.8639767493923385 0.33259798137119057 11.3165365577999 -1.105272768952116 -0.046507656643236035 -1.1422300629027555
Ni 5.743086194055531 4.010519236203054 1.6330511691305942 -0.24940523417484786 -1.3218871818491877 0.3982271129079787
Ni 5.629206679824427 0.48607682493346693 9.513986002148117 -2.802666482183315 -0.3602375210380828 -0.47914975669597476
Ni 0.27025430762141034 6.4776921337658955 5.184749851778422 0.3390706571524806 -0.27003499461005753 -0.0944376475552954
Ni 6.74339553048768 1.5866556395940248 1.1851461187733288 -2.5134487439972197 0.7375019156514653 0.08063982244025468
Ni 3.660619810987477 4.119943443006418 3.2828255203290166 0.9717011315098363 3.909044568384468 0.3693788212177187
Ni 4.414977613627484 6.004287873897203 7.478765369784092 1.6630656293732906 2.9531354096015656 0.29009551280535845
Ni 1.2360322269214403 8.258237183480837 6.443738978410335 1.4004631797818785 0.4249483309529068 -0.4386055167250253
Ni 1.3262707661141035 3.6808821778932144 12.533819365962938 1.1058242705802117 0.30377866671940584 -1.2428697255037044
Ni 2.378085312789011 7.815853001577778 12.454415577521107 -0.7971669356122658 1.4979115891390395 0.659222108802955
Ni 1.0142692997057317 4.576055540921198 2.38390691449459 -1.2048135420619315 0.26913073762823325 -0.45956977768151813
Ni 8.851145783208153 0.15111196149129 4.951088469163508 -0.13096839549147768 1.22357719582268 1.1923645176653015
Ni 7.703365770917842 1.0171188400813895 11.805637422649944 -0.7457996368838833 -0.5740795133963403 -2.975063577133225
Ni 0.19157729120372943 8.602725266549806 8.390765872053219 -0.48200033877089243 0.7979557500621483 1.3254545874854722
Ni 5.409318694484559 5.809655912538331 0.14243617846481574 -0.29654409664417963 0.7261337830238398 0.329196078351246
Ni 1.0692088094240382 2.4119085216779292 0.8870285041366481 0.2789639216685712 -1.3617469941586031 0.6748469598244055
Ni 8.146362557592216 3.825224856661484 8.534441182896375 0.3010579253541331 -0.2452115078084745 0.9193598989039586
Ni 3.6332753616497286 4.393490037179118 8.792392344693893 0.14028787312019064 -0.7044588691535675 0.8872262515942075
Ni 1.2722780092241919 4.682509542772737 8.828229723815769 -0.19852593082647746 -0.5956922065701096 0.34058066603910375
Ni 6.193230036395235 2.5175921266200882 7.9342695038727955 -1.3577419867642682 1.7322447594721135 0.11585313711659402
Ni 0.2632511212584331 2.4515421940038573 4.138353144573455 -0.42877824622195826 -0.46439136743987763 -0.49939822253236577
Ni 6.988873687865625 4.78276324178734 6.647309400296109 -0.70665561969457 0.06860500276290767 -0.34900719953990217
Ni 9.106527717722342 6.643689463011071 2.889267795077787 0.010060212449479449 0.3159998913759461 1.3193351048512956
Ni 5.865115208123207 6.387416467011334 2.638666034157943 -0.9640942656968556 -0.02630135689869019 0.6589876241946457
Ni 2.4275670709083372 5.364635673740526 6.541075379248815 -0.26271840634398624 0.9207693776569755 0.2683336956482346
Ni 3.556885403044954 2.7623555784314995 4.892578216179678 0.1050791864295416 -2.0620008240918875 1.7645121041462515
P 3.7329814291263377 6.924058246682497 1.5712662651873763 0.9792141520574298 -0.90675403721449 -0.1117044050555431
Ni 1.8770303011969138 6.826245684862677 8.34878852238249 0.526971247054628 0.9586754086741296 0.015813827103805023
P 1.3017480114805904 8.34062324333211 4.230880597957119 1.1070645707452158 -0.6721622139033908 -0.36506091056865514
Ni 3.4756502976125128 4.894647149566435 12.570417860103719 -0.5793739290260603 1.2348959632696088 2.2516963011109286
P 6.635753446655412 5.73346087363352 4.6766990793357275 -2.55937301733316 2.284556799284375 0.08346546481450788
P 8.137554043531956 2.9835151827663684 10.800171996059234 -0.05752509079966221 -0.15866740406864285 -0.9807429299971303
P 6.807078581032925 7.639701284153547 -0.04632684354705856 -0.5149947914190421 0.3750825564707153 0.7279644084746754
Ni 0.20787350630973228 0.13627857232406146 2.7137091904548742 -0.9455728098539005 0.8869274894068659 -1.2381512369821128
Ni 7.985758006712699 7.0354502142664455 11.929559014185362 0.5699418370788829 -1.744774516508008 0.979950258892506
Ni 3.6243740286847252 6.993867344940883 9.918220686012113 0.46614537401650685 1.0249821023211638 -0.570499766464882
Ni 7.9744433822243375 7.9224462317864335 6.723616750075661 0.5567196819616541 1.083747236175514 -1.489764791662189
Ni 5.34229416336851 9.075730405128096 3.287634467783832 -1.1654298980579865 0.38779974692706765 1.804625941448002
Ni 2.3948948164382515 6.3145814724582765 3.2719842722548518 0.32694276354069496 0.11238471895201936 1.041686045339406
Ni 5.843451275755825 3.642204540286156 4.364951008537308 0.14699382438545652 0.11990391014719995 -0.19571340107834678
Ni 6.668667030277833 7.48440597462542 8.401308243254105 -1.828129938107213 0.8075233391459253 -1.4408930056621507
Ni 6.7877258393936835 4.645595464355824 11.897050120987627 0.8873020991374655 -0.3330442484527426 0.6814030157753684
Ni 1.7361219219041935 4.309349700028172 4.68881658735013 -0.20205425569471006 0.3880589141257252 -0.6802691592812413
Ni 9.202994405423366 8.588728175714326 10.905767423041885 0.3902914030006698 0.38319927204057874 -0.5104475383679918
Ni 3.34323484810392 0.3805472993731841 0.9473366593053801 -2.1463137245083552 3.074265221736067 -1.3213629339146018
Ni 1.4650535924881736 6.459369681969319 10.85918532750678 1.1687409647090903 0.9404725125128578 -0.47165241987766515
Ni 8.310466381180602 0.49293707018313754 0.19896289145425425 2.149706295129672 -1.692412200856208 1.0884726666756415
Ni 4.537888407290234 7.272463287531686 12.099154004178436 0.9623343455829556 0.9647797217996547 0.04294359344106152
Ni 1.9143991922470747 1.3763094376618974 5.438517665539103 -0.8377901084502668 -1.3741201710119755 1.258851959864574
Ni 5.569171412235644 0.23901981798581762 12.582439764646233 0.4267409040769554 0.9348847340124351 -0.24003844824796727
Ni 8.35343225218686 2.8439805232638675 12.926411774604825 -0.1826596532181822 0.11184093063340739 0.840747648416694
Ni 2.4732710996045593 3.0392900626273756 7.195667710313177 -1.0507427562250358 -0.2782807795586175 -0.11825480457955118
Ni 8.204996259719355 4.60351137294464 4.3163166870183 2.4163582322001096 -1.0792038397792059 -1.023505003555005
Ni 1.9662385505469129 0.11949041702291245 10.00531452071203 1.0698792199441702 -1.6641570626652566 -1.4415468371960658
Ni 4.475699741111377 4.047860281581792 6.391083741937791 1.3296020339949426 -0.3229087026806374 0.5312909574759044
Ni 3.9448962705486483 8.443420180336712 7.799085266435673 -0.7558199972343628 -0.7996627054509261 0.24463712336224322
Ni 6.000537990145523 2.605538038865561 10.43586336407111 0.13906274246383793 0.7322872042197454 -0.1402775887075455
Ni 9.174796022161967 4.999309746556403 10.922979760737716 -1.7035646179286017 -2.020766500032449 0.1894442802401834
P 6.959153074566415 0.8364403446727667 7.307444876351816 0.1291925345379775 -4.428091418385697 -2.0167314107311265
Ni 2.7270472670666677 0.822693864880097 3.154379007187301 -0.9622800953062524 -1.1934389816764028 0.7112003016424591
P 5.830883596053412 4.475291337930502 8.630690674360295 -0.10829640781525865 1.6796122208780622 0.47174240848831017
Ni 7.800148042894999 0.8905184949550438 9.33876711471657 1.3724088447478238 0.4673702475625435 0.8754374864893956
P 1.1988025642283962 0.055758172458153545 0.27329969588607944 -0.40285792681177074 0.5651238468649493 -0.7464555253003273
P 1.7123138728372134 1.0270690266700067 7.92041256958348 1.5548802932145995 -1.5622200214091224 -1.2829979609831583
P 9.120821829053005 4.556127322072541 0.25485565132428745 1.0033354705856656 -0.09270575246585325 0.5239949380351234
Ni 7.821756283919533 2.644930382039153 5.579054769212845 -1.761971854222901 -0.3525522365786831 0.4410195254831566
