# total energy = -340863.09370365256 ev
CRYSTAL
PRIMVEC
9.26124889732220 0.00000000000000 0.00000000000000
0.00000000000000 9.26124889732220 0.00000000000000
0.00000000000000 0.00000000000000 13.55477390261412
PRIMCOORD
 96 1
Ni 2.2905568965721517 7.922600165250552 0.3275527757731809 0.9873110701329512 0.31046867714507176 0.21408624715857968
Ni 3.9523490856029655 8.382171117385175 10.32805952416766 0.4136763575835134 -1.4457199947371486 0.3544931623551379
Ni 0.4655250090261319 3.3134803555563606 6.51122566249533 0.531506158810504 -1.345026853190445 -1.0631784108852271
Ni 2.9999778204273047 7.4825148807154545 7.510171748183355 0.9178187796690839 -0.8474515427994309 0.347107411414028
Ni 3.6760489871408746 8.931576183452972 1.9011111946736725 1.4676808152789562 -1.4293736921686413 0.6680088538566495
Ni 2.721121617280105 2.336400078424647 7.492591119474144 -0.911136739663218 -0.25708306243507983 -1.0855578070216918
Ni 2.9286569429634524 6.242739279695654 9.622995091775824 -2.143890716889159 1.3935088599512324 -1.3508892255084928
Ni 0.5850599480504065 3.383967720622894 11.535994025485024 0.05652647433181878 -0.24839196241898512 0.731294758399489
Ni 5.113672647537415 6.8846179156214635 0.31852861488488365 0.6998511951782269 0.8364130255970821 0.6697366351810337
Ni 7.029343451542462 3.7681335845468062 6.644292212227621 2.103344420035681 0.7002147491652327 -1.0003285654385417
Ni 7.539453038701139 9.297089892174677 12.705757363504762 0.27557880724642214 0.7826108921749618 0.030743708940759958
Ni 6.206740805380371 4.617871689866032 8.821040399945074 -0.7699759770197707 0.5445570784571913 0.6366089993891295
Ni 2.0096817411736705 0.2349949285505496 8.395962043061246 1.0916178971728425 0.5772867074797284 -0.4315192993022052
Ni 0.5453551219417159 5.629163020283223 10.42882654237899 1.1778845788815713 0.9480521246323286 -0.2598683384897008
Ni 7.9236466863716295 6.473927834965118 8.545525655386234 -0.3961095523443436 -0.7242581632676817 0.6409693332403541
Ni 3.333512436838572 6.713692306678098 12.383315870976915 -0.4687126205230508 -2.093880960629936 -1.8483560353461006
Ni 5.017420488144893 1.2473420413376772 12.601358083490899 -1.4393793972311015 -0.11654964896298638 -1.1150558164808089
Ni 8.346885759232043 4.268491076656861 4.642943742777359 -0.9057955299559626 -0.1681249499371169 -0.2872917248079762
Ni 6.183115359540833 0.6697596256160999 10.309286972730286 0.403336409110086 -3.0776071416251063 0.3780886902868908
Ni 8.451408213855732 6.702625114291486 4.509510447590249 2.4750644877920664 -0.10806012343473649 -0.2818615549313404
Ni 2.7969805066849114 1.383139733358514 3.1354495164883014 -0.3794125513046369 0.30882291401153267 0.37282358523320946
Ni 4.707298308849405 4.786278239119724 5.149282149400616 -0.6242404505214475 1.1284474072963662 3.0653072412118307
Ni 8.294365216952142 4.08328462197278 13.350950600397242 0.08667754399390233 -0.07269074279650707 -1.0897839292878972
Ni 4.272843863620634 5.37964645352162 3.0963985345490626 0.8915696161645678 3.222775996986682 -2.0632645212956597
P 1.7292974319647207 1.3854735680710046 11.461279826439203 -1.1647981780112584 0.2951119921833434 1.1992640729986122
P 1.2259763402197565 4.820387418667753 4.63211363836154 -0.758373616894152 -0.529196793951037 -0.031145572364868944
P 4.490131284352604 4.9430063535621045 0.8909284357449141 -1.2429368312962141 -0.7364251376475188 -0.454752558798533
P 8.760622790763028 7.330222904476579 2.411001290234389 0.7260988160208462 0.4987551896317282 -0.6635271639362121
P 3.3265572389453952 5.356113620170673 6.758708459007478 0.5429223710672456 -0.2392010399483364 0.603908680942631
P 1.017320403424459 1.8527406180075314 1.8193899347410625 0.94633128528648 -0.22413103298909143 -0.018748998472729
P 8.744165551540425 8.035846716299504 6.30700956840308 -1.8023026926314636 0.0546912208952929 -0.34019937144028506
P 8.4940655261007 3.956507386340697 8.192288658152139 -0.07545030781951521 2.286354514614746 1.413253389568011
Ni 4.981672067548804 3.4616140310575045 7.020952760076127 -3.075745920046651 -0.2277298060839433 0.8400755620503338
Ni 8.76132664567632 1.2481199862418408 11.04143407516076 2.1484963339819707 -1.0485017827096588 -1.893716465758771
Ni 2.333510568780611 3.2830941980496857 10.04220366913276 -0.6237763664008354 0.6157028453640816 0.07839139272571016
Ni 6.1394393099213636 7.732800131132362 11.675851849005687 -0.2800286154876597 -1.078722015046781 -0.43484245013816725
Ni 6.348261949196125 7.291649802978468 3.411275439008807 -2.1155751577739177 2.0889596120689187 0.41441889217649275
Ni 6.390104271541494 8.377994294149726 5.840372283388972 1.02225544741862 0.9912736543251249 0.5148299837064035
Ni 4.683144971824898 2.765871971767228 1.3785480061741768 -1.196212687766798 0.7743221698036084 0.8472733653503538
Ni 4.5871336049027125 9.132721247423547 4.382543356356555 -1.5120752822339314 -2.33105391440465 0.08368555124511394
Ni 5.453856840629509 1.3184869550732066 2.839738766542444 0.9359460853974139 0.3027995906355882 1.8903313513366218
Ni 2.07227852221226 6.528458068247439 5.383115717344236 0.398679627064365 0.8950357203362972 0.021146552170628094
Ni 1.6929099851973561 4.682181801943552 8.086222353343638 0.13681816940403532 0.29295432241039226 0.18424730942027623
Ni 0.7875895687254162 2.8614202762464593 3.8085255953208415 -0.9741395657479998 -1.6974029692025798 -0.29370148498906196
Ni 1.4783824166253954 8.753148962933743 6.025788042297269 0.9862610316018822 0.4287967581647196 0.47882991146271087
Ni 2.607226778811016 3.0659364348017437 5.178397663563824 0.7019006215080879 0.39111518445354576 1.5015653838415428
Ni 5.9628643391739535 4.248329337890623 12.333055073418633 0.08399022696972631 -0.02817620532389986 0.29099385624991175
Ni 0.346898598514934 8.293550227052542 11.701212852881419 0.08287899618341855 -0.4981057289731874 -0.6748441316109282
Ni 6.170649718576497 4.0923699071035475 3.68144922135061 1.1741803905571069 -2.2023858849115747 -0.837470263217003
Ni 9.167932515585807 5.5817824711201185 6.5544108659252664 -1.2106054661533603 -1.0169114094978873 -0.9596282595057021
Ni 5.394621892926769 1.6501693217126558 5.4318724880878015 0.38069707444401535 1.2013206984173246 0.5428717203349682
Ni 0.3339069186154026 6.376490235718632 0.3477811955312053 -0.3525072422733606 -0.7859042182142529 -0.29630318427796715
Ni 6.5178168933083445 4.261396960030798 1.1753061954619035 -2.0478906099427503 -1.5178335248739474 -1.8310327135763047
Ni 0.3674659799812011 8.767679862393656 0.4768042840116176 -1.447887948922745 0.5530136938649766 0.8292676728015523
Ni 0.7771419538874766 7.130994919019835 7.719606556007702 0.9210951364275104 1.0912813397690302 2.7757701720131034
Ni 1.2848964054612872 3.558264424150968 0.33232139281072637 1.252477423796798 2.0859161972569042 1.079503373297496
P 6.876671764100364 1.566734730741114 7.236961202340656 -2.314236585736995 -0.48635064531978817 2.9370313049508514
P 2.048143707685471 4.990701785186418 11.978584477836506 -1.4115736878727432 -0.6197862714048358 0.7299798962428072
P 6.653170045383946 6.06212640444568 5.1939593400217525 -2.4234362220928136 -1.1967173953173582 1.0282060085751004
P 2.59985482471918 7.273664457694116 3.359117011559298 2.360000422235671 -1.038476794373489 -1.3809204817632605
P 4.049814468596029 3.0048677598249043 8.901799416121225 0.9227403853404172 1.986934639084668 0.8228309160372733
P 3.905338986394225 9.179666517890274 6.6760786705617905 0.7319375341898104 0.5357857600224643 -1.0841059050665136
P 7.500583577239539 2.2174300755807774 3.6099477495340055 -0.8486627894987125 -0.7629476094180796 0.6597455854065928
P 7.0875504006218435 2.013321411975293 11.813879649751792 -1.7727807719129471 2.3205779545739906 1.2836687617979377
Ni 8.362120513605245 0.7798230854321831 2.002704316283232 -0.7687603594451147 0.01169723383227018 0.33298177064592327
Ni 6.216428071686979 8.15812298498607 8.500604893920103 -0.5735467808213219 0.8374201267053578 0.20077770297513162
Ni 2.537721106123546 1.0368523772682798 0.34086026425880733 -0.3411465658449028 1.0801340649029592 -0.9653031984032923
Ni 1.0883912271691156 8.612998483949134 3.579381923799465 -0.9537789998137767 1.1248193236254758 -0.4912365126571798
Ni 8.450769187684456 3.3101185222205105 2.134591909035761 -0.2520678686086756 -0.41475364980809215 -1.5163284010833304
Ni 7.512576894512061 2.2524098125215604 9.253586101783986 -0.1411057410357957 0.520591054559897 -0.9833487430510934
Ni 8.951589742237465 0.07844740846092182 8.41079115473442 -1.776133490435264 -0.20270191658103798 -0.05217745333450369
Ni 7.983566966489942 8.92771424267873 4.122521755014087 -0.024666649508744615 1.383386683915566 0.1644315602459297
Ni 7.250854001754177 5.648250454181808 2.4258980090242357 2.6392952448811 1.3765701752143646 0.6161782423386034
Ni 2.6831782807044133 3.9098121695931654 2.765634883796435 -3.2645353403116553 -0.26807555689084156 -2.2200305945765315
Ni -0.005637322180528081 1.8195205183499754 13.45051087788223 -0.9374023582279662 -1.2295552677829855 -0.9338917739715464
Ni 0.40918049709231424 5.131556119084318 2.597393184772434 1.0927856922286985 1.4387129672916963 -0.18646180057309178
Ni 5.162108979070456 6.750394635906672 6.857685277814344 0.22734594038196332 -2.0816309396179893 0.3424796828340295
Ni 0.5935423258804471 2.3669529384107855 8.689586233639151 0.14379871448692652 -0.5838697600138848 0.9007173441021068
Ni 2.4499707731836677 5.933006072852248 1.4501170851074527 0.6957425723264921 -0.2567470192518998 0.18705623962398107
Ni 3.424180063169063 1.2241333516967976 10.26573502384553 0.45319241340026467 0.7794728607666124 0.12727937667566466
Ni 7.945484711181364 4.345572450911067 10.559900997481693 -1.286834304010113 -0.2477430159810766 0.14047993452633872
Ni 6.570059598122471 1.9157171102493433 0.43999915492070807 2.550906631733361 0.40965515223926224 0.9240879005072473
Ni 5.372802390614753 2.709795109925438 10.50288967563002 -0.4110587174550082 2.223528837537777 0.4537626840814379
Ni 4.895134958209468 1.1616569668933765 8.2632474207856 0.6470605337397566 -1.427006734598362 -0.9251885897705937
Ni 7.449470744786222 7.594640820652457 0.6568901942015085 -0.5945550076418729 -0.6500111317276484 0.7944230543185415
Ni 3.8327585790855365 4.81430277816733 10.950807198325249 3.29189702015406 -1.527965985322259 0.5246248583096385
Ni 3.520098817602658 3.2972546475552345 13.172475221383944 -0.33428969082406945 1.0452537080860063 -2.0703265703487634
Ni 7.982483400373428 1.6792496431301984 5.650415734165064 2.3017736773832937 -0.14861850447307307 -3.094144220048181
P 5.04411140735679 6.574968060017789 9.586939197717616 1.036319895931486 -0.5807602678506256 -0.5060306402472188
P 6.190024251189713 -0.04502633970312375 1.4850884869242624 -0.2885780477195675 -1.2656319589008846 -1.248413023919437
P 7.8215228952024445 8.19536246664847 10.105626553569582 0.019399230462218205 0.21610841979493103 0.5913534699854397
P 4.175711885586498 3.1461666336680403 3.803280023967053 2.86335531542294 -2.212055546790855 0.32157712835340746
P 7.593862875748294 5.986174902552284 12.657135806994539 -0.47158274298199426 0.02072154881806754 -0.6496239235915586
P 4.0747457505246985 8.609997839318789 12.630189277314132 0.32570734847169713 0.9588250468781163 0.22015173662636925
P 1.4129979996802202 8.054082115303054 9.747386629701806 0.569218071538981 -1.456976798597891 0.797161279185311
P 1.0476046871936833 1.4123219285135065 5.455755396645622 0.21674322516545252 0.8835241201522719 0.11451719191398986
