# total energy = -340892.3867047774 ev
CRYSTAL
PRIMVEC
9.07269507441986 0.00000000000000 0.00000000000000
0.00000000000000 9.07269507441986 0.00000000000000
0.00000000000000 0.00000000000000 13.27880632348492
PRIMCOORD
 96 1
Ni 6.0719102563875 2.287798009986449 11.77203326281433 1.3455341318441667 0.32984451056852226 -0.9553196048280191
Ni 4.510463141978534 0.4996804961854263 5.899428342912273 0.352320065963219 -2.2283414284350718 -0.6720951081108812
Ni 2.4059698634307427 1.4413699949974308 4.798748028212119 0.4436171110070037 -0.44434704719449275 0.7912834802482952
Ni 3.593667303932783 4.4664968616106995 4.816435247274664 -0.9728658412418986 0.252456619406662 0.7291062353886024
Ni 5.254750755733321 4.910959120987476 2.799106072189089 -0.827671017738394 -0.8467707146823222 0.36762455753077333
Ni 7.399907853639064 6.143548256755725 2.5519214019469048 0.5537546857960592 -0.9184361015381086 0.3745045724800582
Ni 5.047285437291043 4.760397746100101 11.560276559598222 0.4470397635353075 -0.988990514717903 -0.41992516670670266
Ni 5.849629226876159 7.834952655520626 12.417676184750018 -1.2491164777443649 0.5026486111488633 0.5231675570378216
Ni 1.788509454228569 6.4965668224000614 0.259394703283668 0.856163468751132 0.38586987689420643 0.4365463202031514
Ni 2.6990995688381667 1.5924485135044852 0.34156791718122337 -0.15798271929679245 0.4892858166887122 0.13603115472636573
Ni 0.32649272703281346 9.013432237819258 4.676131461447106 0.3833579091056301 0.677897059504639 -0.20502490828725983
Ni 8.538676249563363 2.3132015562163164 1.3041191710649982 0.7448897234751042 0.42913460112011254 0.12263699280764687
Ni 6.768539002876038 0.7040928527325792 4.662786434250852 0.4471876019670815 -0.6111401656940636 0.529474730202772
Ni 0.6923917978852006 7.173780001412916 2.308413895021494 1.200023833982772 -0.7206799589981202 0.22776554441788519
Ni 7.501703492460176 4.022705981669998 3.817458029905784 0.7704914832036086 -0.3998965301906016 -0.013295945777957747
Ni 7.629374457655424 3.9065029030585183 12.828428845549269 -0.006827821555110822 -0.0665450349100854 -0.25561341986808883
Ni 8.017776534119932 8.78055430045203 6.809769865676621 -0.06321237099242662 0.28720533574175694 0.39000343944660576
Ni 6.766352483361254 0.9025172305255489 0.4686981497495784 -0.6088027758101385 -1.377904320644756 -0.19260827979046183
Ni 1.8397792541374907 6.578937821050406 9.278207049286607 0.7922586996773711 0.33878937846663587 -0.3987850422939777
Ni 0.22602079442417963 4.701624827358287 1.4295827495467723 0.014382236863601036 0.29428898206141574 0.33190267864913164
Ni 6.584662691647209 1.848561622976959 6.809438712306125 -1.0357609381042225 0.39224081341755673 0.9033118443021605
Ni 3.175279970221949 4.423964067065835 0.44328734536364534 0.3431970206160283 -0.19449469817989729 -1.2117701758854227
Ni 5.880467317460202 5.813002756829739 5.003574099655015 0.4349560928978961 -0.483656900537709 -0.46455848914536124
Ni 5.2688406511958155 2.763860466334164 9.564883346682137 0.060670064186547114 -0.19239076446301706 -0.3398587002714147
P 0.16569372301480198 5.601563597941504 12.539389111084855 -0.9622973216974332 -0.7096848934391972 -0.3767272911629899
P 3.9467221603574476 6.2147054042846 12.6391660752502 0.22008463083385968 0.5104261982117532 0.4561957190029627
P 2.3745783384466925 8.28966706034017 1.4093860230245194 -0.7669099364999372 0.29392671362599054 -0.009370128360990314
P 6.314205651249941 7.908541285331502 5.726764068265896 -0.41602094655628996 -0.39298334801053614 0.6641282878553207
P 4.735756306257129 0.9202071713966187 12.714404121027002 -0.4510439995986942 0.5934170373826877 0.6096939201658402
P 3.9143054208291206 6.182896535326773 8.414035564525536 0.1904873767927171 0.3063968210685433 -0.8434959005857925
P 4.674225288210358 0.9194178469244764 3.6500786001447287 0.08137181551027275 0.40770959847711724 1.6627709809510076
P 0.2470004945320173 5.550366379593239 3.7208147746217946 -0.08638340979225123 -0.9615259907490471 -1.015558495014419
Ni 1.501630835732709 0.8557420437602973 2.5463171981946946 -0.82677935916206 1.1695369782478244 -0.4368952189021379
Ni 1.8945601870431834 6.476824637901421 4.819024594451094 0.0022013785266929826 0.11485426353843445 0.004345164342573161
Ni 6.291832385177494 5.770823797393077 9.04801916601122 -1.1500040504212194 0.2618799696030909 0.6116451303549402
Ni 8.822152607403439 2.2065429528312017 10.210008217728637 -1.0794578647715407 0.9149705115870111 -0.5884164988443028
Ni 2.3611961132006014 5.293699835720757 7.013081704310316 0.15746207090663206 -0.5016762199332652 0.3037223595601737
Ni 0.8562619091885013 -0.029273957951889355 8.926850601381311 0.07662530196422287 -0.6035425558524639 1.0882721206290613
Ni 1.3372154554549742 1.0192174928275268 11.417037756911606 1.3832501583377017 0.29755531151751335 -1.0946528273444245
Ni 4.054514850627824 6.667723215123792 1.7474908924929071 0.4443822713078024 1.5880436673404457 -1.4015605266111153
Ni 5.6755967898114035 8.007506243287 7.895618138456565 -0.07853357473052927 -0.10610274259804953 0.47677971380190143
Ni 5.388890552522104 3.0383911468232925 4.782083301885326 0.7775260214528867 -0.7519430307774598 0.227603307808408
Ni 0.7207158446619946 7.189512054685269 6.900265462772983 -0.20390570708115208 0.22325274414919616 0.22819594708708443
Ni 4.8903096669806265 4.71471672636175 7.152071763889986 0.885619826339036 -0.7097280879723068 -0.16712324814547994
Ni 8.356351369193572 7.326419023474091 9.212782937780108 -0.8731849430097929 -0.05694453570584386 -0.013251979913899758
Ni 4.979920676306484 0.2579612174606969 10.616060315205852 -1.3994195690087126 0.5261212403495068 -0.18663535003647858
Ni 8.212921132640725 7.014590493502468 4.909134602006467 -0.3261498353257545 0.05378516414125576 -0.5313470075248204
Ni 7.331499732720064 6.079458738695802 6.997014868589433 0.4734079691161912 0.21959149324752503 0.21103331926486885
Ni 2.5499807524688447 5.150605288885947 2.5542313101148064 -1.5840579432198203 -0.2751844000214809 1.8155068500265639
Ni 2.2442853643727187 5.373866169466153 11.3547736651022 0.9195928408503712 -0.45426122098441124 0.6467820832673893
Ni 0.9863017550696844 3.161625564123395 4.074601797539584 0.4108576571877956 1.3847424266125121 -2.0638383915212586
Ni 3.551261527119069 2.684302003159269 3.122457832184481 0.3215244207386011 0.5773293877922057 -0.997375910568121
Ni 1.1908728837807738 3.4791608193016557 8.257969785531852 -0.17702276664737898 0.35526603596542045 0.12900124446277783
Ni 3.977986667610349 2.4720735197988906 6.747067562694751 -0.6959192071136724 1.8662763672699472 0.764340118890232
Ni 4.230788243377858 6.931529970025884 6.294712058596551 -1.0242663072010616 0.7106282311890729 -0.5362447019367539
Ni 0.7111387077333345 7.3891657826618635 11.328813962663801 0.23166359392071073 0.45730052203136723 0.07000959641991815
P 0.14632896263157735 5.611861106859682 8.211043084758732 0.11044122207240334 -1.504042641737442 -0.3308521258974302
P 8.656648503715852 1.4503882539090338 8.04087470852944 -0.7781520850726598 0.7748510457238849 -0.5284324049811867
P 1.7694930853364967 3.2503293039410432 10.400983912859205 0.7434226520112746 -0.374158244884233 0.487723871518231
P 3.939010369537667 6.458742756602804 3.9924195109469465 -0.02538578706295628 -1.3015710959996551 -0.16786372585593026
P 6.858422193054358 4.037957182103 10.22846570860365 0.6849064009429364 -0.3366268235976783 0.8844831416314316
P 6.486459840078607 7.767751203047545 10.345371921083993 0.0018229121413516993 -0.9629197857727804 -1.3184750708438455
P 2.0986141721345932 8.486952814900338 5.890345667865587 1.2893290454075086 1.0883230284716545 0.3010784941794234
P 6.724345905131151 3.9936461393220455 1.6159377210720303 1.514657698249127 -0.543263042236116 -0.2497806152363956
Ni 5.058898486996125 3.054667561800571 0.5851570783623727 0.15105359627712694 -0.627146825534965 0.2816610088847601
Ni 1.577043077255087 1.329685118536835 7.125858933258796 0.2482083856532693 -0.5727872769474781 -0.352515984024109
Ni 6.819627348883318 0.6350813975906197 9.1575030066449 0.7534355561625863 0.6154539625780691 -0.6061329422874593
Ni 2.8941262223228916 1.5512947686121 9.467655809834861 0.2512440871557996 0.36004160297719284 -0.2996353339749936
Ni 6.363461312850638 1.8557018340065683 2.696421309249932 -0.10688872883445462 1.352369409598445 -1.5903311778230418
Ni 4.337201883995756 6.899131375887721 10.4056581653655 -0.4300622551407045 0.37995351140977146 0.2904413261805514
Ni 8.061497851720551 7.444037442518376 -0.033994481203103645 0.804261637675518 -0.25213985949719153 0.3982019160969981
Ni 7.811409011782588 3.5020330836036186 8.215159366517478 -0.5828945405848089 1.067837506923793 -0.009264198910745336
Ni 3.118185500070322 8.379060324984058 12.455374140085633 0.5728705806899037 -0.017146172761983373 0.3553385410745687
Ni 9.220670738884483 4.775240675254409 10.340365607937693 -0.67653951703548 -0.08340015879421121 -0.6616083496469445
Ni 8.633948620620448 2.2491936924121325 5.680009748699335 -0.012806407736048912 0.0005268190377474797 0.5792402316616734
Ni 3.597650217073823 2.8454965766828595 11.712744107722346 -0.5496524907022275 -0.3368924185542392 -0.45708120693170956
Ni 0.9440955775477762 3.3687370474574716 12.462837339060163 0.3775680418967304 -0.17034766862004855 0.49748892132479483
Ni 3.17043515104811 8.610849538941434 8.036426366130687 0.24159062322643554 -0.7846875721983325 -0.17454807985464132
Ni 5.664056321666977 7.80890494793993 3.4125998991013704 -0.8208257126817865 0.4189077811857817 1.2923498345117035
Ni 3.034362870206842 8.43401363909631 3.81691276093135 0.5944418791027762 -0.27662447490211717 -0.6375420527263601
Ni 3.462657586947324 4.218785067784246 9.400877144952604 -0.19454380625027787 0.7040009556805424 -0.4980100839355875
Ni 7.282543470057076 5.882499601158591 11.319850139922691 0.09661177238847878 0.9430461867773049 0.7207486074525264
Ni 0.6523195182466011 0.17932816918417513 0.04951695521906085 -0.5229117322732736 -1.1327627468422685 2.004007021185923
Ni 4.229935410040141 0.28480641493910924 1.6030835266797174 1.3176985976891373 -0.2915024204552141 -0.029792657881400307
Ni 6.181290668297242 5.792779719491748 0.40236132511782075 -0.9245247309343496 -0.24361999495163852 0.13045031820447858
Ni 8.014646454316608 9.061853211472402 11.15067885288292 0.3534333536320558 -0.28029575310611726 0.6320298646588793
Ni 0.15856439921929133 4.82521307976659 5.803117148268288 -0.059925986931670984 -0.6075537338943859 0.6892394811006517
Ni 8.074616968809261 8.49003753122825 2.6380602908648445 -0.5541105264735812 2.829106935763031 0.5588981776702117
P 8.428388568145412 1.7206366223194127 3.386308136022966 0.4928048855855641 -1.2212452052553935 1.496394638273881
P 1.9528794710308932 3.171904927651409 1.7410901061124886 -1.176660219556167 -0.6702945645670327 -0.415343203762975
P 4.788777136316896 1.152903654862204 8.242527151232618 0.44521556584237515 -1.0515984193571115 -0.5540925287514522
P 8.361477441914957 1.7031807569814608 12.36197074421546 -0.20758649836684895 0.7618430634999912 0.8593583215393457
P 6.4760625315145255 7.782258442483815 1.5051927758219399 -0.7604544106825807 0.22576908281314667 -2.7929122310100287
P 2.0025706219955306 3.191066459664795 6.089992137686115 -0.3971955863196708 1.1444260421128098 -0.24675982613220088
P 7.005626670761358 4.096203884530054 6.0949322201583165 -0.45793738428441777 -1.0209503554539514 -0.30735327144454166
P 2.590943970764506 8.569559703622817 10.342875115397401 -0.5482640949951332 -0.21838050365855938 -0.6728425277998671
