# total energy = -340861.3560605987 ev
CRYSTAL
PRIMVEC
9.37106148939962 0.00000000000000 0.00000000000000
0.00000000000000 9.37106148939962 0.00000000000000
0.00000000000000 0.00000000000000 13.71549573114979
PRIMCOORD
 96 1
Ni 0.0700683646643767 8.242298485217958 11.630095623351059 0.028343584139699573 -0.3371798678876709 0.12807898975882456
Ni 7.5340149076193015 1.738003939024304 9.860728615375058 1.9109901652375538 0.5373639031428616 -2.120690624623612
Ni 0.05759454457306432 7.313476344003536 3.1157898929100067 -0.05130276403903422 1.6000481480004896 2.074683818876195
Ni 6.480192175767049 3.584084331442873 3.735168334928843 1.202551485500632 -0.6221591425123866 -0.019929649044391484
Ni 2.4098247159503625 6.323395573131755 9.812394553871812 0.767161133278795 -0.4979416925914973 0.33723257550247726
Ni 2.571344333630372 2.2512194984269143 10.71343430877062 1.0201286308836044 0.182563236849634 -0.10412427871544003
Ni 5.579352024480249 6.076121370780722 10.38978970283146 -1.6393122357074348 -0.7064825844518156 1.136093353877398
Ni 5.321900849235244 8.14817554254112 11.876823492811006 0.11621334866949018 -0.383725576857694 0.977403324100936
Ni 5.046569688463815 3.083622786873316 9.933941908311274 0.05889086079893729 0.9540029428991247 -0.4109677004030987
Ni 4.20612602916748 3.6330293861622214 12.432355955065649 -1.0283098811428162 -1.3380316528195344 -1.5680373994218477
Ni 2.0354320630406546 0.29241085763749913 6.694300316915187 -0.7926644197562219 0.6171879145500403 -0.36892142196532596
Ni 8.89411204563515 2.3844291390234176 4.8951839367944325 -0.607959711083553 0.9236454136531899 0.5295474924222363
Ni 3.3441851545684105 7.008279609923555 13.112604127685582 0.8783590310115648 -1.2835083249606734 0.27292671433555576
Ni 2.0851080605645422 2.0235682990592845 13.132148413751572 0.05834810092158983 0.41127623278245296 0.6117564591218237
Ni 5.14606224943554 7.292110323563153 4.913754569560531 -0.40717686590209873 0.9949639586925187 0.7022474633245455
Ni 9.366872732124985 5.97597283549723 10.06986259702769 -0.257525292178821 -0.19289701467547424 0.18739793923411596
Ni 6.26729102735256 3.622252665326064 13.457315817200193 1.4376613860987304 -2.167319894446377 -0.3478676866188202
Ni 2.9736721211597197 5.443921442285337 5.5381530892766975 -0.6810374049058335 -0.9410540960479405 -0.8047185227072785
Ni 3.526920855703255 0.7576325250728216 8.69661223695477 -0.33616093970485333 -0.2819060350160306 0.9560009471657599
Ni 7.3438666967615 0.16386332018533356 11.665248349612446 0.021201573778279616 -0.014656316460594112 -0.0387426679858365
Ni 7.256406578879885 0.5692816838292591 5.968696206167426 -1.2553331480780379 0.5914493721333555 -1.163977481882176
Ni 2.1554753620938523 7.748649702429172 1.7866762958511897 0.463116357382196 0.6906664433551654 -0.8194848823831757
Ni 1.355955128790126 1.7383881525497673 3.829667994281869 -0.4239551138017021 1.6932994885571675 -1.1732216261882633
Ni 0.3693285312228737 2.0484765807832033 1.3414815241540865 0.24549510048716428 1.066165518538009 1.1377208621784922
P 5.143382125818896 0.25324450569426415 4.3915371683881705 0.10418958473573668 0.4856528479218151 -0.2928967296995794
P 8.625865407430796 4.0203166198289315 0.8213857313272099 -0.3205633423769125 0.015839023914785623 -0.08556142811158812
P 4.694377080476591 4.175557626239179 4.98987570291019 -0.17023685407379713 -1.0139065612332927 0.049700966769553115
P 4.030456108476517 2.415578547770711 0.7874615512411458 -0.25783562433038815 1.0187806014961422 0.14212749743209072
P 0.8668128895231726 -0.010127306267509047 2.221594761401397 1.5416717649441256 0.7888627866219448 1.0535362598097726
P 4.918223628835978 6.607975971699086 1.0820774196723388 0.7704986822924601 2.0126829516933658 0.9274550172072673
P 8.952531243628721 9.022289426154249 9.846546450754674 -1.5007621712139574 1.5702326073009538 -2.9967037811108197
P 7.539909305363599 6.923087288948332 11.618149394027638 -2.0827018040846643 0.44888864381858823 -1.062950354034821
Ni 7.315528606493204 1.2796746873933245 3.7911135726608958 -0.8769847763718573 0.9478299813191934 -1.0589088369755957
Ni 5.327261096468533 5.564761281574251 3.35268470743658 -1.3850450454545955 1.3045525472254824 0.5135619156272575
Ni 6.362969566254445 8.888629974601105 0.4984224015661245 -3.2550060606649813 1.3860727153881613 1.2367445864425732
Ni 8.943450684941558 4.936825186105345 3.1830103919551584 0.052388798014361394 -0.8548406361746503 -1.6698877945014468
Ni 6.6335402277347715 4.695895192455251 5.937588967197317 0.31855865324205784 1.345675285407721 0.309033487360442
Ni 1.6911017757330276 8.504575757185242 9.59523706928012 0.2745902180809077 0.9254248741511159 0.19558150348617284
Ni 5.506923089399673 5.640142101057773 12.989479623579403 1.6018553764125574 2.50503223779875 -2.1640283681792987
Ni 8.431884432379961 6.254968081352954 7.431097223633997 -1.8532334180430596 -0.6666387129820003 0.7690853468847013
Ni 8.521396812751245 5.40153613068365 12.668112185608228 0.02590540701185216 -0.21436135519683727 0.8124400597212523
Ni 5.155883121988839 8.322496030362164 8.49129134026582 -0.3472647629274987 -1.46692876760428 -0.8609655181254655
Ni 3.393533164936415 2.035057220576788 5.058370666332488 0.8248042377135602 -0.010680619642297735 0.32147454133727216
Ni 4.155147454081657 3.4480258881209855 2.883175779320786 0.6989937322739381 -0.3007223963915853 0.3554804659690717
Ni 2.2353917753901578 3.6371995085727344 1.722186524155304 -1.6061038672762664 -1.3396398778469187 0.05977917694116156
Ni 0.9788823522637735 1.6563070240246336 8.871416271554203 -0.32924492931131044 -0.2311164631679891 -1.1687923867723162
Ni 8.056901402589663 8.117157328656178 13.444971317758915 2.1202913323026644 -1.8291092713013464 -0.6667166174077873
Ni 1.3608655650667751 5.232285387186397 0.137103316689915 0.7709113443498464 1.094202112960251 2.0080377396118707
Ni 7.060513907263331 7.410316894543406 9.374472663079876 2.3310091772096437 0.45534314119468033 0.34252956223535846
Ni 4.015143793827576 4.766637336448427 0.6372668615006987 -1.5768102605184715 -0.6386725667863775 2.1300844071336864
Ni 4.296528660390447 6.2921618248300915 7.172752049112672 0.7951542760576111 1.3713690906293994 0.3235694761930879
Ni 4.464158210231477 0.21106067191690506 6.484672480316411 0.4308585257897547 -0.27174400688136424 -0.7407695306591435
Ni 1.1398959326175633 4.128055715005717 11.993570052394501 0.9675804244732433 -0.5026370411846376 -1.1277807202466446
Ni 7.193170655225631 8.501464564735151 4.069113611775053 -0.2835111747196214 -1.6585695412751502 0.7743630503438729
Ni 8.068868248248595 9.048078587668252 7.6819671023196685 1.1429288887419928 -1.936649003456239 2.9180622200475166
Ni 1.5078319240871734 3.250352714801067 6.210582048100379 -0.012167488600469368 0.7761278555537794 -0.5146181248059137
P 2.9455495653081463 7.865328790369169 7.677440879568482 -0.3371963229479032 0.7203220614380691 0.24184002023308027
P 6.511088565851232 7.398453130562037 6.693367896286319 0.09813180857743099 -0.10478890888263244 1.432177994386656
P 6.502917000138946 3.1208352724736477 8.145866512963702 0.11659490037862501 0.530384643611551 -0.8492955379867051
P 2.808778921304913 0.34659808421401833 11.943193099463182 0.19647110517997776 0.36257696780453685 -0.5818694417544044
P 8.17428332014941 0.0627786158483359 1.76541710551301 -2.6011251615692816 0.541791342786596 0.006469923995059826
P 1.1908557655801932 6.554551549536535 12.09366610973305 1.3837962606491587 -1.6208342315079054 -0.050626821017932165
P 2.833677831967235 7.220955852859724 4.329941180513333 0.10706793472479625 0.9898968285822565 -0.5995604312762642
P 1.686200710517975 4.193521951319974 3.9730499222415454 -0.9579413587215825 -1.733087824198699 0.5517237714089596
Ni 0.7919540381705841 7.578115123493177 7.267676217556026 1.299821203188084 1.330585223843818 1.1333469014805124
Ni 2.324426231620012 4.008265434615629 8.89784547657526 0.3309241167859462 -0.7681898316536254 0.03787286378637349
Ni 9.084653841080012 6.696972943682553 1.131803083822689 0.6587212579071365 -1.9712822772593923 -1.84354781532418
Ni 6.02379336282498 1.018653137679993 8.167879136654253 0.20241292458570947 1.134024901384144 -0.8897657301866095
Ni 5.868861601447422 2.440308779324293 5.890545300875931 -0.3643430585660241 -0.27909093416473874 0.5083772861025244
Ni 9.37190499220239 9.029373948721322 5.117237801070377 0.44059555057186056 0.8752927333814151 0.3476568561595948
Ni 4.674697851123608 8.534610009602533 2.327780134565456 0.10010410181245341 -0.7093915305684945 0.5686138622960787
Ni 1.6820024749226719 8.447674671170331 13.276489938418747 -0.8697453212006246 1.4733303002552498 0.7791242191779422
Ni 4.170291089621858 3.976516277926149 7.352136658620552 1.5515445439731472 -0.2166745767110462 -0.8057248524846059
Ni 7.0816737643485865 7.260923430569473 2.200514558339713 -1.13107044674151 -0.2674960302382877 -1.7095997683790882
Ni 2.327303147530186 5.82486446725111 2.7278063893666644 0.014486880762265371 -1.4786607113292276 0.5375461943569968
Ni 2.6766750659768155 9.406390498878094 3.632494298545052 1.6819059020082454 -2.3034878318609233 1.3855685220582332
Ni 7.280555804614474 2.358302619291933 1.8089231960816576 0.2566842843347644 0.17737680755268806 -1.5247657332174063
Ni 5.327439146638869 0.7314047978760932 10.363071869113226 -0.7402468253864541 -0.7548815445804935 1.0348656799834628
Ni 6.114908194729292 5.273508687150099 8.269525167580891 0.6239848828672157 -0.12460157273318541 0.23170524579192353
Ni 2.8704405066109273 0.6732611090934647 1.377625708732399 -0.27462055709821087 0.6588788665309233 -0.6367174999425357
Ni 8.684509510902686 3.2516084370550193 7.140191358488922 -2.294520081144674 1.1104260310182812 1.4019675322415466
Ni 6.442173778869404 4.819911821625432 1.6132985368267685 1.6707072050789487 0.10645061285577151 -0.7239630006247662
Ni 0.8174892439153192 6.769233199654389 5.249633096414132 2.085350297451105 1.6677280678459665 -0.9183651390908572
Ni 8.267094314202717 2.9345104547472824 12.264423719935044 1.7878623488364178 0.8302932858525894 0.6907152943152298
Ni 9.148170896582165 0.8478383640022581 13.294279024647684 -0.30389719457514114 -0.9356326679220531 0.681930091923432
Ni 5.314057270678841 1.34329482457304 13.131778256818505 -0.40295408607000277 -0.59503734659493 -0.5709347971197716
Ni 0.3739456532715474 1.3764964958100019 11.225228278129018 0.46769266389896874 -0.6114217014902243 -1.0586926071997314
Ni 9.071984165801329 5.031088694706135 5.492836509607576 -1.1777627085917264 -2.497765271823692 -0.02674692907654103
P 0.6251903744210846 4.762401616606737 7.922577542769317 -0.8323745938616504 1.8219171244282817 -0.4512005797812165
P 7.359647564490274 6.237416082982412 4.069675875470852 0.6492323445800947 -0.8169142934425221 0.808797834982975
P 9.309203219059148 1.3201764156140832 6.785220230738289 0.5775510168847086 -2.0158796042537928 -0.7421586976971863
P 3.5253371462934195 4.652975730342554 10.705836252028048 0.5390785718411232 -0.28995795878622965 -0.49316484002814426
P 0.41765322166452323 3.371904754771327 10.223050403842109 -0.7727789936862046 -0.6186146196942378 -0.8061503700577988
P 2.990352610801772 2.2546211937865013 7.355743580229106 0.07969802735227564 -1.0228239183275805 0.04290476978332611
P 6.50150196983785 2.301101659305928 11.518054273795247 -3.034002260450962 0.21325449528590368 1.4380095134667685
P 4.034045225068037 7.810770469753423 10.222775831737327 -0.46828247496416775 0.17986255008901925 0.4791631264324135
