# total energy = -340861.13586254296 ev
CRYSTAL
PRIMVEC
9.35980405605812 0.00000000000000 0.00000000000000

0.00000000000000 9.35980405605812 0.00000000000000

0.00000000000000 0.00000000000000 13.69901933953702

PRIMCOORD
 96 1
Ni 2.1228222397569123 1.2152207770504624 7.897210974953174 0.11433438647922245 -1.6361747185197177 0.44381868549484854
Ni 5.3086467660520045 4.817041786824518 4.037347660030547 1.1730485909455086 -0.513367026007632 -0.2495204195964735
Ni 0.10398274121294969 6.099606352796819 5.652613006806048 1.488450957946772 1.0410661523672198 0.2744184683897339
Ni 4.343033238892801 8.970333081447198 12.918996599707844 0.2713390581334617 0.05840183697766071 -1.2886595301443096
Ni 1.1255538558730862 8.787816905772997 5.9806488613550925 0.10142307773419305 -0.3100529297638918 0.7170112518972812
Ni 6.491632378537239 7.006271835115197 0.961549500314191 -1.5847781092152964 -0.6661095799514076 0.7710098176009237
Ni 2.2186479118878073 3.5331013296817493 7.895881882802111 -0.6713320046926117 1.010693967833266 -0.6943500628543396
Ni 4.352945271202492 0.5407739009737274 9.017927684180702 -0.9654466659596921 -1.0521805171128267 0.5695078348652579
Ni 3.0520261298200824 1.8677675840070693 5.733477968413988 0.4582181487496302 1.047252740793906 -0.12739816164171608
Ni 3.336386331520486 3.4212235938954056 3.694831252897628 -0.4505012397213467 -0.6783423745721736 2.8577950477263427
Ni 6.83214204371813 8.24605273754869 12.612097990262649 -0.513544946346393 0.33347439401162565 -2.2619568024966723
Ni 7.81866537274688 1.2712672826882625 10.386007162328887 -0.7859453558648336 0.04949604984759863 0.9023093711795751
Ni 3.437818526175937 5.066096808286814 0.22692657312747852 -0.6282472576879955 -0.22279971577217755 0.7297631522463109
Ni 1.2894627414323983 4.254283578495737 9.837046240900687 -0.1667506952974096 -0.5855003536387723 0.5243317525492519
Ni 3.6173957234315877 6.371171702592267 4.114829052535603 1.6576529429981517 -0.2649447245713437 0.4690725749656308
Ni 2.4422536265984034 8.781274402860369 3.4746325067996167 -1.0637525382211421 -1.210536817698954 -0.3173309514825438
Ni 4.755267081211712 1.5725874490205447 0.5389468672562092 -0.3087732917205198 0.02020398575170069 0.43996331630450036
Ni 8.707107316909479 7.782003020946067 7.461294020874857 0.05475575558464118 -3.1045510172038018 -0.996646231490948
Ni 4.617294212205898 3.490504862220556 1.9119992092062266 1.3556331679513813 0.6851020618935104 -0.7782227904095953
Ni 1.9016313544475438 2.075162118396244 10.228235500174167 0.46487062106914134 -0.15236640155127953 0.3144703421052971
Ni 9.139801690511662 1.4964360846469402 0.24722892372516603 1.216567854384382 0.6768182246181634 -0.5072624557717909
Ni 6.017586391389998 2.024750214694642 8.766632861649747 0.0949878636318106 0.6008117871848621 1.3591203551690334
Ni 7.348456905190739 3.3755383911535715 4.781492315705124 -0.758008006024617 -4.041007723689047 0.26373116387921675
Ni 8.876061136760503 6.1162855233122775 13.719842011311485 0.27761820627395417 -1.0386593426979402 -0.18225958956628613
P 5.6930445516296295 0.45881571427251916 11.066450864752005 -0.35805696844699625 -0.4861809525111434 -0.9086216865508481
P 7.046912103565318 6.019448992362264 12.812678587426655 -1.4684403191528002 -0.5947843500438595 -1.671590121904534
P 6.1584046407755535 9.21356630489568 0.8611206766347538 -0.6561095313159023 0.5123840932690723 0.3564559425084635
P 2.7269133420229896 0.9573488203325202 2.154390050305444 -0.7255956511321826 0.49472729941925764 -4.911393506687148
P 3.3770453195783685 1.4134052644210007 11.892337495658145 -0.8460400071638848 -0.718226355251305 0.18052203804988912
P 2.3732157131741523 6.866960514154439 13.210840900591279 0.9768772763941369 0.5915725279747812 -0.09613483275206024
P 8.848552673155044 0.7339583811111808 2.4288363477353796 0.03423989501947652 -0.5498327250338337 0.2538380731352209
P 0.6548820780248488 5.441162869395353 8.071914522328129 -0.32265339213672173 -0.7326296751608287 -2.403514800578538
Ni 6.525552307800997 6.860483529868975 4.467455919820485 -1.2632079228404245 0.08574140533287815 1.4211168514764878
Ni 1.4174393398935945 5.017173113402248 12.093823185857415 1.4306577010873878 1.0813041739516605 0.16565154869595988
Ni 1.8244504116470592 9.245969945930762 13.32311830000333 1.6699752120089304 0.9448989237153276 0.767395360776788
Ni 3.052222685701578 4.779321777185184 5.8379876665854225 0.28058345954986513 -0.22919096401050204 0.3148657777715029
Ni 5.482776557449072 3.833972225427757 13.418462878214754 0.886987396110524 0.3623905628253436 -0.5367931182410561
Ni 4.069156017538814 4.201091813041558 9.607697350528875 -1.279974600775802 -1.095023837530598 0.9537188359998027
Ni 1.0863175580050737 7.30940780340034 1.1693642898976107 0.9618864594122596 1.5152598506094999 0.7646702485361411
Ni 5.442201807626114 2.774592182991419 11.206454811199936 -0.23034101845454522 -0.08181610213654297 -0.7478778595691508
Ni 6.864452086714403 1.8003769960658265 6.704874918391092 0.5375233115388615 -2.5036291868036367 -1.9019833337532535
Ni 6.306701373461812 7.727163930008881 9.48813240781529 -0.3728099583864547 0.8262746516114996 1.2819821181241342
Ni 7.3100536298681105 3.6644942565594114 7.645696197031023 0.8084859601695108 0.5418085691777766 2.1622375948274635
Ni 0.2882286086443077 5.374605303999496 2.024728687145717 0.3857786027319808 -0.8029627163584364 2.3700549782581954
Ni 1.6923835788899848 9.123627949405764 10.003516904782154 1.7633787618727566 -0.2301021629708618 -0.22310490571742222
Ni 3.6570438526703524 8.074347135356732 1.3044505953866081 0.057799427506971424 -0.5807697809323223 0.12858472575064953
Ni 4.040224863743483 0.8427183662248542 3.631678784153579 3.7889514250445973 2.4235143836289166 1.8240884210479875
Ni 5.51129587987365 5.141377710899511 8.07495552260898 0.14665778120227646 0.2269175945952931 1.5381280134569253
Ni 9.021849442006726 2.5042716871121087 8.836223939483348 1.530893957602331 0.7129573935428818 0.4987978699442055
Ni 8.75995276962007 6.112625839994912 11.26001816086818 -1.3051958372364363 -0.6569081159577976 0.28814430261625856
Ni 2.302577273286297 2.065399842948645 0.25324259771853386 2.1830905270170726 -0.7022034974604875 0.2812817711684704
Ni 7.37380325409975 8.900209430772781 5.643941148510554 0.3311632293799458 0.19966595796819162 -0.16185788598148254
Ni 3.035777510283139 7.474159071308917 11.20305813837162 0.11345764030122395 -0.3547343318316665 -0.13838037168483264
Ni 9.047907136010673 8.67678155233592 9.490145701630034 -1.8483642628762167 -0.7568993463414707 1.5533124345068474
Ni 7.763751403378648 7.306300348511938 2.790134137335368 2.186322660801125 -1.1560762247572283 -1.1415127251207566
Ni 0.9454805890117568 3.7316134101881135 0.32576516612758 -0.7769968884222941 1.4446473304982603 0.017741897364453314
P 1.761131338393933 6.974560819567289 4.1253635118033625 -4.188749739094438 -1.1466477323544768 1.32297090183167
P 7.401386596136256 3.5612836991666224 9.914733549091117 -0.18171940079209994 0.1927743730546809 0.3346015656375334
P 6.981730429339928 -0.18104200656298478 7.93871889722304 0.2381232335031254 1.994671859827926 0.22319052345269302
P 2.2575378970122326 4.0199702481455875 2.0708669043953782 -1.3395460325815316 0.4006064117734327 -0.9883590517814913
P 5.49843550934153 2.584204412253527 3.9326591896049905 -0.7617623308607268 -0.26245486826995446 -0.70954656808912
P 4.154208555402991 2.738322942953597 7.746096941298818 0.718454412101711 -0.7869596560619608 -0.5325168594632055
P 5.414646545001251 8.852717785881968 4.614637899864547 -0.5198356644511112 -1.5094887524536778 1.0070525144259366
P 4.822507912290864 6.005493524776098 2.451398154989875 1.1189569513074276 0.7770994754384294 -3.5570404909997704
Ni 8.393441569258517 8.574787769447624 0.5481428745690247 0.8085065289948011 0.8167168327197353 1.2079523448012295
Ni 3.082520370863495 6.339357729201672 7.83545498894813 -0.07057986710109135 -1.1311756048608066 0.7293867427434987
Ni 7.1621780883564865 2.00633948046125 1.3450805680524611 -2.459900121346802 -0.02517289972120181 0.32060370869654464
Ni 4.957654120524698 6.569655703686989 12.628796816366256 -0.5093252518380906 -0.37176711894423714 -0.2749650849218232
Ni 1.3769394685016836 1.9314610494154247 3.496154439842963 0.8943728899413178 -0.8630810218065718 0.536129002294496
Ni 6.213384128770952 7.384379832484973 7.189696847746215 -0.6365912587773166 -0.4910161691162577 -0.8041801337053053
Ni 4.678685165859594 0.19200701680925786 6.437922079948068 2.395400913222152 2.212763885711789 2.48145779291292
Ni 5.490124003495443 3.6630528467617793 5.945086286510266 -2.445557736582201 -1.9494785511207395 2.8647406258062404
Ni 0.521257773902021 7.8889574998911485 12.332144384229293 -1.0890966734128857 -1.2322821797958454 -1.9646100074455393
Ni 7.9113742301854915 5.920412907500278 8.97193922379313 1.2304618387576551 -0.38954218353947107 -1.2178814309894834
Ni 7.30234115147039 5.410584390117014 6.376372945608788 0.7285768452476936 1.119099390422563 -1.0107237926299368
Ni 9.080273337830231 0.5731438467148376 7.53226847772203 -0.6491852933922433 1.9339110356997855 -0.4903728791053039
Ni 8.914651608160746 2.9176661451122294 2.420110202577377 0.8579308450641999 1.416814367446392 0.46495855279725734
Ni 1.1278282882161033 6.435510994468392 9.797812750973838 0.7909266111295088 3.230566696675695 0.7079257446562454
Ni 0.06569271951727879 3.506051496466445 6.5193636054750606 -0.15084122315600473 0.4621735338529524 -0.001049010089804645
Ni 9.130975395452134 3.5047224043153817 11.52258780315386 -1.254219346188569 -1.203483253286282 0.1586658614067461
Ni 7.240734922327438 4.7286758783865634 2.06415405305212 -0.6333133593569931 0.18019525083808968 0.42509976892910656
Ni 1.0709019610135144 4.122871932010313 4.356301696874121 -0.42552040140629294 0.8556497623395071 -0.5306942044321699
Ni 6.397762905417416 5.4894220182043885 10.658151883984551 -0.13662919332168083 -1.2164902070689114 1.1922213072192176
Ni 3.306032487535284 8.151303442864078 5.659543941579727 -0.6585533648707046 -2.292526447753413 -1.3442737770745041
Ni 6.685754711023541 1.3615706705295278 12.801006911987386 0.894637199346298 -0.08187652306083318 -0.35609444540398677
Ni 0.12951441423880003 8.459493705244816 3.9507563704083783 -1.288760060277916 0.052498584119348296 -1.0426892897929396
Ni 6.748119084280834 9.328186463219078 3.161761406498128 0.8900822329857638 1.4594165183876349 -1.648022361886923
Ni 8.711300509048046 1.44514435938055 4.639350590050834 -1.1279817805138574 -0.6493135914399913 0.0575518302725396
P 0.9579010487614832 1.5795885823233295 5.970334357478531 0.5332365112380494 0.7975227762897878 0.28570818237094026
P 4.569484333983138 6.261315684444161 9.915542236146413 -1.1950518346894774 1.4303273143311626 0.20519100155147887
P 3.342676119728335 3.6654021575358424 12.151262430312668 0.5343899081162022 0.5110268079102296 -0.11039699909802922
P 8.265783204129265 4.94238828039523 4.330726032770031 2.468931892531767 4.383104055041729 -2.547401961014213
P 8.890175721012643 0.47261674509465285 12.056561806608237 0.2758621428147959 -0.4261307812967823 0.26096362843640863
P 8.18217207606272 3.8376038293334798 0.20550853390720825 -0.8823462977940867 -0.7118471911978386 0.3383628324521786
P 3.0751448454054815 8.407677830961104 7.761371205251779 -0.3911920604380682 2.114959892787422 1.0778334417942406
P 5.117706766885149 5.797883714897666 6.1924911745483895 -1.835335968937349 0.620012785593345 -2.5842911207310784
