# total energy = -340895.5194783393 ev
CRYSTAL
PRIMVEC
9.04201930239497 0.00000000000000 0.00000000000000

0.00000000000000 9.04201930239497 0.00000000000000

0.00000000000000 0.00000000000000 13.23390923037877

PRIMCOORD
 96 1
Ni 6.467168608594686 1.8973953947509925 11.38789785179535 0.005690879737190199 0.24826494992281758 0.7604387269532968
Ni 4.639586644152556 0.25092417085328633 5.849691829451679 0.32434029292084143 -0.013527345062473477 0.545692220502899
Ni 2.5561969142826273 1.5171151928989204 4.798628528414784 0.28038831281992355 0.03185853927149352 0.2587776765286834
Ni 3.345519981089024 4.277869707735544 4.895553549118426 0.11484243646389253 -0.5843464425399871 0.32954574838118084
Ni 5.146735417519154 4.083601925040826 2.9341822516595806 -0.09610783616886673 1.4377292632221883 -0.2041864715463645
Ni 7.38287197787835 6.237926295601472 2.4831310696644655 -1.0954727521425585 -0.13681302719771277 0.38722304848799116
Ni 4.972513791409691 4.863575543985629 11.519548747269255 0.28882950160874127 -0.8257612023101908 -0.5280287417848648
Ni 5.572388471759502 7.9224273480882275 12.32962324815917 0.047684450560156584 1.0922935830836284 0.5597692674212553
Ni 1.8221567529170268 6.563050180281667 0.44330850094687313 0.15032520275153466 -0.4874294802062638 -1.336757156982485
Ni 2.835975072632172 1.8959396296584232 0.3056582257281264 -0.2687031631725114 -0.8334901955233323 -0.06337846425664569
Ni 0.7184065101540962 -0.24291927124799736 4.602104761927543 0.26675066743183096 0.3029728829886589 0.48280586539132336
Ni 8.543180050790475 2.4862297696472195 1.3266197406179903 0.2689047376603562 0.023396010326437126 0.8770274566843347
Ni 7.000593489781197 0.546194020712762 4.750020441553705 -1.3199030615396237 -0.1095397933040565 0.15095383747446905
Ni 0.6796352359899499 7.330364972334563 2.3533464469551966 0.2163984402315241 -0.1979140082740914 0.848539633657287
Ni 7.388975340844089 3.989203244504039 3.872731186675452 1.0808542308984355 -0.4569914754313807 0.24458570129901747
Ni 7.465136268637323 3.98961917738763 12.558265171076938 0.7965221029394153 -0.34941549072191436 0.4303083097132396
Ni 8.052957937382198 -0.2985331145918249 6.977485705491944 -0.1465585366202508 0.2922282428776451 0.32103385425542774
Ni 6.777427413696099 0.8687454509281373 0.5905577837573682 -0.327074661132869 -0.8247407314654763 -2.2871307306591384
Ni 2.122849101695843 6.454365109395443 9.225291895841636 -0.1806390232437276 -0.19746509366213089 -0.2441141609792376
Ni -0.007452432231649374 4.871803781465369 1.5601588211390849 0.93262704832651 -0.07986437772681085 -0.605402491879338
Ni 6.660902912156103 1.92395180516637 6.975726128553969 0.016105647312610973 0.38100714948526637 -0.22244670330813301
Ni 3.429095364633231 4.415642954415526 0.4668701946003941 -0.3482127286630648 0.24184901909414477 0.09957368323028014
Ni 6.110967303894862 5.8688310715103205 4.945088442948376 -0.588103081368942 -1.085545722836834 -0.8398145950794633
Ni 5.56206248582339 2.9593534247322153 9.016619272345848 -0.8914138073129938 0.2545836930519938 0.26767215080483575
P 0.2291952944933293 5.565046352162197 12.394164277067553 -0.052604513569593274 0.7810173224355969 0.6658498985321177
P 3.8725792807527486 6.3665942289384905 12.631422340089106 -0.33158489029839666 -0.17965686183611643 0.3065996811079688
P 2.274501847860879 8.553533162784213 1.3583545154340784 0.9885246308250782 -0.34406965302896875 -0.5855615458940109
P 6.406668458070582 7.711169611300729 5.990090878509811 -0.7837223800715858 1.0161495916311982 -0.8738140919533597
P 4.739220653811067 1.1345473601870968 12.572478321070786 0.31943488519942403 -1.0823446994010326 0.728601527838042
P 4.111415176126186 6.106726596886072 8.225655079053109 -0.6593714898966258 -0.5152778698770996 0.2639563925161454
P 4.557448941662502 1.0428160753168192 3.79555122331742 0.9964300017150838 0.2073376155808365 -0.3985531287888297
P 0.3689695400241537 5.645945298020686 3.701524169770103 -0.8838113123753876 -0.3772556528626342 -0.3024951720212919
Ni 1.3657065812525133 0.9395471739364898 2.6143587986394117 -0.9264330037006561 1.6148903552196447 -0.3652437160034226
Ni 2.100027045213577 6.465857515809453 4.789073826717156 -0.23582235328409062 0.012757299665668353 0.12485071262951401
Ni 6.011649764908649 5.640999313513634 9.304033415916976 -0.35242573830314783 -0.2038198322355651 -0.35414117833235786
Ni 8.581798514829998 2.392265106032441 10.245798597165312 0.45269207672507844 -0.12393771389694137 0.37966734762792037
Ni 2.3578511809248734 4.8991920576479275 7.155839534379694 0.3480708037685618 1.4758826343634583 0.33440384780443055
Ni 0.5711689819685721 -0.039274010432139114 9.157521057671973 -0.43232893968769415 -0.3563962929151217 -0.06791157624030884
Ni 1.347523080624211 1.007163393577686 11.387765838314907 0.13285044300553894 1.540260743529212 -0.47657968197595346
Ni 3.938540810878789 6.663488929649735 1.6607368176029635 0.8596761098900807 0.9179632756667482 -0.025974569686890752
Ni 5.488713626004001 7.844467058472502 7.939141520595148 1.654230547580164 0.6361374590693496 1.1091075693171737
Ni 5.1923252783684335 2.8331991727351613 5.200939610068376 0.6110146958597928 -1.0588021361944024 -1.0017259600067006
Ni 0.8005794765190639 7.322923390525965 6.764128411844231 0.7337835862596137 -0.482655198746072 0.6311695735411129
Ni 4.990480283576989 4.538569205555144 6.852279961309861 -0.4124013475258317 0.09450655312001788 1.1985305372666972
Ni 8.13196710122611 6.973747734751147 9.303279311514986 0.7031972288323244 1.0051149310835916 -0.4843292440143852
Ni 4.607659274327327 0.5298053608973476 10.387903875248087 0.20002359841792647 -0.9562390313184952 -0.417882425245061
Ni 8.02355329091614 7.320482045339668 4.619799089316665 0.703278218581905 -0.6440747116385552 -0.13700071772848663
Ni 7.4696120681455325 6.176485775079684 7.12607591975106 -0.06477303061132715 -0.2614192279165885 -0.17847903947793134
Ni 2.417257247124748 5.107140415405113 2.766389501207364 -0.8577048450963228 -0.3352299432501517 -1.0083000136797926
Ni 2.3494330610417555 5.250917562839543 11.357711070667758 -0.00491800612690766 -0.08184387005068484 0.8021312215960766
Ni 0.8895565623384312 3.3138277037632156 3.7656691582371544 -0.11526615426487245 0.02823714046882234 0.06261638927964054
Ni 3.4237876993578387 2.578259441151378 2.683268027027424 -0.004833673943217482 -0.0003550693465735821 -0.02661734547721222
Ni 1.0350941909127562 3.2323229426177567 8.38514996847768 0.41258903805660563 -0.04741936982422801 -0.5319764135787031
Ni 3.4232994303205793 2.54463217171495 7.159491605938009 0.5027445132967793 0.7951313932394758 -0.9955573693021434
Ni 4.128757768968097 6.794806174614845 6.103201113596677 0.13725499983113781 0.22014376620656925 -0.15359050376636774
Ni 0.8144942398790314 7.326684870516703 11.12636920081433 -0.5129384231106456 0.17119536133232452 0.9078891792601977
P 0.41031507705696124 5.520071348619095 8.263292484008508 -0.19903732324525722 0.16322854107676407 -1.7172207752594555
P 8.650780079371678 1.575499510928234 8.030018334650222 -0.7195304187747092 0.4115783374039041 0.11990673836067736
P 1.893190855819038 3.232133060214378 10.482844172735465 -0.3251990413767109 -0.7374245254463105 0.25670048228468045
P 4.13364045934069 6.019254103063001 3.8078854417197414 0.47702216883001075 0.38155916533399453 0.0690127797242876
P 6.8071666148728704 3.8959438583875245 10.521619063707293 0.2764720084846529 0.784448973824965 -1.0579112489490168
P 6.297811588819398 7.8370887707983625 10.152975940576566 0.020244866291965133 0.2882422616467036 0.03059355651614086
P 2.5964791098565145 8.370007298909199 5.777686613686675 -1.1478903465123262 0.5655280242819035 0.5061288563879799
P 6.84091143055901 4.18484541411845 1.4848053456611714 -0.0067260058699239005 -0.23758998670747467 1.0864494655980257
Ni 5.341328712905379 2.9843726918821476 0.34710593757799 -0.1360398964771141 0.23794994115005472 0.12273752294125316
Ni 1.5430929140849539 0.8471956065485086 7.024175075876977 -0.2106116583464179 0.308571717232675 -0.13151526913388317
Ni 6.896926739555695 0.8483204337380464 9.254988599528128 -0.11653473656465092 -1.2089442764008533 -0.851050830114915
Ni 2.7808820495947546 1.5866935307083623 9.18028343682746 -0.3347985121396879 -0.27534303708653224 0.9641870825209782
Ni 6.35891755463047 1.9479945342417833 2.5538667859325956 -0.612402577346255 0.2891897131616374 1.2590805309356121
Ni 4.2159047500996625 7.101827936839614 10.54154948244668 -0.5782873808301008 -0.5164016990688978 -1.227572175914686
Ni 8.000857822702795 7.262784920770201 0.18655855711754737 -0.005231166491952282 -0.22415957223418168 0.8466971811319096
Ni 7.711748300530074 3.9666795746556542 8.196289313269647 0.18050044078333427 -0.3430160149534737 0.2211727216917159
Ni 2.9573099283910933 8.57918537127874 12.31865166205157 1.0105168188254532 -0.5403353270663598 1.0723770466653597
Ni 0.0907574594015218 4.772314444114193 10.261070567608474 -0.16509747596470276 -0.00944957544867405 0.7153775729486003
Ni 8.728496234468775 1.8810474240220163 5.69870638430423 1.282743935990823 1.3580356067452868 -0.18254498201718883
Ni 3.9196068226561804 2.6687429273708823 11.35641444511326 -0.7547959268452226 1.0205263805426552 -0.5706308927261076
Ni 0.9169059578383946 3.4844596482469035 12.645145412641853 0.4361310870426037 -0.4464414678296763 -0.42640203268029786
Ni 3.2591415715901806 8.320167689031921 8.184114234405397 -0.5774224617266442 0.678508982057025 -0.9665213870811097
Ni 5.563427830723874 7.87917937021395 3.5824326389768117 -0.3743042835437941 0.2480885722459534 -0.3626319894121883
Ni 3.0243293747645286 8.30686687877621 3.422804831869874 0.3946625354851719 0.042702681074849036 0.5596260569751716
Ni 3.4996773665748164 4.2430760178212195 9.3414854594786 0.4214901972009773 -0.04710723790044791 -0.23265064042432837
Ni 7.377953119428923 6.249644752495694 11.423642762130411 -0.6062370719654914 -0.6531820732564622 -0.31867718109779314
Ni 0.5164159388533943 8.91674203237063 0.16658835349364443 0.6581787551401052 0.08891723195769848 0.5367864333728368
Ni 4.457588881523779 0.3108166976865782 1.5756025899472108 -0.20840050962771206 0.02030040212024891 -0.2003115619719905
Ni 5.984234362668463 5.802363188308605 0.25980705052372116 -0.40985441273426193 -0.011734257717792693 0.9744954064255218
Ni 7.87023681321674 8.879814425923096 11.33813871588903 0.631605375526951 -0.1274056178408838 0.2824192272070233
Ni 0.30099344801845895 5.07046598549542 5.835386450861904 -1.1638923783675375 -0.9715499506439526 -0.21820412598169514
Ni 7.87404350330352 8.704507757508612 2.359287957777105 -0.18469005338464967 0.932937123367761 0.8047146660525367
P 8.322970714986559 1.651000371319246 3.486341292444193 0.8041695921823441 -0.1414386988951822 -0.1711750496173504
P 1.7067534617588846 3.310030055695644 1.5662332496433582 -0.14590779041012938 0.011833245189502201 -0.15126674072919755
P 4.857372718808595 1.161148980698517 8.013052794009305 -0.06453983155459853 -1.0491016210771869 0.6057791584924664
P 8.631412074227063 1.6062242921987318 12.598429820401114 -1.4342955549502912 0.2369693224043403 -1.3742973200197879
P 6.087168709338077 7.822983220833096 1.3075998532129012 0.7343443438590901 -0.4407238486196087 0.7250858013752997
P 1.6664622241657885 3.2401442892331134 5.992988845666137 -0.3132598667369637 -1.1744878944951966 -0.6057058820523696
P 6.955383393738676 4.184040674408894 6.105053823332499 0.43350084850860826 -1.0271048050911216 -0.5198336075685822
P 2.4229718032645224 8.499045955033765 10.178464488523419 0.38047313135866734 0.5245592951790257 0.16446755569018773
