# total energy = -381162.7575672776 ev
CRYSTAL
PRIMVEC
9.25659128147990 0.00000000000000 0.00000000000000

0.00000000000000 9.25659128147990 0.00000000000000

0.00000000000000 0.00000000000000 13.54795701103988

PRIMCOORD
 96 1
Ni 2.1565635544383914 8.597179265292835 4.353323855473637 -0.5071961213102297 1.262712728371561 -2.1444782139615133
Ni 3.495168441512125 8.039321549597725 9.071983143528968 -0.26567440364851663 -1.7940463661599424 2.458653650534211
Ni 8.368772881348708 8.173958666293464 7.57109910759196 -0.3731431733561574 0.19397225001752402 0.07104240855980667
Ni 7.1495780187077695 7.299183043117294 10.037925080552714 -1.0703754428542984 -0.04172283366008298 -0.42197999235320227
Ni 6.20029609424016 7.594357218242335 7.685972476755413 -2.3275037351595462 -0.21290096860122687 0.883130227147963
Ni 0.2032599287213274 2.5438870933795936 5.926160299233791 -0.7845531035029972 -1.749636729696316 1.8847844533764635
Ni 0.49651150988708936 2.8078110171491986 3.8103488868547317 0.8651224777166328 1.8606021997033053 -1.0013994299052174
Ni 6.902639939498955 4.718093710342707 10.179202875661481 -0.937383846285205 0.6146355804418318 0.5433795132093222
Ni 1.6923455137170924 1.2689953224431423 12.393820066474504 0.27594647499848607 1.2722288953921121 0.3774448860553048
Ni 6.712916849516427 3.0871008820473644 0.3861599854473109 1.4926904499494162 -0.8857527523724746 0.9183201447855346
Ni 4.194096604676679 3.9331440466313325 9.160653880431807 0.8625079229119211 0.8154582777222859 -0.19931885904141802
Ni 3.5667774298076385 0.6963113248771782 1.1605108524163943 0.5257687421060945 0.5570058457435052 0.7192792219958516
Ni 6.872620814752012 8.062583362884517 5.392547446794059 -0.33897706899740976 0.14330017758395322 0.8101000987341662
Ni 5.061161487515444 7.000898653402376 0.8772980442349244 0.7317940666334106 -0.7637621348995749 0.24488574903793953
Ni 9.116807259987368 0.6115348358254131 4.3119755889512446 -0.16423307108187843 -0.8213921267082177 0.8560169158709385
Ni 3.5472830490746556 6.4834274444204665 7.496138307680391 0.6478496052999552 1.7018895442190238 0.6173416665190853
Ni 6.235332291331488 0.6675853458987054 8.166491374300445 0.22667925333224187 0.5204974664048261 0.19563626798350822
Ni 5.13392754969112 4.665544043001235 0.6071759071040639 -1.0546176657994095 -0.3487444327968187 1.3638313874914576
Ni 9.247806536403877 6.532274475345417 10.985631533225092 -2.5708339667849076 -0.23833097863855723 2.6173367383321375
Ni 6.862290459149919 3.892229914228778 6.50501103775147 -0.779360246448148 -3.3510290504295255 -0.33972885956176974
Ni 8.96617475397226 4.779427882582374 0.6648065172681066 0.6768326227958665 0.6734513650284595 1.284995193918845
Ni 7.266340658102754 6.154531508131963 1.5246873597997168 -0.062469322178815 -0.36827067575520445 -1.716326031359328
Ni 3.4176259783591374 3.592279338126425 2.2863529944058003 0.09439188191902452 -0.5079769653403122 0.8418735344910212
Ni 0.7804787302384255 4.014083678696478 12.324224386730474 0.15185938000787394 -0.5703329018697145 -0.32214379949015487
P 4.274351249004768 8.090371649190507 5.00376136646833 0.5821543199846748 0.35554140111399407 -0.20954207943132297
Ni 1.028740501966147 2.2584878783941686 10.312650520408413 -0.5736671084492702 -1.8126251576033945 1.3011522632946817
P 2.825037533077062 4.52069690638694 4.250725651690053 1.9814054817363231 0.18684386650285886 -0.9875859210608927
Ni 8.213650928678566 2.961859205258548 9.431179604932069 0.3029458864054653 1.9121461332188678 0.12742258712174828
P 8.773748739405672 6.839648837462894 13.288513096594244 -0.9314201725026023 -1.345467283161973 -1.2388829729418147
P 0.5401174589644552 8.934517212611008 10.153448262407267 1.187808779973819 0.025594817749968822 0.2550410923043866
P 5.825728137753872 9.073356821639496 10.295864618214114 -0.30568256861033805 -0.7089809253936371 1.1379085527092663
Ni 2.7017397404069183 2.6378229792667276 5.285558841879586 -0.8797798226184912 -0.7866554945579807 -0.621682202875968
Ni 2.0807520738101277 0.7583665855589631 8.828065489976929 -1.753028528986684 -1.0269605662037733 -0.7697885435993129
Ni 1.0313786304129182 4.480116011261872 10.12043185348115 0.2613204975551951 1.7824895145602786 -1.0742899474173564
Ni 3.1209614920764475 7.89461326184905 0.42909945996970295 -0.10702833973611244 0.7506957886339202 -2.712301976256129
Ni 2.463974942920033 8.619978249027563 11.484887622355929 0.3027887920023108 -0.35994981459433495 -0.9236670109197447
Ni 3.2786567770560695 2.7415615950665995 10.837837098023249 -0.6646247678757651 0.601557664211951 1.0095927643492872
Ni 5.5187332958690885 3.1924223749153 11.955109488026615 -0.6822666493272443 1.654680747743705 0.5770542797539482
Ni -0.1392570812844525 9.17859500518806 12.554566323861339 2.910762858172626 1.2835654034508541 -0.4916394045225532
Ni 2.50255641438018 5.444449152762639 0.883898919306477 0.3350689921922552 -0.5126463457915237 0.0712241855533096
Ni 1.9489659871551097 6.520055775170899 12.351698874600162 -0.39336155728556127 -0.7911199580872375 0.11266342653470274
Ni 8.89288106610723 7.363997693588492 2.961597243732079 -0.9868688403892102 -0.38079451925382807 0.5106203165004303
Ni 1.2375691958579218 7.752367227317361 7.031172334402955 1.415528301645117 -0.3414576693274184 2.4426027677189355
Ni 4.105474002047253 1.3219615363814727 12.598123213006186 0.30832411999824316 0.8755051065025374 -0.9037790137465661
Ni 8.005692354344674 8.513379346595928 0.9985288401255453 -0.7476606013520221 1.0899276539546132 0.9505129274679952
Ni 1.802341585060885 0.47989222633153567 6.147873242195954 -0.07491346147943873 2.070039635235964 1.4351512180823671
Ni 4.872327030272882 3.3318081228152265 4.838205384376435 0.664672847504881 0.31728338607406004 -0.4472487942223201
Ni 9.15008470478085 4.4713592761368 7.062685472943963 -4.373811831106526 -1.4946704564939226 1.3723923896875911
Ni 7.828669307270815 0.41280693407790714 10.3593092932112 1.1100421653163013 0.38629025226107666 0.027936578509268017
Ni 5.791015921348989 2.2463247177658974 2.6586105057681793 -0.4854358468150027 0.8897988974173902 -0.8290689265271851
Ni 5.567691405886535 5.887830607049967 12.309822056729312 -1.7383323604270902 1.700010839139072 -1.5623570612076187
Ni 7.06782380663099 5.911296065339667 6.607649970535635 1.4063882870170619 2.329955539134149 -0.03250260061339563
Ni -0.08769694352529582 7.510909050004996 5.2895965668918015 0.5411349401495197 0.8038147799460866 -0.09723115114003254
Ni 2.7452272051189555 7.31586342017372 2.4448239817146833 0.22371142895316956 -0.26125364887300173 2.3208995995794677
Ni 4.423243515904113 5.626044955810904 2.9616648168466804 -1.7033874689207888 0.2392892287867685 -0.5163811302436074
Ni 3.9402716217331353 1.1333122109597364 3.8222306471153473 0.3609180920448752 -0.7005135113525742 0.22449535830704562
P 6.150430838300665 4.490039076858148 3.121055909305069 -0.16752716845211793 -0.8906411908130274 0.45747072906064445
Ni 8.401180206584305 5.8383356147521255 8.701987943017082 -0.21106597227501714 0.571043554783494 0.19171559277286337
P 1.0901857532983101 3.3752678177541395 1.3114516029131782 0.9394476707927691 0.11556543067284615 1.936701453960729
Ni 3.377859663245704 4.4992123585800785 6.991761472385507 0.44147255386017514 -2.976003572448991 -0.8536085635397621
P 1.2463444441650762 5.532720004932496 8.10387331288335 2.098014266072019 -0.7321370517951261 -0.9272436725274096
P 0.7778128320185305 9.049937646305002 2.4434419726722165 0.35002947015682945 0.7603189135459809 -0.3075255353563478
P 3.732979521954217 4.548587015194384 12.361602501355252 -0.13229019962669475 0.7404530278599893 -0.6275612873645644
Ni 3.6008879677948364 6.03812987578759 10.76134525795345 0.35266973599315393 0.04300684257882916 -0.839744146852844
Ni 2.4357886231992687 6.730735787270934 5.440304051294344 1.5199929944191115 -1.5143910748513016 -0.8591647174713009
Ni 7.317113059964296 2.676413707317916 4.492814202852331 0.29267947148245077 0.11572381062758134 0.5037870956286807
Ni 6.699420739778209 0.4552946869574837 3.7897696336517086 0.4612073132849412 -0.33382149293839924 -0.16723303425046682
Ni 1.403854597323872 6.966630753367475 9.494380831584767 2.012551568321824 1.9673024666760377 -0.27445523516494025
Ni 7.54675982710796 5.134501458335681 12.507690021169081 1.3311439245607655 -0.3250486318417757 -0.567312369875836
Ni 1.0103939385222862 7.3815481902028 0.9315388907596421 -0.05617783274314841 0.6306682084246623 1.0114866389378903
Ni 1.4468236929375964 4.65625968218681 5.785925721935377 0.7364230807649897 0.2743770736288372 -1.4832946105568132
Ni 5.475625351389745 1.0099033391970973 5.8766569760040115 0.36103122058397175 0.696911910044245 -0.4895259577239763
Ni 1.6578554554972011 3.0871471650025715 8.303989703287051 -0.3969824418676002 0.7288820351929383 -1.1077094034180666
Ni 6.163223447119745 2.1455111847350765 10.137434359905814 -0.7300454593734201 -0.01926656153909585 -1.244413672952057
Ni 8.186760531703584 4.311627541128091 2.8317124608769446 0.43822962144284533 -1.1290940397414295 -1.2391819922394722
Ni 6.336340212774176 6.831715938940498 3.3901320516482625 0.905870349057956 0.5689635323260136 1.463837530273466
Ni 9.026722115973417 2.2338283198601396 13.71581585224283 -0.6263981202943987 -0.8727679100770324 -1.6142239252802395
Ni 2.7730895441532746 3.1192675359158892 0.04258309576730192 0.5025964177546892 -1.0644565062667024 -0.45859815779686824
Ni 7.43600471529878 8.015272926072422 12.218889008975976 -3.6848294603220024 -2.488268130966534 -0.6134035078069436
Ni 4.879112111506156 8.530948356392319 12.602187782132422 1.1932687746471256 -1.4326683037595134 -1.2651236518058988
Ni 8.74160059871923 1.1566017940196525 8.401981827368482 1.6874432868867069 -0.9238680711869572 -2.1182069389698097
Ni 4.0850447056191 8.79456681265756 7.155529081088223 -0.21265054315331763 1.137242636990493 -1.9081557811125527
Ni 5.06716901510125 5.769105570354227 5.282171855217573 -0.5374433502305453 0.6784375053891413 0.6679736297433398
Ni 4.050897141267736 0.7389703246910186 9.782356155856988 1.1131555141343021 1.7732314862971206 0.8103988609215076
Ni 6.747851224106301 0.9764685323559142 12.370693399416913 -0.2793845541457576 1.2657692558096973 0.8858481402997582
Ni 8.295210752343479 1.7371103879928294 2.324070825921794 -0.32054174511035766 -0.4902085856132977 -0.280117318546724
Ni 5.156596941151269 8.59984516351273 2.4916725146338172 -0.7308409586915219 0.7347714040941797 -0.039081796492810114
Ni 2.0004048635716254 1.6776553037345463 2.4614330830200917 -1.0570555858169408 -0.6638349249846179 -0.007940595003315357
P 5.456195766794052 2.808042431925231 7.795168778633237 1.030385532724922 -0.0732018781049707 0.3126474299639454
Ni 8.36474626424574 5.588898255962158 4.607348780783673 -1.968281285649539 -0.829916619239461 1.8438841156176762
P 5.484520935380436 6.052542388038896 9.148325026823898 -1.1599071684675444 -0.06491649816772692 0.1648064270868452
Ni 3.534333078207874 2.1089939330771403 7.377526201395353 0.2774163746757932 -1.5116878169875256 0.08078149022444152
P 5.740882224269297 1.0578802505641658 0.8024131483698949 -0.016833526617571006 -0.40455408356727096 -0.16937244919097283
P 7.773083478067795 0.9519015397322985 6.342719855319842 0.12301931584773008 -0.4879727543042434 -0.4132274429715529
P 7.9125062523318865 3.121220676625604 11.643872350467605 -0.028552871937028244 -0.4889289475699257 0.2629040399922311
Ni 1.03594212979628 5.534756454961582 3.5919970120996654 1.3399319551660407 0.22119586162016744 -1.720215082001089
