# total energy = -340859.437057617 ev
CRYSTAL
PRIMVEC
9.31438985797034 0.00000000000000 0.00000000000000
0.00000000000000 9.31438985797034 0.00000000000000
0.00000000000000 0.00000000000000 13.63255107009043
PRIMCOORD
 96 1
Ni 1.4861947368904804 7.4611336789249885 3.6265856478952565 0.759051359687467 0.031970639369325586 0.035422859583984154
Ni 0.32278738741480284 3.7501503442119115 5.235240394461116 -2.4352090463580254 0.7647718071110119 0.6738719975056459
Ni 5.641884302640974 6.859386834296528 12.016262472273329 0.07450799851090395 0.6782354166806642 0.04374269230358919
Ni 3.496109674278213 4.4425448312762 7.997713326108112 0.047056072947538316 0.9544683125713175 -0.7519281183791243
Ni 5.132079800643426 4.071170791864067 6.144136697313514 0.8516635239982493 2.515932686761338 0.7950869131547855
Ni 3.6682489138853365 7.450701562245156 1.7972879077949893 -1.8908957084805238 1.4358312748685271 -0.13718352316325408
Ni 8.029749238705088 6.959870472459054 8.693436776120054 0.03500222710679778 0.42649484950442035 -0.3225572328784896
Ni 8.189779771451693 1.120288244345368 6.213799019321072 0.31461175277916786 0.09767492354567049 1.4669112841027834
Ni 3.145357694088535 0.9114950176324629 9.653264162905774 -0.7377168598757488 -0.26878003915703386 -0.5198027543306467
Ni 1.815803052023713 3.083966550305701 1.8338645854646616 0.5950034080332011 -0.15636549540834363 -0.8231674734410857
Ni 9.231557023391431 4.994115057552646 1.4380840502166687 -0.004699976578830615 -1.1021532494865276 0.6765672849496219
Ni 2.3460992117852166 3.124744949255974 4.5137514791279685 1.0576865345327204 -0.19091855079286477 0.2263640360846682
Ni 7.430722195925299 1.7245686030246452 0.3986502987739359 -0.44110231500494995 -0.5332426818856365 -1.6360291940807887
Ni 5.064494587581942 3.1057901658243146 11.785122161329843 -0.7612663650609147 1.4588398199485584 2.0666241817965116
Ni 7.990945490412071 7.044668678042261 10.93256953437742 0.44611519483850914 1.7019957307795848 3.052873386323852
Ni 6.812330536558571 4.959884674696947 8.019784704397871 -1.7314163500335473 0.8802148532733809 0.16279685285598416
Ni 5.248807734778834 5.8093197753522805 2.1618773456092732 1.126957453014401 0.21059803149966314 0.2157826610243961
Ni 6.696878673838464 2.635143358935709 7.130274441229165 0.06520986103842963 -0.6879282184883958 0.8665293853664883
Ni 0.8513603850461555 5.631098239145218 8.953613766115067 1.5229039974183192 0.4553639671302867 0.47784954982731254
Ni 8.627584039578613 3.675886713597356 8.330701833333407 1.625050583582098 1.3046391934020176 -1.9079858311935913
Ni 1.2220758970928727 7.957301914119612 6.016699077679472 0.996204001747207 -0.17285886507767648 1.098028942905509
Ni 8.042677611876167 5.847899978287874 5.496576094558783 0.7520407326975888 -0.7098610140057452 -0.018111364888730098
Ni 2.9252214033642914 9.039792364280375 7.268740298496173 0.34798030093728455 -0.06931359879415805 1.5001394500282939
Ni 8.310363863002681 2.778286902806834 10.372326679671874 0.03892933007534585 -1.0737281613766152 0.6879855540888925
P 3.852711091320511 7.572654869110373 13.16250060685978 -0.60373076060387 -1.4361128106646879 -0.12221070390350564
P 4.660985903039971 6.150552449071611 6.724501428504277 -0.1157073555673491 -1.3633547049653552 -0.4849771620110292
P 3.7734363189436797 6.595407710347311 3.8759113736652666 -0.4184632374491954 0.4168118178887016 -0.19758182174565325
P 1.5349089960293394 7.881864670378577 9.61127582470844 0.77312994926772 0.676751633046286 0.28483529284768366
P 0.111757775688659 5.703182302524881 3.775384889309234 -0.6438253146319105 0.5329719447227531 -0.7585659354106161
P 1.9517465725077756 3.7082542184745138 6.766230826662595 0.05842163447200261 0.8913742123243101 -1.4252869236937777
P 0.7061863041784199 1.6206013830422465 4.628701296232858 -1.9948868040522094 0.5717120416054283 -1.1676351332394215
P 3.274520338730707 1.7198462073490426 11.938502219693053 -0.9411587399466049 -0.39126713665037777 -0.20944103507708448
Ni 2.050153101724228 3.0010405370909283 9.441631910153573 -0.347247279426002 1.6143403962534457 1.1251669367728816
Ni 6.0250224164875945 7.173346974410012 5.1976009449046865 -1.9090309846286544 -0.6030442760598066 -1.0399199545779187
Ni 1.9989332717042305 5.061653698664666 2.9861281988727044 -0.48579143038220846 0.9375635663961788 1.6091290272558352
Ni 2.4722998804415073 6.535255380420207 11.483570651431421 -0.6642005358541528 -0.839786055834373 0.8230977965454146
Ni 1.720405070742605 1.8652531479640957 7.561281067612388 -1.85757215462773 -2.7449621854933115 0.057453099911146215
Ni 4.2853179298873005 4.526923889314235 4.116758210315945 0.09821382676827602 1.2278951064717434 -0.49766555611197516
Ni 7.3808808956094225 8.441221726605326 13.157906749764697 0.4987893853037733 1.0051087604360045 -0.7070070894967179
Ni 5.160777435902858 1.4411782905390262 10.567613109601362 1.0384150878976182 -3.032309446129571 -0.5978601607557058
Ni 7.732517742838908 1.6680395707658044 4.0099333355144635 0.495465720247179 0.8600311792366544 -1.3250532382819953
Ni 7.7609638895712365 7.432911077550085 3.6044602461441193 -0.9499732529144413 -0.2477065063161863 0.6075717316165149
Ni 3.9926784282382233 8.042062862143249 10.328606796393483 -0.029575913884903902 -0.3508614791398215 -0.4634691127359244
Ni 7.272293738240241 0.19449470678860992 8.574642910306444 -0.763746451170291 -0.39376213515808955 -1.2452685647531845
Ni 4.868314907661741 0.07528914494174219 12.708645782069748 0.5757034221530084 0.09308190485834937 -2.05781403970405
Ni 2.7695500050874746 1.1076393028710712 3.0901997400219012 -0.41506423906997547 -1.4207448128490499 -1.142457348422213
Ni 6.792360484628606 4.4259931604368585 3.2530534643449847 1.6006145620269208 0.40317211561807986 1.2795202868472029
Ni 2.0111910088030336 5.645498285919344 5.592276793511404 0.5002628845255062 -0.21864532728417183 -0.328108501714022
Ni 4.126265408079431 2.759388005714531 0.4602621935972267 -0.5575203234860785 1.1058016448723924 -0.6441317901287359
Ni 7.300208964748685 3.7587009541334164 12.418627349736479 0.1899603006446535 0.11596652276600673 0.8012097382230718
Ni 5.0594275594803095 3.104476836849443 8.894653678094231 0.7826641140104004 0.8311792880019685 0.8942582187403243
Ni 8.688043744372177 0.30925264746170994 10.384623537208226 0.08756354614328145 -1.0752476833449351 0.2625268591584704
Ni 2.4049195839576627 0.7133928476384075 5.25924730297058 -0.47051367828753166 -1.019096332964348 1.3492406341614762
Ni 5.932120691697733 8.150417159765112 1.4923282626348282 1.302432415558686 -1.1274809296180388 0.1164941131347026
Ni 2.37377226415645 8.81222319042175 11.947976817091915 -0.5833331707841245 1.453556460062432 0.2878162298528785
Ni 5.003792708651169 0.2732814051350637 3.2125107194589977 0.02906220747327898 -0.20269420327155413 -0.8661478336573535
P 6.372914878980211 -0.0043572715918084644 4.831989718519173 3.3854643492892595 -0.3529736403868179 -0.4922392428900812
P 7.2023799277055796 1.262099830461836 11.63902223010677 -0.28235957761368147 0.05374891158668162 0.9849536256443682
P 6.406940345258271 4.10902447238803 10.438866818187396 0.8586499826184116 0.07450979828311684 -1.5295924651820882
P 2.803929418181457 5.304107267571837 9.793133698729614 -4.095912603257043 -1.2308719297118802 -1.2941519207174486
P 0.616465443536917 2.4040906032572114 0.0914663773073962 0.3293727131384263 1.3964782269922014 -0.8641086917401377
P 5.729476825191993 7.033388951882191 9.306670126364201 0.653007752462127 -0.8689883884299421 0.3402623634677366
P 0.3796359032469632 6.300681785362267 7.037667982598902 -1.3517019512177755 0.7551139723062738 -0.8011102365307299
P 5.379209193276736 1.0493125933629384 8.431092327597007 -1.822718023063022 -0.29921547282875566 -1.1206525938422958
Ni 1.6739542083476737 6.443573840706289 0.4287283266154662 -0.09388923125099313 1.4061455748786365 -0.25391649178164016
Ni 6.277814958175671 8.646743739587912 10.614209276478622 1.021078139281067 0.9279612674197244 0.45933426463194443
Ni 4.488325057598856 5.204592325958152 10.649967219276723 4.270522132477239 0.5682901604080729 -1.269663448657781
Ni 0.5980425117681312 1.1013334609137084 2.3551732904186915 0.5636937992866421 2.2272104001544224 1.2321322844815426
Ni 9.055822429285723 8.962604015239508 4.784248813124101 0.061111779709656054 0.2873287486934987 -2.1946347802112465
Ni 0.4321196959754009 0.323107802427112 13.647956362238801 0.05782333876637138 -1.4620876374618947 -0.625550941802755
Ni 8.412151515750187 5.1136652518255445 10.132325589623452 -1.7269320890099487 -1.907596823285289 1.093432067563446
Ni 4.5817204450530316 0.37486320986594 5.661898132203434 -0.2768291347137555 -0.07363459476701513 1.535520400630749
Ni 8.133679201127917 0.12273385273822526 1.985431132115762 -3.386220510728994 -1.4968276120462414 0.1691996710585344
Ni 3.2536561053710424 5.077860737077977 1.2286313646993603 1.9372100181660314 -1.0309110662110892 0.2329751136432826
Ni 5.456071538671356 2.336971109690363 4.492634825802211 2.132254161091496 -0.16939070402341794 3.1598839854481517
Ni 2.1067473347123173 4.319091907638257 13.107370595962824 -1.1997345848771275 -2.0794056498318962 -0.7737773530437319
Ni 0.9072513815973454 1.6170619148830179 11.328527043033374 2.24109410011505 1.0736199179335253 1.2989711964829629
Ni 5.454534664339059 7.986595670332177 7.351939223334802 -0.13903780276317343 1.4691612564792247 0.952199828252115
Ni 3.8170090348617642 2.470641919040605 6.817774797450858 -0.02222178751267786 -2.4637135815556217 -0.28337773446555065
Ni 5.850815382324291 2.689753626876651 2.137870437099809 1.3793819336315472 -1.011898015443696 -1.5626180281784894
Ni 3.2244741218371904 0.7118783278418532 0.6398482879235693 -2.456834337937285 -1.5937579441164036 0.368145720141566
Ni 0.21589638044508344 9.062575361957936 8.1068556211149 1.8338452433244352 -1.6064036579048722 -0.5457999497253568
Ni 3.2388275966618525 6.763057414026149 8.226917175392906 -0.8367318423890816 1.5528259817887322 -0.22907217904445068
Ni 4.296690799946296 5.051324040273654 12.738392217631096 -0.8625007238230695 1.0160333777683082 2.610665496959549
Ni 8.989168655213511 7.292710880885055 1.792694050699906 0.9331078446176703 -0.003148315820994578 -1.5337478821113586
Ni 9.262396968326186 5.17744087942091 12.59102459794363 -0.12678829597185906 1.1116064244796275 -0.45758977113701194
Ni 7.80831824778576 7.84248342991221 6.599395200660378 0.491710881190437 1.187814950621406 -0.50832046472266
Ni 6.911538103305796 6.259037148151973 0.28216919597068496 0.4997831166756102 -1.421350564753849 0.43856257930223175
P 8.93113069179205 1.6985162544947427 8.334477886995911 -0.5128350647635619 -0.7673696497451752 0.8057875874017412
P 5.693262477289148 4.298227674278593 0.50170377710786 1.2420212614604802 0.40525959427472785 0.1775542136708168
P 8.267163722680305 3.0270276848915816 1.8201500777866393 0.16078162219816824 0.1303461885264465 1.4942475100238912
P 7.179336127111022 3.9299739554805178 5.46587586547242 0.0702808478034338 -1.360902900990753 -0.44617458732153475
P 0.018477886669152697 7.38493265521275 13.116232306506747 -1.4068336020845964 -0.1623785343716429 -1.0904637289637413
P 4.045109128944272 2.683010008594331 3.198005420079084 -2.5596553244602687 0.40800141868592316 -2.789689867417989
P 1.537721941776937 8.606626662320021 1.7238635037097672 0.8779355703209009 -0.3928429657779299 -0.10636628067208134
P 5.318991662620383 0.7431420775167252 1.0061655450629503 1.2265802443150617 1.48208876317417 1.271261132162204
