# total energy = -340859.0755230892 ev
CRYSTAL
PRIMVEC
9.37926126691035 0.00000000000000 0.00000000000000
0.00000000000000 9.37926126691035 0.00000000000000
0.00000000000000 0.00000000000000 13.72749693438275
PRIMCOORD
 96 1
Ni 7.050822088177436 4.048548716640597 8.740311221461853 1.508991243991969 0.38501832752718856 0.5665451526925082
Ni 0.4849528243646081 7.248677603138743 0.5075821678558216 0.5617017085572779 0.18394777590198644 0.044825126734490545
Ni 5.79190013320391 6.534831412658054 5.912048469143913 -0.5970515488114814 -0.3197220774225397 -0.2117807389538546
Ni 1.4019181711906432 3.8459003992073657 5.234335882426599 -1.5694165391575614 0.38126554535297563 -0.5251349651768376
Ni 9.09891508030879 2.3712085403853034 9.48071760380163 -0.050216987174023196 -0.2906120474304608 -0.9574338229575446
Ni 0.8552516839987107 2.880446147842484 7.386134427692616 -0.7247073349899583 -1.0022170407105062 -0.010949299922652112
Ni 9.001436418683152 7.9954637589450614 11.92163093755453 -0.684303220141299 -0.489247507251609 -0.539420014340942
Ni 7.706460583666427 1.2070358820289442 11.293392077801801 1.0911201316008177 -1.8084923663819434 0.4849825613276679
Ni 1.6277520223040998 5.109052400980966 1.5437119661222412 -1.5132613321222323 -0.1927967416521841 0.28631907648206173
Ni 7.349551557317879 7.811198793458934 4.402669288635128 0.06552944916137747 0.054875054771324844 -0.43536181297674703
Ni 7.8694533847566195 6.765007861705954 1.9040172229504049 0.11911252459415615 -0.8239732571718326 3.736096486027095
Ni 4.1154603660235765 2.8951715879225626 5.934520241047008 1.158822677154114 -0.837666695498525 -1.1361054380622562
Ni 6.062745058804179 1.6388945846067322 3.359282755980201 -1.1834209353187684 -2.0151159866148904 -1.3108072698859425
Ni 2.592258968288034 3.4558825808316347 13.103596054402551 -0.46477034804585116 1.9911098535082807 1.0306364723934636
Ni 7.834918945027416 5.556227437094274 6.035527380735148 1.7175179947849002 -1.1263568433159246 -0.4668789097484217
Ni 2.7114693781082857 6.155665399487832 4.946868092205998 0.026899909714637543 -0.710114524777448 -0.6663818597761878
Ni 2.461399516060484 1.4167561624050917 12.489550830620002 1.5970175887042817 -2.501838413451801 0.1274423846160902
Ni 2.5049849428452764 4.45027185299081 9.421853360526107 -1.2142350924861476 -1.5992336225189943 1.8331803560469266
Ni 1.0160835033089983 9.242896118951647 6.782687769063245 0.6594064568996192 1.0743840497930592 0.06787249547225731
Ni 3.855148350748103 5.208116157748982 1.229272234475982 0.7648705374724054 0.21334499811718094 -0.08350428847224328
Ni 5.440243493125963 7.062621198763894 1.9599298127270746 0.19395476651602725 0.5467556287704066 0.9687034823340929
Ni 4.932318982236432 3.5771376695929424 2.3880490038654183 0.8642637292607632 -0.6510593704865045 2.572521124679344
Ni 6.505314877669515 6.225071932349349 8.397974753235864 0.13887119527832212 1.1236091053674584 1.767550633862259
Ni 5.751831929368181 8.954230597076123 11.331829228115286 -0.0355357310127646 1.60666745308922 -1.0906221089184767
P 2.9732539373917675 7.450772544161322 6.4519093644109375 0.8806714811948252 2.064030195817091 2.121761489090288
P 7.6907221833770185 3.282188042715093 10.980405193715034 -0.35866580567558876 1.0607929413721862 -0.9640616126867075
P 4.561153478867681 4.833292742513205 4.730509170754258 0.978367230676102 -0.33510164520240354 1.0020697164993644
P 7.7077736802340775 6.4612135915188595 13.730928877523601 0.25759316930227893 -0.4830015263418972 -3.217837936255116
P 7.030769227737177 2.8589207433942168 0.9755772879753458 -3.127945227758026 1.5567566843017062 1.1755124791049691
P 4.420352009770778 5.266811574322951 12.783003527410731 0.1298723342138215 0.4598114613786791 -0.2103892579229667
P 7.2433408035173645 7.668587126950913 10.451498337600572 0.9648871939117963 -0.7413405726712653 -0.8818914696448554
P 4.13906796645769 1.3003689102052878 0.2937481435184494 -1.4980537711438588 2.150794385987528 -2.282928776762649
Ni 8.885330544319272 5.861831904692487 9.70413254345225 -0.3685059316944621 -0.92123397599822 -0.04741885560359576
Ni 3.3141244270925876 7.411614128661751 0.8910176207231456 -1.4888433082891843 1.6595781850453226 -0.30439136060274025
Ni 6.7355288437622045 9.126471349707053 8.668172509813505 0.3966967923063813 -3.0736545847352614 -0.47188613315502603
Ni 4.457240644060555 0.6000129111049655 8.031559845663647 -0.031245331167526837 2.1277490741322906 0.37448271810318734
Ni 8.981871279825162 8.706608722200869 2.357670514772829 0.5163736740444397 0.759295614487789 0.6585644206142981
Ni 6.918602643076248 4.519190664270056 12.698154040987527 -1.0305135736623543 1.0738762569187055 -0.9173163861113685
Ni 4.970098646339971 3.397159026474074 0.08349324525404422 -0.5985525588370402 -1.3095438297924866 -0.4262284832169111
Ni 2.128023056056468 5.997193402294837 13.004140244516478 1.1429759399298443 0.43323191111793774 -0.057852392232093916
Ni 8.690485772202363 4.22622006150488 2.2831297743318006 -0.05193731229923958 -0.6400123686437236 -0.7318922827741717
Ni 1.5917544178280865 6.815805940351625 10.627183154943225 0.5855422626203013 -2.0824976584936588 0.7667122186668344
Ni 9.25542681191151 4.955954720454137 13.326475438238795 0.5634516013688489 -0.07353843550878301 0.3523774015637157
Ni 4.054073101485925 7.823194868530539 9.779565251633162 -0.3297136414176128 0.17589816612463255 1.1884456422268694
Ni 4.610807287647257 8.165462868149787 4.529168322331959 0.29752574383115854 -0.748354284984937 1.35303918197196
Ni 4.902267829359635 3.0676749598670217 11.402814290636341 0.03862156902693994 0.06270457811807266 0.2223315178865074
Ni 2.8280254570096446 4.370726338774795 3.577262413766869 0.4084418486574514 -1.3810210118968667 -1.859262140735643
Ni 5.917047615362181 7.372868400654869 12.871408691753906 2.9876689246020613 -2.702291386097662 1.166124867242482
Ni 7.371789785617156 3.182683460670793 4.129890359375934 0.8544585702448834 1.9768255756751245 0.42368951884514133
Ni 1.6151181574710642 8.97940453413022 10.970273715769494 0.29053851388004803 1.8600825797544094 -0.8749785445751059
Ni 2.2774534454550723 6.466278392565511 8.474491704011207 0.53493729597924 1.5433416964473807 -2.0398947362214677
Ni 8.236707736206013 2.73980412618594 13.058295160744736 1.7571068128211158 -0.3881836126290476 -0.9544546857245628
Ni 8.52261575528947 1.2078800155367193 7.4493497102376605 -0.04713577714553818 -0.5124319157878723 0.4108831111090924
Ni 8.056344543378046 8.814216985919812 0.25516655258252446 -2.434851663018607 -0.23056547576052547 -0.6193460985436237
Ni 6.194420506755911 1.3902878873057407 13.094384681980484 0.24004127646144466 0.2213557842367994 -0.01461517881001354
Ni 6.4813414860486995 5.405962293449093 3.914958961478454 0.14989505719265153 -0.016951540252674032 -1.096167207106422
P 2.749896211234452 1.2951727995018716 6.824666528404906 -0.5445419089485396 0.2688057501886468 -0.36570805723435085
P 9.049870923507052 2.4827560938071964 5.220416120883386 0.3260742448928126 -0.46097848510358674 0.9314158016272281
P 4.673470131707769 1.175540322927732 10.178622801951047 0.09479194557092062 0.06674763783919471 0.00640538930571155
P 1.893766628387655 8.485877189178854 12.985635900099926 -0.29242647493138024 -0.10777395965288537 1.5367064505190504
P 1.020688720556972 0.39805303144363113 8.931960479288774 0.3044291558192112 3.4883593835832896 0.21187381288829318
P 6.017358813869467 2.960648210342325 7.211287178374901 -0.9550671224975809 0.5328459606678501 1.0264088074653612
P 3.955806581919696 1.7271815702588198 3.841036314350341 -0.004497630760037415 -0.3671956975234708 1.9771855301177048
P 0.7344618065927992 5.14898929515993 7.577468542343301 -0.8562570569062028 -0.24179194060396425 0.3156119119089081
Ni 2.7024840458810786 4.091318147701207 7.134262809568774 0.5838563902774461 1.5667613609229016 0.5308626116892341
Ni 8.475016004712147 1.5330214842093282 1.3546335637895561 1.2012060272163312 -0.7457507859238189 2.0195935627702704
Ni 4.777983239231535 3.4839453303345613 9.074767234429702 -1.001810806411023 -1.468351873204052 0.2630971298396437
Ni 8.161598612536416 0.8002019862522115 4.083765966584978 -0.35355316703937173 0.7177686988885961 -0.4231033073243681
Ni 6.023511609215028 5.638877486766663 10.74706511986522 0.585043982827644 0.40502048168072824 0.13093137160595517
Ni 1.7133002636865164 0.2954579828347541 1.38218045392662 -0.5447987621543521 -0.5322962588119672 -0.5982329707140922
Ni 0.8130009260823229 2.002659850890655 3.1983693370974953 0.5187737988455001 0.17929382206974284 0.40673103661393184
Ni 4.808447079601022 7.836532177953386 7.681810947313273 -0.49321806186358286 -1.2345478359015705 -1.8942718240416088
Ni 0.7979228257812184 7.051694359468804 6.357519293497636 -0.4554768385590671 -1.5430694166226007 -0.711046292563098
Ni 2.593243790713771 1.9405972795467832 10.157908703596362 0.30698200414805193 -0.49963065025814607 -1.0970699214263493
Ni 3.563415810460997 9.123151091243136 2.787258498214702 0.8961623777415727 0.5031862288198883 -1.8409656564193007
Ni 0.7278353585567641 2.617873730618412 11.46270650093911 -0.1228287971034788 1.3913966987042359 0.8822177426360226
Ni 0.12202793988398171 8.008294588263244 9.048067291578773 0.1973697057348472 -0.47647735207013425 0.9945417835534356
Ni 1.2339543616657753 7.115707817141756 3.1617855287966385 0.12164197588422922 0.8780044758856234 -0.5421716089441502
Ni 6.711330349872649 1.76120015062216 9.282451277199872 -1.2803129579518273 2.0695567820622744 -0.36618988196677577
Ni 5.2121211022803156 9.107065658289422 0.6209877529209396 1.3160428072532688 -3.1196691037921624 1.0488563378356002
Ni 2.1690854615791326 0.07194456094155983 4.503937171784559 -0.27191575657253814 0.4432779825000301 1.0455432143019672
Ni 6.871715716349936 1.6012837472047485 5.899556231154959 -0.8693997649357479 -0.8808396313415733 -0.24733832434349018
Ni 6.326883812648234 4.895721105043779 1.192474579019822 1.608528160447043 1.8860237251002034 0.9943420088378037
Ni 0.3136528116317885 0.8968412040006747 13.226814222532495 0.6027707106834458 -0.5111440502143842 -1.0393859364513196
Ni 3.2230986971708293 2.078688142157607 1.9601633563308924 -2.094731481555689 1.6706568114569873 -0.5219938484446945
Ni 3.9452830508560983 7.768298052741559 12.344437715150608 -3.234183981713308 0.16079062105923275 -1.4251084891343844
Ni 4.7502862809153115 5.2105829034439255 7.700645441723976 -1.4881264847278177 -0.04567436210866327 -1.3808047821210025
Ni 8.106298488515943 7.281664464770358 7.556904512167777 0.030807986519792104 1.4581759611123146 -1.893095287235004
P 0.17335688471343186 5.416513962296282 3.8219954761932917 -0.3659785372869181 -0.8428137869171034 0.9694460169270724
P 6.743135424593379 8.972923464642745 2.329721254330392 0.14438364045611907 -0.030235144735457607 0.23247683385062545
P 3.395780275078041 6.902629761256902 2.965701756275539 0.7991217453457915 -0.2740153194140442 -0.12994046844759558
P 1.1323019288072471 2.876694443363483 1.2000999183733911 -0.4089439851048505 -0.10056150106484617 -0.4178466869111191
P 1.190912932030438 4.795944524424751 11.558538164298469 -0.34560460161625645 -0.73144079705905 -1.1900998900008406
P 0.08683695187095372 8.638712250392151 4.463042655037329 1.7164610142752954 -1.2510574035208197 1.6676193101822443
P 4.029039853349793 5.668422159538795 10.141860787687436 -0.5055300464617165 0.5578121436948845 -1.3702851135366014
P 6.343616414624578 8.651299218919199 6.170193875082763 0.0938915452438383 0.4818974946444409 0.967316115068263
