# total energy = -340865.8580490908 ev
CRYSTAL
PRIMVEC
9.33378881895834 0.00000000000000 0.00000000000000
0.00000000000000 9.33378881895834 0.00000000000000
0.00000000000000 0.00000000000000 13.66094341037636
PRIMCOORD
 96 1
Ni 2.282382090378141 3.4916957945836264 4.177407270362267 -1.873971936141992 0.6687431609195128 -2.25784869386557
Ni 8.71882297793508 6.777758883708511 7.822775500420602 -1.47005548615872 0.550759093502845 0.18184204241289328
Ni 9.37261756222826 6.980022091338258 1.3896051725292595 -1.9757791366884812 -0.9343075213527264 -0.27675045895702016
Ni 9.154038891426534 4.6907703322561245 12.025851623911736 1.050607773309068 -1.4302555805529624 1.4492022968587945
Ni 8.253066906835663 2.600608292543743 11.917943689282872 -0.36226869253549865 -1.7609583253567223 0.25992978785525556
Ni 4.443396922389435 7.783838666228251 3.9995967231546903 -0.3698529326406598 0.8706909729433455 -0.8258023399607712
Ni 9.13439126558156 7.087351331049123 5.478461853269738 -0.44800444144142193 -0.7522268805664658 0.8662555628798114
Ni 7.674390656414388 8.387165453398495 9.679652551382876 -0.3805052701481834 -0.89417748610106 -0.8408345517035454
Ni 2.6741492160746505 2.766432387917535 9.691497129623862 0.720463986332572 -0.34440466777088424 -0.5697168655522705
Ni 1.0039703462057425 4.5946229717672455 9.079814734540827 0.3989087123560356 1.4345300395586003 -0.9879278777813436
Ni 9.081991374135624 0.6697581636198611 13.21391695745875 -0.2618223768922781 0.2469207771900973 2.5889183350904443
Ni 3.9933496181769983 4.293486937260623 5.312932705628346 1.1309339211636458 1.270902977491837 0.21887749789963595
Ni 1.0099253035877351 8.428252792576444 7.529857867128469 0.6006621489808752 -0.12221224656540244 -0.9231664171342424
Ni 8.891740752948863 0.15829359440860175 11.057850900375248 -0.4171144367307848 0.24309806100989745 0.7395197174124425
Ni 5.44506182271218 0.9503197270338097 0.08347767530029544 0.5030669296332047 2.274698932653689 0.9588235042162196
Ni 4.35943015654554 2.531808933824829 3.0879468839478323 0.3875878880265777 1.2054226364008402 1.1140975663325976
Ni 7.660959334043405 4.754221429878045 5.196049399497092 0.772145988087896 -1.0018794548654295 -0.9885259163766589
Ni 5.28517401714238 6.692662729395617 13.273314390517976 -0.5121992309517759 0.3557044090544197 -0.4966083184920544
Ni 5.728510327063825 0.4849986105017925 2.657353996148071 0.7905692277900901 -0.5544727949090064 0.4776670015028613
Ni 1.4752053514481522 6.085126403386378 7.008925102355621 1.0726650102194235 0.3451155777949798 1.1948785423364066
Ni 5.224065700559457 2.8595089318254185 10.09924836898285 0.5058879440217675 0.3267800127105856 0.17272748170613478
Ni 1.4297591328072092 8.050701027526916 4.152271376585299 1.2475421912787097 -0.9463320566174281 -0.7749117237584913
Ni 5.929494805600573 2.6293003599297067 5.638008042162138 -1.0190698506017868 1.1233568801473364 0.6779222563156195
Ni 1.1401129925595719 4.589274710670252 0.9957799463582528 -0.5784025662517265 0.42003032482599917 0.2959098054942904
P 9.28494528215137 3.3854679419747598 4.299877782588914 -0.3791924648740308 -1.5822453154911136 -0.7866207846653034
P 4.593222903417247 8.98203582773475 8.075051949648985 0.3570863770036108 -0.5308479564012148 -0.16646247463302943
P 4.36715853383753 3.0080935189162323 0.6617497726578712 0.12404518600908314 0.32735928225282335 0.04645289214590065
P 8.308817628532593 6.960719815686281 3.4552212139294722 -0.8219202312975458 0.36157500890258376 -1.3165603703196358
P 4.062139643106912 6.856414723611413 1.711005796333757 0.8844270915825154 0.9625588028889357 -0.027296373822107832
P 1.1765894399715264 0.7242329563604929 1.4929087490444302 0.9254690971254901 -0.30491740830953945 -0.5970620903344427
P 4.878902183339889 4.860383945963912 11.44963296013416 -1.3351908409366295 0.21821106796023063 -0.8423162784553945
P 2.0801935530603948 0.2116445989536349 5.489267580795024 0.691561701475925 0.7200862912781792 1.20030357000672
Ni 8.33516691487956 4.444031620041434 7.287799116718372 -0.6245428122532147 0.09675626838614304 2.535274838733376
Ni 7.568965509659519 1.8947404994196269 4.111342711820351 0.5118798999391443 -0.212703250768124 -0.6324288998695108
Ni 1.0710056188036585 0.4661238223860162 9.398360152290229 -0.7788447402643103 0.7138151135574868 -0.7708540087493498
Ni 6.665296060047651 0.6450105554652921 6.491667050312069 -0.5906523301533569 -1.6268035617174628 1.4048160574339355
Ni 1.488179318158136 8.396965931848483 12.7747444508102 -1.0771009345035902 -0.1234512611788261 0.8613735521971616
Ni 0.9813172403027708 2.5097251890508567 7.835493721311986 0.6889209214189684 -1.0085254994270374 1.3960984750552796
Ni 6.188330108359249 4.8061639656629795 9.210508314876463 -0.16645656109575846 0.7041297679489229 -0.44545133600226505
Ni 3.86421664736216 8.669372563813141 0.23532068813100526 -0.40456153976643877 -0.17416781369708714 0.9600622617193274
Ni 3.809819325070228 5.617083553981964 9.151629840485636 -0.2523308924620751 -0.4806654220095528 -0.4795824733580192
Ni 0.47660846756970304 5.401267684724235 3.674178836564598 1.6294330289205101 0.5319758993580709 0.2541946851436913
Ni 2.8768231104203967 5.28520201850938 2.569992531244881 0.022231043484058487 0.049348725636456946 0.3782568404336389
Ni 2.830826198228454 2.325896214696087 6.018916237736061 -0.17005790529377163 -1.4496974913276581 -0.34863027581645767
Ni 8.333048144776562 3.543731668258561 9.69899682908535 -0.6213140209032719 1.0116789574543543 -0.015691956813960073
Ni 0.11732012745645305 6.7088195181545975 11.252409998564405 -0.3618439462932542 2.5590380025912443 -0.8970902888724808
Ni 3.4351983697666975 0.5440740278405185 2.559828968402794 -1.4281426479750177 -1.39798720743756 -0.5947100451624985
Ni 4.991019656807749 0.5540266470512061 10.09786883496865 -0.12039524796132169 -0.8585481669332247 -0.9379376619061459
Ni 7.254752836763913 5.54070515859506 0.055851526618130046 2.6292404317482587 -1.1181102870364164 0.6561390990022572
Ni 6.121276168183333 7.157868106944035 8.535671636661709 -0.7983735543258573 0.22383021391922098 -1.8588134832339986
Ni 8.980626425595752 9.261592142073399 2.9396301766013178 -1.482530478697279 -0.7360266166575195 -1.4647777826995483
Ni 2.812905323348477 8.361488199859528 10.093238342245758 1.536917795198908 2.7126938123779087 -1.0173022171784027
Ni 8.261588656192652 4.789083131793001 2.1742072093838765 -2.194052939565847 0.7248942541897838 -0.09083707468823066
Ni 1.9978602002914976 7.786470794726247 1.7026996575026674 1.839751067285909 1.2345254673040673 0.004705118785153187
Ni 9.233637444018434 2.6920887585326283 2.0513680124917304 0.34109231556819963 -1.610001145448143 0.3653491312330353
Ni 5.50070987273011 5.177088740522515 1.292587902905581 -2.1751807852516927 -1.5885889983209545 2.062723046969893
P 5.224737733367456 0.6715670519280589 4.869047568913701 0.009607184072460874 -0.9871017823356226 -1.419251259022659
P 1.2812492160283953 5.9882883425115 13.108973434216281 0.3035511240896321 1.8476168431872309 -0.46381826854522695
P 8.368143191416518 9.111803496201587 7.5978209183529835 -0.31826837569514865 0.4674658926001433 0.5843037622275099
P 6.667816183077648 6.5351270386538145 6.412201037523969 0.3964587081536462 0.05613026733466463 -0.4463581640872506
P 1.876922296218649 6.649064600976672 9.798284076193827 -1.4032479416158672 -0.9708552385697732 -1.4862094702107629
P 3.524812077955585 0.5543309285726057 11.758055883713071 0.7716322816762711 -0.6866190127586691 1.0052506853305074
P 7.346961338294797 7.307666086604847 12.537604607203097 0.6197222509361199 1.0113853374733355 0.11575492097583291
P 2.1585693792932963 5.847730813960675 5.01396211016972 1.258856073629632 0.3939333706286312 -0.6261911464899151
Ni 6.6957708811326135 7.311968963333841 1.7473301029850115 0.21427188080682452 0.6048561324575648 0.7438319716345513
Ni 7.762520292152278 1.5119151435851061 9.079800733857327 -0.9000509141627016 -1.515438028058577 -0.35795283876896417
Ni 6.181395103132258 6.178277617606262 4.239182019479791 -0.6482805221897867 0.564493155259486 -0.6587338563126268
Ni 8.424192594361449 2.0626460297404163 6.7149956863358895 -0.4495761568039161 1.3499723701211783 -0.5378925219528219
Ni 9.282173146818373 0.4714552826628095 5.26140272331721 -0.7870658426225219 -0.9654867751690082 1.4241466394417472
Ni 5.143533769067557 7.004765965977226 10.637818261450075 0.13353332800517648 -0.8481022890095522 0.010027816549647245
Ni 4.539030924483314 6.01996722237746 6.941849694465006 0.58556360277654 -0.32941667900248434 -0.3247712098106729
Ni 3.2792587569438925 7.903432504685101 6.426407997760851 -0.09733039572205818 0.3482916615301163 -0.36896461649843554
Ni 2.4055321024439866 2.720286135101593 1.6674002008836115 1.196698369153965 -0.33853638191556534 1.2596407743144564
Ni 3.3138871141338497 5.162780041985533 13.251375319473501 0.5218005014869658 -0.6884678930419498 0.9845723310455494
Ni 1.4241028566732161 2.4603307776629184 13.3330263722665 -1.2498063047225376 1.434889222670232 0.6624982084510654
Ni 4.4619058259764115 2.2494431489971825 7.772162096189265 0.9915029967271117 -0.05659126613148319 0.747468539945874
Ni 7.2653653548569 8.491097193913365 4.697957349786115 -1.1273690866305228 -0.2666341964586247 -0.507844553527506
Ni 1.3697708709042844 1.3352171840263278 3.6621849176996126 0.6267087095562819 0.8409749339361516 -0.020633102869319304
Ni 2.427839858153959 5.031024276461699 10.95389115849338 0.03596227702722194 -1.2459506784218735 2.2062636226994257
Ni 2.7110363502026043 0.6615453626787715 7.700851948229355 0.15628913364445343 -0.10989511976094622 0.31959043694068184
Ni 3.61656322382547 2.8955840263103734 12.040988229533019 -0.4149459683245563 -0.637647725066289 0.34521199416352805
Ni 0.9520744793658075 4.014481316472971 6.130061130390122 -0.24060023428870825 0.08442037252860944 -0.8762113885409425
Ni 6.354602225605041 2.867666663411408 1.8005943032923448 0.8773920391126051 -0.1337233325287955 -0.3501636817418486
Ni 1.5357349731130763 1.238873813968448 11.542691769842943 0.6783657716109414 -0.8596848516408292 -1.0414510465104643
Ni 5.7488766546617995 8.735213111419059 12.124866324381413 -1.207480290260817 -2.081836627870892 0.35494156274646615
Ni 7.016722549686211 5.46920833485515 11.471231347880131 -0.6934617467121155 -0.12292032837602054 -1.5032345440138497
Ni 3.336558887614821 7.387843334114747 12.098145553232248 0.023923600695132993 -1.6498486164623845 -0.3383255514563399
Ni 5.945931608029552 3.2976743226408693 12.54207175861849 0.8807673833427412 -0.14026987539806166 0.9205567474255373
P 7.380758988263755 0.51094374378506 1.2380477736419493 0.0620826282633576 -0.08311528056394073 0.0493150441850441
P 8.130840939880816 5.778810115984762 9.587673661061391 0.13138362865202532 0.16341134651153147 0.13988009615881072
P 8.204596540558724 3.454052623546674 0.30132644380222257 -0.37099090289984493 0.7961886308593965 -0.42713274019873537
P 2.916613052927347 3.9021678334361125 7.509953562085994 -0.12609846899368607 0.6176363149413685 0.9246918526398333
P 6.478900293717885 3.1059209614251095 7.842651804096077 1.13188600066427 -0.5020909388731805 0.2666452522022182
P 5.813970499147717 3.997773834162993 3.9979157077557925 0.36453100620711415 0.458511768730649 -1.1903032642608984
P 0.8336697656275559 3.1212563767520902 10.798757051661275 0.40189376312628855 0.3476586559318077 0.09554013659085482
P 6.752230970793542 0.9729915005147813 11.47423682793813 1.7488222042148205 2.8876805224318653 -1.3044908407496116
