# total energy = -340889.5818441737 ev
CRYSTAL
PRIMVEC
9.05325479648037 0.00000000000000 0.00000000000000

0.00000000000000 9.05325479648037 0.00000000000000

0.00000000000000 0.00000000000000 13.25035351166967

PRIMCOORD
 96 1
Ni 6.3786607165236475 2.032392307140861 11.28088678099514 1.0068982482362596 -0.2962818441217285 0.14013746358525542
Ni 4.733231674981812 0.20837152080294477 5.79589003699294 -0.10836042828397467 1.5299683604642682 -0.529790718781294
Ni 2.6179387145622797 1.484914835728704 4.363460540056174 1.2228089501980877 0.19084193191865842 1.1981196749815237
Ni 3.378873825267275 4.166253492948027 4.703530662290828 -0.9323223726018975 0.8954332128850321 -0.22793549433684615
Ni 3.8029463818774683 2.92956984781099 2.515234971955032 -0.6548399205748594 -2.0977234743044777 0.2945288659863637
Ni 5.1243413312329755 4.691333212234876 2.202831596080498 1.0645948316167795 0.21493034032642985 0.8674593533799254
Ni 5.135503994276832 4.603045872410305 11.280449508793177 0.3940763239643987 0.05477349619645405 0.5259728876971006
Ni 5.727134188855974 8.34608686794454 12.316534757611823 -1.5397848323340577 -1.3924194835417956 -1.1292490772620551
Ni 2.030645028983955 6.556765396216923 0.09525744061732626 -0.343506324326331 -0.9234194136853128 1.0289300312253182
Ni 2.495991373766854 1.3421540623802957 -0.007928840465377387 1.406816889914048 0.7683356132028704 0.9743977045053928
Ni 8.332742370518226 -0.010572390837483117 6.806030468495215 -0.6423140201937068 0.024690303657828445 -0.34910233035686977
Ni 8.791597531681948 2.5201907235772607 1.238099574171959 -0.44587608224450953 -0.18238325962834398 -0.5426467488083557
Ni 6.882963216276312 1.146449855552181 4.707148342868546 1.8320459853321676 -0.8812175835062823 0.6926675329455941
Ni 1.0164360648199537 7.336784767827393 2.3595434349200533 -1.3397607196954993 -0.3908241355756882 0.05495604452090535
Ni 7.628037024748672 3.903482775309777 3.9743244933293913 -0.13580849719259835 0.3167331699975448 -1.2215498809800058
Ni 7.574459863440036 3.88701490501231 12.54079655106244 1.573066477205323 -0.35355779502506207 -1.7193226520938065
Ni 8.347644027752768 7.271755239324532 9.140769796190968 0.06898938268551988 -1.175376210637421 0.05266287761135447
Ni 6.898489548085082 0.7061393813138749 0.4061190472166222 -0.34836056709483876 1.9442939215960062 -0.2570920612961443
Ni 2.2093019572138677 6.618173622840186 9.208014656118674 -0.36590911750156335 0.6201297707871836 -0.1564331154214854
Ni 0.06473982435249338 5.0025478957674325 1.1844970637501657 0.13761855381814367 0.07387370736101471 -0.31049670216952974
Ni 6.500345512932802 2.2170605964909043 6.938587318472389 0.5357281673116515 0.40367296651389833 0.3113086565478639
Ni 3.5614960790553463 4.52574013053561 0.5048619908930604 0.1709729609088733 0.2725065960790017 -1.395413533173113
Ni 6.185002545257506 5.99064727337954 4.813588363690067 1.0244434562088744 -1.0810789453147318 -0.0419046106535859
Ni 5.30881044897964 2.8525809698507603 9.257412835058256 0.5863354479455579 0.8696869571588635 -0.32106856414810514
P 0.22957152733157485 5.846700523665565 12.317674562378427 -0.2053064440834206 -0.2782468409968885 0.3564747115615409
P 4.285837934267015 6.306623968883767 12.501787887215423 0.17912875724678828 0.06486019100849474 1.3164678106058296
P 2.438376460862468 8.387351602862548 1.2247351595853064 2.1597104575302355 1.1844115813668117 0.7338933723646005
P 6.7345803717598285 8.023175379340886 5.414002025978172 -0.30325493300545187 0.5450651284418613 1.5475742464714894
P 4.660859956918069 1.218631455267246 12.332779917843695 -0.6267794148932173 -1.0009276324751215 0.6826080918270632
P 4.044306152152601 6.2879108914209505 8.062720901191554 1.7311343000167538 1.0480361559271498 -0.5785123523567134
P 4.992408250504561 1.3679015187442298 3.903394958739197 -3.5215163299512318 0.03153149494937795 -0.8207285249822898
P 0.18728196398164237 5.5101548334852275 3.3862205414555073 -0.13308852715827402 0.49038393484889736 -0.04926053679802484
Ni 0.47978357005138206 9.141795529948364 4.484582224023051 1.1150321623317248 1.5154048608277966 0.4142450856027898
Ni 1.9083808242740654 6.420495806487692 4.491882768612318 0.398659572459707 -0.012691479424739431 0.7744684655734856
Ni 6.085652128190765 5.728908626776976 9.170251720118237 -1.2784201118044884 0.8243188134367094 -1.0212550311785635
Ni 8.886502800691485 2.51723030929069 10.240084786478317 -1.1363350375745591 0.07754035757932454 -0.7381025253499417
Ni 2.5472780616366455 5.4608055421210215 6.783704237082031 -0.010092094128679393 -1.2395877123183232 0.06008153867292878
Ni 0.7154750975594757 8.992127123264627 9.025636840207476 -0.06211399572192529 1.3699830089151503 -0.9650674282434025
Ni 1.5970937147039168 1.095407605559263 11.003212595471409 -0.46698021121297645 1.285139175695877 1.2518755285467407
Ni 4.087490177066794 6.88144226948688 1.5852194658407184 0.480891679087746 -0.054697648653196124 -0.49600282369757154
Ni 5.840888334148811 7.878984191750037 7.481281955427068 -0.39086475900563655 0.3428149546862612 1.5894487752180886
Ni 5.464707494896286 3.3141340009147813 4.722187609574512 0.46201104013315913 -0.1306107550417428 0.28420460124222025
Ni 1.071715238012 7.367484354511676 6.988249852449181 -0.6615564133630865 1.1124870273123677 -0.21659924338842051
Ni 5.1758181374514445 4.733141142434823 6.801817083758304 0.7124963947460632 0.6662558757212848 0.42671185061123285
Ni 1.0088584906368971 7.627330870882151 11.225632956916249 -1.0643374641903347 -0.9668646293531412 -0.4288893178785259
Ni 4.663856584223435 0.4782173569884564 10.073369101196375 0.4885587087147006 -1.1300708018324022 0.27997719342443395
Ni 8.349671956805341 7.345331040263242 4.2273792580246825 -0.4353109051341535 -1.3317705024011708 -0.027237238449398255
Ni 7.715138388207676 6.539799596911011 7.032598125917664 -0.9320776035809432 -0.1892339640015902 -1.3232228699414759
Ni 2.388818944640185 4.936486296228886 2.4825201307747538 -0.4903584809276007 0.9828594621195009 0.15062653604203738
Ni 2.6705471776181238 5.358838734446271 11.358521156015406 -0.9526433435474367 -0.42334241991836774 -0.0929849742691689
Ni 0.905182428474978 3.5447656643716083 3.7985582693248667 1.390409395090302 -0.9181121425397866 0.07297870635057109
Ni 1.5251837126298216 1.1435618673032026 2.333917292169086 0.2835875364835116 0.0835225433046884 -0.2571617381918152
Ni 1.4165356029872158 3.349459800750249 7.924161743348948 -1.0448137923351104 1.032874360585047 0.7955119165073461
Ni 3.804313423337016 2.881976887858388 6.810085421274893 -0.1903909604241689 -0.8626099957074241 0.23211713651836155
Ni 4.3264870478654895 6.966570023421505 5.792630865301303 -1.5705866482062627 -0.43577730324761077 -0.033789180635303104
Ni 0.8300558050063309 -0.20237555021580222 13.265724151853133 -1.9243889551419628 0.04232061514508196 -0.31147295003987
P 0.6154909526638055 5.554054065520641 8.107387849225441 0.21062374253127597 0.4656157267652819 -0.3893385521690972
P 8.769009661207962 1.8568859115461978 8.039890403491636 -0.7028413881548026 -0.8303966441996731 -0.15730060562810327
P 2.0306269224745574 3.383490985163761 10.33474561761098 -0.6535345714998745 -0.3719951757946432 0.032324937384950785
P 4.286471662095944 6.058709642206564 3.726741515774171 -1.1226192306503633 0.25579313997906267 -0.39862229146386835
P 7.018300320771546 4.060819288723563 10.379611737248247 0.16075076896023283 -0.5051063286607366 -0.615353689554779
P 6.420532019506488 7.877771055620372 9.94136902638319 -1.8980788564925246 -0.5384555935451436 -0.683695668464287
P 2.3774118437194542 8.458410598994938 5.600950830186891 0.04705658716817057 0.242289449065673 -0.9916778317420791
P 6.998745290621723 4.029268696097575 1.281992468929083 0.6480671206274 0.4342343842405231 2.378266310424394
Ni 5.573763001000347 2.7890995479014267 0.3713572651489017 -1.8798417646592076 0.021710137983581967 -0.8397652298987666
Ni 1.5605095124652892 1.1562997966646844 6.8811869677043696 0.11947145059547168 -0.5730415590501292 -0.26094640204522807
Ni 7.095379731278766 0.6988922509273316 9.02794270417931 -0.6294487341952643 0.7741789593575248 -0.9918657793831692
Ni 3.072783283894348 1.940148695012829 9.071469847446593 -1.0264275765184387 -0.8088909089174133 -0.1964587638848036
Ni 6.32556337771406 2.02260573881125 2.456496550142501 1.7872280576865285 0.8530053827381244 -0.2017930316135234
Ni 4.439833796696872 6.820043096118315 10.41892549577862 -0.34023948064960113 1.667329289745651 -0.6009300579302812
Ni 7.846419634597763 7.619852882500783 -0.0987058253321724 2.5090711837548145 -0.770768391014079 -0.29030711459553227
Ni 7.762903359999559 4.513255692305699 8.362801892095291 1.2274207379384863 -1.8589528370253405 -0.8652793150094711
Ni 3.089948254803637 8.300558050063309 12.157159451239826 1.9969706831644318 0.3435675165815696 -0.23812709015786732
Ni 0.37350288651256286 5.047071802377076 10.228583531708718 -0.3057460748584218 -0.4153180069519944 0.3628384489960396
Ni 8.76697267890069 2.4769433258801747 5.751236668841101 -0.05998692207659347 0.19071157698838123 0.4461023393227027
Ni 3.547038031301055 3.026656951202982 11.905561355225602 -0.0996922110860154 -0.6424382044763968 -0.7737099901409061
Ni 0.9971345258017023 3.2967879649115126 12.246122163864943 0.09898232950318438 0.41918623165814906 1.3767792059013775
Ni 3.21820571412426 8.544054388447403 7.60146300623072 0.5985291617982725 -0.36221084271436976 1.61026236952933
Ni 5.473054595728757 8.270383552151568 3.494435905523501 1.073677510644338 -1.0249692468053573 0.3507282959960669
Ni 3.0394039338191634 8.28383668863427 3.4158482227834286 0.29836572323395066 0.24548661584673204 0.20245329090534164
Ni 3.4154037079777084 4.541130663523896 9.13672842329334 1.1689906188260513 -1.1023473677752047 -0.3916016371716611
Ni 7.293863287299471 6.280414796530184 11.20793022267784 0.34532897935736656 -0.8823203296521579 0.21704327290437458
Ni 8.352052962791177 9.161893755380127 2.105057350656852 0.015300377802496233 -0.7057205094748105 0.6834460143473262
Ni 4.622537529777234 0.3462833709345729 1.520040558635324 -0.47556409622724544 0.2845534999412067 -0.6290206455189102
Ni 6.393136870787337 5.788696320809121 0.14874225872803248 -1.915736678783604 0.7839486371497789 0.5094170402209486
Ni 7.920212713649248 8.811333626925752 11.03383432416528 1.1383991191924394 0.09686631160144607 0.5071094751336943
Ni 0.2283475272962711 5.247420328865775 5.966820012337263 0.22662166062142905 -1.8157202515889501 -1.283156083827577
Ni 7.066934405014532 6.078192246318796 2.569707500153399 0.8638801206690992 -0.2446553781946883 -0.38140001404831086
P 8.577352259230297 1.8551114736251952 3.3924482753629435 -0.2653869543150849 -0.2827619552584227 0.46134229620090866
P 1.9676343762789694 3.0850594972661813 1.2416602192450723 -0.3144839689520519 0.4683158993052644 -0.08668757129623135
P 4.79047540444354 1.1635333471691793 7.876633061504709 0.7315685808861659 -0.15658352495642067 0.018384673154774787
P 8.474996161603492 1.2912023449343675 12.303761520557016 1.1243884067356442 2.431612330145702 0.410248562848887
P 6.5521663428298345 7.877417978687111 1.4696229832166363 -1.7139104799393 0.11219651420061322 0.9964294874944517
P 1.8788581607006516 3.012198903448692 5.810412362855594 0.0915469562710617 1.0213481051130022 -0.7046756131500639
P 7.260103700526929 4.275662075985347 6.063945139398991 -1.0831592248825281 0.1135075197025529 0.5864256936665191
P 2.5503109019608075 8.628584627571895 10.00812410523168 1.836499907338463 -0.46365654615638213 -0.7260031709832464
