# total energy = -340862.60711050266 ev
CRYSTAL
PRIMVEC
9.28401625465384 0.00000000000000 0.00000000000000

0.00000000000000 9.28401625465384 0.00000000000000

0.00000000000000 0.00000000000000 13.58809623143320

PRIMCOORD
 96 1
Ni 4.051581796712198 8.458759981124029 5.097180192881839 -0.5636403203408873 0.8960531058572181 0.8125863554911297
Ni 7.118602961625576 5.077771957059008 7.996852324155206 -0.5572794111198661 -0.9054255482110536 0.27748708001272854
Ni 0.2406769786289944 3.213365111947719 1.4048870371037827 -0.9055592455754404 -0.8094940897190511 -2.0201496923840563
Ni 4.855967526519299 5.661068125572206 1.8881070816138112 0.21151591532824218 -0.6583559041479178 -1.7999789295942934
Ni 8.112828254267049 1.4540811820346695 0.44338233108464276 0.536170911276025 1.9425694827057323 0.3756461422836692
Ni 7.2514943692161085 8.824643058750329 0.8901876789345943 -0.3740204337547881 -3.70122949894658 2.108910344159232
Ni 9.229426164167904 6.721377045377952 12.380412899808508 -1.0522134272332908 -0.002718427372427577 1.4643478942509813
Ni 8.947730545255517 6.966020155718745 1.5589079371167884 0.6545905235682146 1.0518740416160013 -0.3736175418894146
Ni 4.389863494237432 6.898776026532059 8.817111864825678 -2.1733928401133342 0.18010089135207047 1.0040944602388773
Ni 9.03031186917041 2.5699456546573596 6.148980311859255 -1.6254565607712652 -0.45255040894089166 2.558847998067625
Ni 0.004562165550509102 6.449708163939211 3.7712128637118325 -0.3853592558063751 0.04680667594089358 1.6825368507240248
Ni 2.781110602655588 4.891590296599281 8.188675881247095 1.467606510397595 2.5087621371548274 2.3636616731373423
Ni 4.142184510606008 2.845318858551642 9.238329535683855 -1.1726999493568386 1.1581598467591343 0.8070862516085068
Ni 1.4939560315247724 5.02905872416621 0.18358492113437552 -0.2886173855979352 0.05091041369662199 1.6042061360329212
Ni 4.881832795594835 6.59515156140416 3.939705688145134 0.7537839406409406 -1.7890219163621577 1.8343854320986215
Ni 3.143567878311725 3.182328645860312 11.284682673073872 -1.9696732809010593 0.7521448623756208 0.974523945670612
Ni 0.549232184749721 1.470690286979441 12.343521933118435 0.7202667827201015 0.8125143646026136 0.29511559172776913
Ni 4.46905615224688 5.773478993471198 11.353955359795735 -0.19013179322551127 0.26041341235989346 -0.2828061782327968
Ni 0.4083110315657108 1.2422292168391724 4.465564433761844 0.5230711406692734 0.6911652373684549 -1.3564487218741412
Ni 4.984402606343766 6.06428223225548 6.583540970770325 0.6485618008756314 0.9322385546388396 -0.23175975317894276
Ni 6.645071716400268 4.5333665323209065 11.296776032549031 0.27278016145536244 -1.0381836886131024 0.018218065669923462
Ni 1.6536782458734873 8.387338044656657 3.4396500086955593 -0.3729248866977642 -0.6379665418582884 -0.18629596441918886
Ni 7.180982266334308 1.0318441262000053 7.969350283027259 -0.26428909326521577 -1.1606252775804915 -2.21853575519856
Ni 2.9137420577930992 7.45530637640033 12.48269119244941 1.676112949475552 1.3294657655273945 -0.15409161177250236
P 2.0136474051935718 2.8440376643188987 13.43752626124534 -0.34713852176227955 -0.10771739538333708 -0.2416587574602096
P 0.9264510461309488 6.170937010123304 6.018534314130351 -0.7874144842111923 -0.5566356068882801 0.39481037391694584
P 4.671596249214537 8.448473291197361 3.072893305146787 0.8860656556272031 1.6159414221919781 -2.2415309305421527
P 0.09424297663771457 8.807124120219985 0.27922699901031095 1.2428833523504597 -0.4250149225247841 0.21565333453538343
P 8.241922499240246 2.723948915039624 8.475479565861333 1.8182713001455784 2.2042874728096615 -1.3714963602358834
P 2.8001056997584404 7.32330623436301 10.195324995044707 -0.7531807598393028 0.21422431539834078 1.5632428062466819
P 6.34089949431779 7.796577527135299 12.527286964166688 -0.7945657505439929 1.428425212212443 -0.033263132928504004
P 2.7361573963154067 0.8342134169879634 3.0383391253290424 0.5802272781652911 -0.3359418817155117 0.9088903668312025
Ni -0.002834410139540962 3.8459501223568333 12.476018770021346 -0.9255999662763995 0.8674374990030546 1.7957944591993007
Ni 4.471776368987415 8.373337748258269 0.6289113252069642 -0.9189991731304301 -1.6737243946387175 1.379143849478812
Ni 4.765522640900537 8.42560675934774 11.044988871758266 -0.48858750507010695 0.49033559810946525 0.130491198744743
Ni 0.2756981444605582 4.8927507986216945 7.850413680155836 -0.2580009462636589 -0.4985816401683414 -0.04781429126980152
Ni 1.9461433235538652 7.604491232385536 0.9723465801133292 -1.2288685261286063 1.40615663062223 1.0338706630600454
Ni 2.1423981415681346 2.758151230644174 2.664937851400744 0.2354495433257042 2.223956154883183 -0.2847126512268903
Ni 6.953393893714893 0.005198120658791302 9.98949278593987 0.5468204205700712 0.07251256534742996 1.0571391466696825
Ni 6.515819643152023 2.435197443830967 9.549822204523712 -0.9115242049096237 1.615755017212785 2.351790375621053
Ni 1.287340251454402 1.8906341908178173 9.00093167156939 -0.4168272445076693 0.6947971776940872 -0.5582641436306385
Ni 7.920417018951011 3.2579748096892662 3.8955444083850477 0.7290856665633121 0.022825482534947785 1.6208064635937633
Ni 1.6665180402494622 0.8519458878904306 1.1347082402618198 -0.637342020900412 0.18349140509085818 -0.12625273518336322
Ni 6.931335071272872 4.966085242422003 2.7108250297685625 0.6909004137428424 -0.07426888591690435 -0.47949736984338065
Ni 4.954907286942123 4.018939195825771 13.00399798493341 -0.9227331862515658 0.021172520312557085 -1.0787500400712389
Ni 6.573092738962138 7.437741017789089 8.294378119054922 -1.0961978032340411 1.9606101422575268 -2.1313259928502712
Ni 2.6588958136712537 7.411764340519403 6.732249556725533 1.203878946062804 1.5681088760897317 2.062408343942951
Ni 2.5421678782488875 2.1786615087644887 4.889241440505918 0.06433337197074727 -1.4573920317584383 0.3892377649251748
Ni 5.719705971760679 0.6429617552927201 13.344651748592455 -0.04047533440622707 2.110191010643869 -2.2302944383963847
Ni 2.7334371795748713 6.373857751754312 4.946691861025058 0.6654747745808861 -2.209247902138731 -1.9017177387966926
Ni 2.0694907625120744 3.4523449724191373 6.854392858785286 -1.5043545165509058 -3.4013208567055426 -0.590400362043551
Ni 5.749851172294873 1.4833722530803677 1.9768372094442563 -0.5932658565168041 -0.4722296325373738 -0.15781482626036047
Ni 1.9126744452274809 5.729073544085596 11.611734424628622 -0.3955274545886285 -2.0858861153499175 -2.5996987135354006
Ni 8.197182825272188 7.108204863504757 6.5968301115293775 1.3910794245741334 0.26647735916578624 1.706930191966725
Ni 6.949225370450387 7.251355108973419 2.853690255940519 -1.044463608084543 0.4119210654553035 0.2456488524562092
Ni 6.28221522804842 5.912117207076717 13.400281573538834 0.5986415190064207 -0.23139954162604662 0.633892886009547
P 7.6347478411138825 1.5070372103214091 2.9152850612820993 0.5780022454895143 -1.7187513529713692 -1.263236719195831
P 3.913537760142153 4.2790773291698185 6.365003585524112 0.8540114554051356 -0.7434861582593583 -0.9076374682607079
P 6.5144548927736645 1.9350582082357786 5.969087643959387 0.6092987416099507 0.1112878863434148 -0.4148215269315501
P 3.2620969128728765 6.041759209004493 0.5991254160989089 1.323685154289875 0.06948971936070612 -0.7599766997152138
P 5.567865887148192 5.343415511997382 9.540297732325367 0.6790499421621596 -1.8336518963667068 -0.05336864542912745
P 1.3839125877515033 1.0898320912559267 6.747563541413292 0.937196155754431 0.6512614591949817 -0.7828165804278647
P 7.049130668555858 6.525994924884538 5.047814293651636 -2.5905479002740677 0.09162460358653253 -2.8767713317185293
P 3.116486403116701 1.0956810214488872 9.9149486348314 0.6818473024016387 0.8881063402063156 2.512127196972319
Ni 4.935308728787615 0.5873096487075111 8.946389004917608 -0.06487021831082376 -0.8528099788978668 -0.9745123757063862
Ni 1.1770461392442917 8.717171287458726 11.54641672879914 0.43771128704553003 -0.6656570657950214 -0.8184700679654162
Ni 8.203236003821093 4.9569961905824655 5.795105180759265 1.8987221465034787 -1.5142393797647857 -0.15035914131326364
Ni 5.076537182907161 1.973781839719648 11.430592128151021 -0.26125262043173714 -0.5303355355411705 -0.6055732131292473
Ni 0.9830659051939514 3.953709698149994 4.829249984758503 0.9012745021571575 1.4994755911920499 0.02646050818437378
Ni 6.11884439534124 4.386289148008401 5.106569118443968 -0.3156659050752951 1.1217805367991518 0.4534001585356966
Ni 3.9300261728765937 2.7001075614911763 0.8699141728038521 0.02200324374396856 -0.1381201760449105 1.1097079219053338
Ni 1.414967621871269 6.930388101622583 8.47649895083782 -1.172546968718742 -1.137148277504474 1.765796884395946
Ni 8.774481519333557 5.362048532469241 10.491953025579885 0.5643905682433505 0.9879813567270985 -0.7023497932303646
Ni 2.183953397986691 5.9279093185977105 2.8646156861803216 -0.05548132089675606 -1.1213125960237977 -2.268573279371925
Ni 6.7361107790545045 6.995032706279065 10.481640340407916 0.710108611240177 -0.7552661816134218 2.14186443048775
Ni 9.052686348162528 3.061849967901507 10.483066365293057 -1.2466165941406466 -2.366790705684627 -1.4246811717889787
Ni 2.3576666247176146 9.051757946544598 8.46486793536839 1.5891093896007986 0.09305825070926554 -0.21671905679573647
Ni 4.800811186398065 2.725304381401802 4.626706174184375 -1.6342931852262885 -0.015268239012980156 -0.33981859106209866
Ni 7.781945917636718 9.239415765576833 6.05425735158507 -1.3972701267658776 1.6317053698944544 -1.3011512348534173
Ni 3.2924463617630155 0.9928234061983982 12.968288873502958 -0.008269696207959951 -0.7196895700603928 -1.4778726682102934
Ni 0.6062184044598957 8.54801651267184 5.674565228293676 1.8829111476131508 -1.27850701509134 -0.7774332046287643
Ni 5.293764593470473 2.961081256291361 7.454619359203061 1.6134939890927504 0.7409263679519821 -1.9278843698897314
Ni 8.305128081388935 8.890541005591015 3.7343209686201395 -0.1946484501489422 -0.7680263094925677 -0.6407885846881158
Ni 8.104389083560063 9.058850934905585 12.22235623796236 -0.648788829284773 -0.06884000159184918 -1.8386807170398658
Ni 6.733065621747694 3.371518327562132 0.7522067736745691 0.4811593309268358 0.7937854207345426 -0.17653168594357338
Ni 3.963179394652882 1.1782437773314216 6.5515278261808545 -0.21457681364175302 -0.6345004376865588 0.5219740509503527
Ni 5.8623548803556575 0.740741013693131 4.241428786759513 0.946551371717086 -1.2553593733302832 0.3154327060185665
Ni 0.095248435589933 8.902405978268163 7.9172400286144535 -1.4146276442077186 0.43498360370172184 1.3622167347061702
P 0.23684732195503225 4.428865646206681 2.9993815366374545 -0.015005729380212867 1.7160730348082576 -0.19661303007448075
P 1.3661058447196017 4.26962620069929 9.741958632960843 1.1319240529910573 0.04457804372069096 0.8611568082006654
P 9.123736923982728 0.5025521514001895 10.031915169469574 -0.12719555871260674 0.010134517330840611 0.9490479128866945
P 8.472370348842885 6.823426951220842 8.863120663805446 1.1160960848198649 -0.38315967705189496 0.5272522686301565
P 8.33594173108804 5.31017873407548 0.43326739545729304 -0.6540904440033445 -1.4745420611751638 -0.6518132179333935
P 3.907447445528531 4.5481002659974585 3.4460225574010326 -0.0714463288664447 -0.8217965612354879 0.5565173361428609
P 7.014649832465929 2.2774991450093403 12.177787389892003 0.9145786754652313 0.9797561406038289 0.5973415692480745
P 4.68923587995521 8.293188836582353 7.251952999615366 0.05682137986441827 1.6243774687744734 -1.125071805955914
