# total energy = -340859.23734061746 ev
CRYSTAL
PRIMVEC
9.37217119419050 0.00000000000000 0.00000000000000
0.00000000000000 9.37217119419050 0.00000000000000
0.00000000000000 0.00000000000000 13.71711989627969
PRIMCOORD
 96 1
Ni 7.84726278077517 7.23331995665337 0.45891586452414657 -1.2693891119504719 1.429418172253332 -0.06328641876347164
Ni 3.323006421656461 4.414892492437632 2.6725477437885976 -1.8469059331631352 -0.5137933149117732 0.6529553019576367
Ni 2.616279101850141 6.631860864678213 10.689943549832563 -0.43004554297015607 0.22952520742146923 0.3766619851426932
Ni 3.6677055092100925 5.1502986563646225 7.23439494469933 2.662172149479273 1.331024882484398 0.026081784688716372
Ni 2.2566595176167366 4.746986009617962 9.117111388713505 -1.6398087157278791 -0.3403317832530913 -0.37165656150830184
Ni 8.901510211690782 1.621610563769528 0.2589699624096475 0.8087631250902974 0.060663379318327784 -0.476558856040347
Ni 5.5893473922067445 6.473705474306873 9.16772767415223 -0.7693684253427588 0.16667124820972587 1.33675947097533
Ni 8.792380649291736 4.540629542347078 5.762054952926504 -1.0728352172487006 0.03648678207212425 1.801753247885897
Ni 7.7824167276801 1.9748851880455158 5.513952960334612 -0.82000527366302 -0.09734170857596784 0.22016922012786597
Ni 9.582295361390564 6.796126910724937 6.436388299916261 -1.1661287238972238 0.7583229661618747 -0.8643161797652534
Ni 6.511953305305714 9.079600210377372 9.294007372778863 -0.6996359938436274 0.09206451933742853 -0.32680212419777266
Ni 2.6037203923332464 6.9735889739356836 6.21286763816087 1.2409889635412241 0.48194891670766676 -0.5756106053288861
Ni 0.1702689217523748 8.418412270826718 13.340338292363636 3.211356185185515 0.5367902900275787 0.6649903787452999
Ni 4.233962725852819 0.4194758933383289 5.8491720966372425 0.16264952864484244 -0.22223715840048822 0.7578388274366046
Ni 9.200004494827779 4.2643473051466785 3.6462844745296343 0.38683224080747575 -0.7111339671808979 -1.8832019393806922
Ni 4.228939242046061 0.5065555483639427 8.351229735431227 0.8820794172859454 1.4422376926155032 -0.9584365531904461
Ni 4.127597953981747 0.03188975000163096 1.109666954135986 0.3475768948512788 0.4367921176653703 0.39718427346576113
Ni 3.1295554342398786 7.211098538545491 3.73366310181912 -0.38065876500691215 0.37030878923115584 0.7455155299845613
Ni 1.7333549619560458 9.023648347828223 6.324415220750481 1.0392216429593133 -0.07644455341198447 2.4910024991785615
Ni 0.30384204407008614 1.5337558301789533 2.49639216125446 1.0091502774952297 -0.010234276133498503 -0.11634987424735448
Ni 6.2832910703854195 5.888422749963179 13.633143667532906 -2.3967736251999625 -2.6580002774897706 0.7418095418878837
Ni 6.571372871228931 1.8138994019472336 13.628823096572242 -0.14636107589746405 1.4781230936582028 0.9292316494917158
Ni 2.9990010882918625 2.48086997117843 10.010767601941776 -0.5375333388411905 -1.5463889679141367 0.1441625255842485
Ni 5.418127195069321 2.2522358527719795 10.143453179639152 -0.22585444343810135 0.8025153444083727 -1.4161749340901804
P 8.834770979996897 8.874874500909428 7.135933724869749 3.201570823663977 0.25249749994692644 0.5915555586939167
P 1.7949020107601104 0.4860632958574577 10.181491074001293 1.4460889480407932 0.12291081529432381 -0.6669696139588578
P 4.275144046462695 8.8285666026087 3.316484327661829 1.1377319179220857 1.9663041073185104 -0.08154793607682084
P 7.762050999485912 9.1780829862009 12.806248241992465 -0.6686400596827453 0.4602698890723364 0.8930351449665007
P 5.423750497838079 7.6335679033910555 0.8251090896942299 -0.38394437773671936 -0.24842050166407542 0.5157962042744149
P 7.105895915913295 5.734456720154563 5.051823378278119 0.8722932844334591 -0.7363554607518479 -1.3881270268140287
P 8.909392207738325 5.866238820540425 1.6411440431539395 2.1971228367404225 0.29933322935354256 0.18119026776150732
P 2.888512561057034 1.9032443107715293 7.166468258904108 -1.8996680553565153 -2.357505166617643 -1.0931207069706141
Ni 0.45563373014144776 0.7415758642814466 5.109531585725378 -2.8443998573663594 -0.9290401023061999 -2.369297788377197
Ni 8.058670848366656 7.726371143418138 4.344568405228663 1.660112460282238 1.7123382503561735 1.5829595679493191
Ni 2.6288471835383165 4.273850686825881 11.479294994437385 1.156541337319105 1.8319899352832514 0.24899745721346797
Ni 0.224275121543534 3.3140653702541347 10.490977039616956 1.0432526184955775 0.7757439898517995 0.11012317661135226
Ni 0.1432658218567952 0.9130491100434639 11.6381392393979 -0.6830912021110688 2.508918460227034 0.26522831725003354
Ni 2.462706703235339 0.11336765825243297 12.409425823858081 0.6501862238529319 -0.9853441762145677 -0.6007205130226364
Ni 4.259773685561422 9.486511770896037 10.58311485548307 -0.6627447772442329 -0.6573557450181775 0.6524649925847795
Ni 5.092163077906938 3.8633308403639286 1.4293788958366376 0.7420635668802188 -0.5164749755089943 -1.7990625884276115
Ni 6.556789772715283 6.444886047616984 6.976993883762166 0.34222154407663646 -0.3833049443805076 0.797129140395795
Ni 8.066955847779294 7.376667316400311 8.66118149795957 0.010581632170588228 0.23649186854728949 -0.7947351862423215
Ni 6.852116261959213 4.46001012498564 9.004946180036459 0.4128196660101729 -0.4069966315704926 -0.5009617103647437
Ni 5.578381951807665 9.2490678114852 13.011661868832455 0.2951305041261046 -2.6593480497669164 -0.6437965182765042
Ni 2.595032389555514 0.6987965884681143 4.2420059232464 0.5343222881030605 -0.12647513560681445 0.2938904610714164
Ni 2.182966134832153 8.886992718376103 2.168731681090168 -1.085545722836834 -0.4399054664833714 0.25970173100484956
Ni 4.2975997688526055 3.1204175672406453 7.866919035603366 2.951772210705452 -0.042896028032577735 1.5686904596248143
Ni 4.542953840824832 1.7222301946451848 12.320703227206863 -0.48935369381217014 0.2555527418334824 -1.0623142631127187
Ni 6.142249264773668 0.10306483036293879 4.3903017894298495 0.48525946913813844 1.5380413672803899 -0.6146031845419996
Ni 3.8250455206799625 6.366216041882049 13.421790895751979 -0.36721472368686436 -0.38152651232384616 0.9029017533479353
Ni 0.6424501575080234 8.207913303849514 11.090922525930187 0.7376890919616069 -3.0732329238168106 -0.831526386928742
Ni 2.769514102298817 8.12006794243022 8.529510926411955 0.018805048521645034 -0.40187936494858534 0.6577745777231511
Ni 4.7872488574422745 6.1008430120530415 2.4325255000582824 -0.04853162905180029 0.5963000153574375 -0.9189714052162883
Ni 1.6826327709818416 5.499458897448135 3.925743877794382 -0.39838497864208167 -0.21669051755064617 0.7906679581514835
Ni 0.9277474862638712 2.6267759336851575 6.097177555864939 0.14142892870316934 1.1823912085026733 0.5045823378364664
Ni 9.18741766879704 5.882199628232419 9.970041768856168 1.0165622536885848 -0.2783340013940562 0.20845604545599583
P 8.691779762758642 3.2807473013492388 12.421538418021989 -0.3710114717251352 -0.2031480029795211 0.5159093328135115
P 6.505205341983203 6.046540651649394 11.566220945853985 -0.09255457159996962 -2.0826552671174454 -1.3355194279206417
P 8.70301699612488 3.578744859408329 7.708816129391201 -0.09113455132399143 -0.857893306958045 0.9791012806286492
P 1.9280430759817553 1.132767481910047 0.42416385341321744 -1.383976752091081 -0.5855792865058238 0.10765954556220814
P 1.500587716014558 2.79792115345233 4.010529225290342 0.5134881249665286 0.703030364237157 -0.5977647728284221
P 6.799116633363662 2.223172749628778 2.059186931503363 -0.5541102693632651 0.3063438563434208 -0.49095343419912224
P 5.058432633465666 7.941050098786785 7.582289005442744 -0.976605253679673 0.11849443139418303 0.3365664026733881
P 1.4097057711001348 6.516330109294064 8.131755977235086 -0.0025183955464795336 -0.9124233196851252 1.0757601042049796
Ni 6.988125211592925 3.5637681297008674 3.8240314517473295 -1.616388794142042 -0.5495077375942472 1.7259810379505889
Ni 7.9055483139733544 2.1635657402799353 9.408092939351441 0.07232796014044963 0.5174900470370701 -0.4749894546706981
Ni 1.1870885866562566 2.2496491334983504 8.400940669124184 -1.2455968946268805 0.09232805741146034 1.0736849668435056
Ni 1.0021850194481872 5.236916263346069 0.09094942454764803 0.6377153450794307 -0.28467768422389683 -1.6171117883509956
Ni 9.23262902305786 8.2949620307099 1.9232089100348793 0.6865483074217337 0.16901018075554763 1.6996105183768602
Ni 4.766095866860461 7.242926432216666 11.56144676180331 0.4437538936951841 0.9663648068985873 -0.5021341334062901
Ni 4.554640938412569 2.5420702496450875 3.3505990311256326 0.43226337655708136 -0.7663437795838222 -1.0681164716167928
Ni 2.087557431188879 6.589264346204866 1.5524355047596416 -0.23880277606865327 0.039803248039866936 0.6301074508251857
Ni 7.530811417463271 4.384348586231991 1.878614244644366 -0.6975009497784954 -0.7226633079767361 -2.3574334328394433
Ni 6.2101787622202735 4.1267263420525895 6.274964833419144 -0.1842946177184439 -1.1577243018836125 -0.020167990307442686
Ni 1.5920975964048256 2.7569553927819226 12.67127210563395 -0.6319506746815117 -0.8865590503238536 1.251025778951936
Ni 6.907337095148423 8.887198906144292 6.7084539972572195 -2.552253375569243 0.8408690044859067 -0.6256404161927677
Ni 5.6902856769059635 7.284435778821386 4.867643342692962 -2.1130274516513996 -0.10145367386181238 -0.23923497851006542
Ni 8.440464989851533 5.530340201819902 12.617309017830685 -0.3578340538029127 -0.7325854521864545 -1.4114248209997047
Ni 0.6982342581912385 3.617386321600983 1.4401606416786044 -0.047150689543873636 -1.0433446639887516 1.0080074221400381
Ni 1.7692597501345706 4.825730992723147 6.224074880579005 -1.8062760754569152 -0.05748678136255906 0.38246599341898
Ni 6.975529013390904 8.876252210087774 2.129281400515941 -1.21302024624244 0.9711848539950501 -0.4916756570771274
Ni 7.510005197218864 7.766212243534794 11.048729010821935 0.8637078567572932 0.8064149365730949 -0.12625453495557612
Ni 9.162618903586814 0.17657639302466588 9.360041817192396 -0.3753568931780245 -0.4162824277477927 -1.2969891330559276
Ni 7.007947353852799 1.0510983813651071 11.38714405753148 -0.3551948164078528 0.5229986355601252 -1.2369731575136116
Ni 3.392613537762413 3.253314956008978 5.5241583176427795 0.822850456421299 -0.19618262740528147 -1.2370137809435597
Ni 2.5812365534294925 1.770403155030885 2.2458899555974354 1.3193664723098633 2.8582789293412962 -0.04458010060322
Ni 6.963495145465761 6.54691150418483 2.8551363846901947 0.4458935657460063 -1.3244829676008223 -1.1748581333504218
Ni 6.496854737371597 3.6929728829843818 11.722266660469913 0.9144017835677348 0.6013386062226095 0.4371309890620278
P 8.254924114996337 0.6884815767559546 3.5836249489944834 -2.5815999470521604 -1.3843590751311643 1.5348760821785308
P 0.8351841738215895 7.555666415701185 3.7316874481130293 0.9332597968145024 -0.23940544264965866 0.41611762003515435
P 6.28663693553283 1.5702791816620416 8.175842670942155 -0.6920970051541048 0.2555563413779083 -0.6616955100441121
P 4.236015231363416 4.345716496210618 9.802788811822106 1.3516063061801755 0.427679870951457 0.0583226470002931
P 1.781396711943808 6.991396099370086 12.890142295999578 0.9572782712162868 0.2904289848853772 -1.212290824275583
P 5.496994016401163 2.175430909122016 5.1218213139265005 1.2993846298712977 0.3610728724551846 1.650001597100481
P 4.1174104037990125 5.642487603371515 4.907368227885732 -0.9112802072196177 -0.8141413586830754 0.4409341648582019
P 3.774501400960103 3.277588879627453 13.342711326132052 -0.47383477224096454 2.095226676024553 1.006445476969557
