# total energy = -381170.4525828186 ev
CRYSTAL
PRIMVEC
9.22368570541981 0.00000000000000 0.00000000000000
0.00000000000000 9.22368570541981 0.00000000000000
0.00000000000000 0.00000000000000 13.49979637431874
PRIMCOORD
 96 1
Ni 3.3135814325222714 1.8448201619981432 10.134850307472057 0.6588546981612072 0.38493785199824027 -1.074585367170588
Ni 1.6528475906055193 6.549499431078949 11.0652029042654 -1.1709791100109896 -1.7859731022335048 0.6668618847364
Ni 2.492811756580665 7.850666331632195 9.729573546666355 0.9769068440804918 1.567325460956488 -1.778685053212524
Ni 3.8538772723563053 0.9963240867096753 13.053978974409363 -3.011998245376045 1.1826249217800344 -0.6609411483765907
Ni 6.194636569444951 7.706315649736526 7.6047185960020585 -0.7127015687783339 0.09273789125536933 -0.25901961733616036
Ni 5.190260205080648 1.351620461573649 1.8875276717306244 1.2144850037134245 0.2805477212159233 -1.1888675602556364
Ni 2.307978317953999 0.34400473877600685 11.403075736758709 -1.4577419588986895 -0.8984737994835688 -0.7458328041146639
Ni 3.410144198577592 3.2167604032661155 0.18554089532324072 0.24805103413979862 0.5300804821075709 1.754316137449856
Ni 1.9410693227381632 0.41729522333030716 8.250157996739178 -0.37093331018903214 0.5485944817513584 -0.058908344300434026
Ni 1.3046719011360157 3.6475434222600676 0.9594782292675903 -2.7017280573950244 -0.6723028532463131 -1.6579164810721834
Ni -0.1378821110833095 1.9195227928398702 1.7486420236383533 0.8445701074865777 -0.48025455972437936 1.2221101243588501
Ni 7.472319966093636 8.197154086610523 11.73911213342036 -0.47783258054644806 -1.1014220277474578 0.8256025652451394
Ni 0.09681826215043278 8.474731685394438 10.175822841916066 1.6337067165951995 0.12702200924921997 0.7237053760880053
Ni 2.384368883286902 6.182968606978624 0.7908452722819184 0.05441996951177725 -1.2260318280107594 0.22272206845670675
Ni 4.041376356163025 2.703720554805993 4.044849073845691 -0.4727572229060697 0.9454092876928428 1.5766747633818716
Ni 1.6470643396439484 7.877802415091432 5.434788415474763 1.0828476071793802 0.29674849934550185 -0.5288147280212699
Ni 2.0684484228646296 4.014664562248018 10.518838801580303 0.9423602164538738 1.2752563693645262 0.4426730019261796
Ni 6.748841727381135 4.016195694081544 3.851465278534215 -0.3103568341575558 0.2201298822494983 0.6035615820158573
Ni 6.975624488772114 4.133318055660536 9.341481434770545 -0.8302120389926927 0.9700399417573294 1.0351456731177269
Ni 2.8937192574493724 1.6672273166806215 1.942836580926739 -0.6669217914400578 0.5510915371415993 -0.01947250690231485
Ni 1.2499108788731026 0.388067207944301 3.2634138057599364 -0.2608309595132863 -0.9460991146710158 -0.09377096050557399
Ni 4.350489736506129 6.341735909692371 9.834467145685773 -0.3747974211301287 0.4428606924569534 -0.8550998033733079
Ni 5.563376740802284 8.288634601820826 2.399615635821953 -0.2606152439580544 0.2165485926561432 -0.03307287129456885
Ni 7.234680926581813 8.857311722689555 9.47908499054438 -1.6025449462804142 -0.652587891315889 -0.862261868339386
P 9.338889579076442 0.6834206938943079 11.940164501059508 -1.0546320639771125 -0.03588205860858982 -0.30361694433056097
Ni 6.997558413471661 5.143579131529594 6.08392651419528 -2.4466324577036187 0.3114372117059282 -0.3450813821229347
P 5.518134562227316 1.9890601596648834 10.038894459938701 -0.040428283218375535 0.25277440775739696 -0.03767823127706414
Ni 4.269819380987949 3.6606963981312 11.687110837932092 0.15212060408906058 0.3992570968343898 -1.514777768766759
P 8.260898978788221 5.589064705599693 13.227748601985944 -1.8583272876261996 0.7979521505177225 0.7997771195416032
P 6.546806114841663 6.423061146898386 9.851962632805245 -1.0705356225812466 0.6781647113437288 -0.46923018358941765
P 3.114469728363689 8.084818817932735 7.08636682692189 -0.30223086261631177 0.02588483818656187 0.1940344707140271
Ni 0.08853723708935088 6.5476270228728914 4.135648881048078 -0.9483863680432957 -0.03536732375570038 -0.5842168589406583
Ni 1.6838299510200594 4.853116043761126 4.580872502443043 -0.2427237083896142 -0.4589820234988482 0.7129851614570236
Ni 4.261056879531023 3.9526444993044736 9.309864484776808 0.26790097898619025 -1.0086422275105595 -0.43024634612705254
Ni 1.4759096269758305 0.8303503183240367 0.08077089369279153 -0.8598540302288418 -1.4763390051745864 2.1789394809631766
Ni 9.09705376255104 9.445146438848846 5.387687664222352 1.078821773849439 0.45749438320972824 -0.5744942323362557
Ni 0.27563785767192434 7.611809765602147 13.026871484375933 0.22316146998697053 0.07019728695069201 -0.1886410676125977
Ni 2.9948200768908055 7.697405569307694 12.641682066383803 0.87749796856285 1.4249184846107654 0.08340941476559184
Ni 7.542567556720947 1.9332107424841627 9.006550958029614 0.1581246441912954 -0.7729695124304559 0.30341357007050324
Ni 1.015131181941961 6.284217005391962 6.89342761326328 -0.5283616996442514 -1.4661952318723652 0.36495395267714564
Ni 7.624722925643932 0.6303688205997826 0.43742683983545017 -1.2978530237181198 -2.0280200962710686 -0.1490008275131563
Ni 7.023689115184788 1.1112788821387953 11.476001885726117 -0.3267278193164115 2.157256339562788 -0.26030722579933235
Ni 7.891554930535933 6.220278415813638 8.157913760349262 1.303806155977761 -0.8865788478181957 1.839287240275613
Ni 0.5800443911797971 1.945293770808976 9.993116385221997 -0.3365118952863688 -2.8901837484696933 1.0540034292541784
Ni 8.77169747161252 3.7105504195782344 10.888409752501897 0.9792493761707394 -0.3385790622280427 -1.1912617715194258
Ni 5.609061656292972 2.5063613509387954 13.294126856443592 2.1596184120370614 -0.9275411491631703 0.05110427487498296
Ni 8.452096760578337 3.9562048420017084 7.396214412650226 3.2538706615089574 0.08625485463418693 1.527432224305976
Ni 1.7228276943462506 2.693002631971311 3.794158519005921 -1.1734818218281855 -1.4163924494176252 0.4029970234927963
Ni 2.28681918285696 6.519974413011982 3.211844178764493 0.11294187700707001 0.7268603767772192 -0.8323501683816181
Ni 8.365357219840519 2.6151916190338116 13.090914301603169 0.7323779641613386 0.8786891606574738 -0.5661492028056702
Ni 8.144800446326828 7.065131135233174 6.065053930794211 -0.4142497135884802 1.7054973161749403 -0.7970792609944659
Ni 2.880437149977822 4.339421313613171 6.639010689382881 1.5732153440783616 0.06096882637388855 -1.311022214110226
Ni 5.47658185795 5.40345647737052 7.947546392477114 -0.534481439388744 0.15321383715323936 -0.6929315852402582
Ni 1.0811727718699478 3.0195487783708246 6.209528210078852 -0.6551358545487234 -1.331460684470236 -1.200163701994746
Ni 4.73069006287926 8.73975584788059 10.9874712150253 0.34795613256756847 0.8474073198250567 0.6289471119684974
Ni 7.8678131634305375 7.727493232205053 2.2990959085824 0.8185065776303065 0.8761473680722267 1.3851016097241435
P 0.7049607672125799 5.0192991898131565 9.086631920028745 -0.9904131060970426 1.0833242897054827 -0.12603342008370552
Ni 2.7467582724881137 4.1389629513359445 2.3329403786833445 1.3030654211569945 1.5185740025843975 1.7013156739934248
P 0.6688398914699837 8.085482923306314 1.6347986823414014 1.2275099552181827 0.8175053900593018 0.2737078154759544
Ni 6.103903172779922 1.823172171556665 4.867364793498663 -0.4527908070864718 0.10059466829562676 0.7614532842607402
P 3.225661260009203 5.6197426843846765 12.392233019645193 0.9016359992616342 -1.551171991125077 -0.6604063589190433
P 7.362096921451255 8.416613241520661 4.541061230034219 0.32346303252221065 1.1581783587018957 -0.5393397959223099
P 0.045190525934801454 1.5259573458234923 7.565488415795115 -0.19664851129810648 -0.2525298958467586 0.06582975401061567
Ni 4.166827705968968 5.007345293088761 4.009750182483544 0.8204606160328839 1.3290006529655176 1.3908022596533465
Ni 7.034379366962237 5.518069996427107 1.9864544684421657 0.430295197087117 -1.2264426902959331 -0.5249593588309217
Ni 9.153853219363405 8.322854475931557 7.754202259014337 0.18486000330361066 0.6367666080129163 0.37266006307215177
Ni 9.05399759749743 3.9272793635081094 2.8683153821728835 -0.34163713232807613 1.0245396154671065 0.7645234385456318
Ni 3.411140356637958 2.130219446293083 7.273312489583962 0.6463084860650804 0.3457215868100949 0.5106084894258884
Ni 7.314973110984484 0.8834307850443689 3.0516564284461483 -0.003163999550278422 -0.702532598665132 -0.3725767593297261
Ni 1.6178713742637698 3.125611940742601 8.517196612191848 1.034357887109109 0.5735025578469478 -2.045447804829213
Ni 2.912867629054191 8.389597065976098 1.6575728848122382 0.2888557268609864 0.5396028197757095 0.14184287631213635
Ni 6.253345329206351 6.6658562267411785 4.2754393727118485 -0.46832284128379986 -0.37558109337368867 -0.9303343956375913
Ni 8.339770715586296 2.3718523417321147 4.533663834067426 1.5334015545155333 0.1938586072577952 0.8211892666687921
Ni 6.529972888358621 3.069227549788721 7.2433567253927436 -3.0611371689945406 -1.57673132765142 -1.1432381924522956
Ni 4.462695873583497 6.754219136169964 5.9724453588174 -0.4707311936149764 -0.1276267327127544 -0.1367567200384806
Ni 4.7523933954352025 6.105544988842378 1.8297892437095056 -1.3879344511872485 0.7464344422544048 1.1540831055865994
Ni 4.241825494754507 0.5779330895129653 3.7342193195662525 -0.834123201121641 -2.036643576274021 0.8348670212662008
Ni 0.7855444200847657 4.840119870547644 12.41007900682294 1.0913481884512237 0.1144140906772223 1.4234138750407808
Ni 5.385018329568 6.57240184278163 11.731161316308919 1.0067444962672145 -0.523556307835808 2.4030617722015193
Ni 6.947224760365932 4.14294758357741 11.992098463641844 -1.5376865550441323 1.2352919131564466 0.3412123860858317
Ni 6.595304254484311 7.261927694269979 0.448663133808952 -0.7695651147345973 0.0664380770185759 -1.7289090102306612
Ni 4.3101176640040615 8.92082602272365 8.72298810956633 0.8056166090415158 0.9218955208416186 -0.8133165487889348
Ni 7.3143551240396265 0.40216745634135587 6.792368300407696 -1.3138895083556923 0.9097478297354914 0.31858436427367065
Ni 4.545561466308781 0.46346714942828426 6.198971701744693 0.977083221757356 -1.1856061158955453 0.31182570539359844
Ni 9.44403959655955 5.941667764226381 1.7750346780266135 0.1841285244542248 -0.1827378147542853 -1.2903718848497259
Ni 2.752227918134384 5.672991022185552 8.34277948187603 -0.371826768537579 1.0319011980385002 1.097703184134974
Ni 8.34429032160092 6.139183770751227 10.928395352571282 0.7920398987983456 -0.3962075113747886 0.13255656591420395
Ni 5.049543655368167 3.6952391012429753 2.23882004461307 0.9078045899661915 -0.10263586709537162 -1.4985404809722902
P 5.339361085134546 9.13245426843702 13.510461026623618 4.005389717375121 -2.6384948604669916 1.0807786404654935
Ni 1.7806970987049362 2.627228528929904 12.286785999481124 -0.7543405844753589 -0.24435687311766302 -1.4211451336112622
P 3.9245122577848703 7.686410935900689 3.8005164055893514 0.913854395704697 -0.8800451604647359 0.5215624173342307
Ni 5.261245690567489 4.728872996787666 13.609550160204256 0.2634126041975335 1.736550071715687 -0.5808859947952125
P 7.105798365679053 2.951228938064037 1.5693105135580625 0.024725270660821932 -0.2030014500993278 0.3549443909599435
P 8.814836649837826 4.64288057459512 5.300627139220636 1.5634677777732944 -0.8240367634199162 -1.2760400416080862
P 5.0247411644021955 4.128780002274422 6.025580245283623 -0.7884082155830293 -0.1942923523611041 -0.785116432205635
Ni 2.3826717251099825 0.9338797342219002 5.456995361272336 -0.4090766540279729 0.43433619992571004 -0.23936790454350385
