# total energy = -381166.58900114754 ev
CRYSTAL
PRIMVEC
9.33761824151473 0.00000000000000 0.00000000000000

0.00000000000000 9.33761824151473 0.00000000000000

0.00000000000000 0.00000000000000 13.66654815738127

PRIMCOORD
 96 1
Ni 7.857904457034526 8.316409519888662 -0.0507275442327633 1.3171517240467314 0.6416151943544692 -0.2863252471296488
Ni 2.9533858995391657 7.5859556667250985 9.665215385562693 0.24453582189768855 -0.9501231482287444 0.8701950071435336
Ni 3.3675372762935285 8.090915379757417 0.8189847443805226 0.23317334569701778 -0.8372054395913904 -0.35818655204632505
Ni 1.9616188031119937 0.1689268495223136 5.305777484902785 -0.5765871103095426 -0.4860539400149758 -1.7971897968849306
Ni 2.893214288333495 3.8105885811486906 2.0237830620258097 -3.5952326857987758 -0.8074372071900223 2.5277664461714724
Ni 4.1783973591423855 2.177644598463203 1.2817897803818044 2.0036866617320266 -1.378212081693162 0.9307190326705197
Ni 1.0223011077000683 6.867836807106335 10.976055429697128 -0.09810815442834715 1.4519695751912864 0.5091725283103102
Ni 2.0079894147270405 6.557230277754158 7.843655251773842 0.5958446729875738 -0.8983506436421431 -0.2516225535411408
Ni -0.04874983671361975 7.192720554573575 3.9644193034462667 -0.21160384705635818 -0.08665903205114107 0.4584145810311524
Ni 3.8040989365509343 0.16261275214533122 11.47734452504401 -0.2951096781904982 -1.7458451238643673 -1.1244272303933796
Ni 2.198747615428568 6.405540671292934 3.0448525378950237 0.1981361515872265 -0.2135260037797355 0.2528865078552289
Ni 3.6090641067475757 2.4980276139935826 6.408381174726946 -2.6608428891448885 -0.7246415147490294 1.2880928590075624
Ni 7.029480314490159 0.9276867582738458 9.129336017628862 -1.4541087330214764 1.6359826571135694 0.6407291922050901
Ni 5.142618482097067 7.73314454124946 6.192995939979198 -0.12364152281276124 -0.47196840845618715 0.4980933876780132
Ni 7.548278377585607 8.435174684836664 8.081535742349581 0.314976078097122 -1.1932206950180095 0.3642816092004694
Ni 8.011050731923447 6.7451591801634265 10.184529818940522 0.11344607033699816 0.41020511120546127 -0.5715197230889641
Ni 4.191329960247266 0.3420630972959488 5.2759437949893595 0.9622212170438589 -0.5566924282681445 -0.2771368957621614
Ni 1.638976083995057 9.283077098792425 10.729347154944817 -0.42500566655340355 -0.02198807423531697 0.048157533541833185
Ni 4.8116839580840045 6.859460963647072 3.942553403079985 -0.8540335668923228 0.12227343882064104 -0.24417458190352784
Ni 2.604383084451775 1.124632064745839 13.507018690345683 0.4788227123738592 1.3842582878872418 0.008384367408953302
Ni 0.705930466678546 8.077880064853147 8.952422703323151 -0.9812373531350455 -0.365816300677441 -0.7656056158662169
Ni 6.207695218433569 4.948237285562547 10.101205583590769 4.723207781444414 -0.3422421129019267 -1.9201710604058737
Ni 6.303452492318447 -0.11513656654413441 11.340569896015875 1.4431532624512373 1.7308190827691803 -1.3422685737190172
Ni 8.322675061651388 2.8493368207581615 10.516299126014074 -0.7189416361507747 0.17455733582602193 -1.8391856817007424
P 0.825015911928279 2.2063857870558556 2.1408104962405137 0.6800372457760934 -1.817520795132799 -0.2995216912152648
Ni 6.138848959988596 4.111624051921443 13.139812188721134 -1.579428929088241 0.3602591183046376 -1.141907132345698
P 6.93547851281302 6.821102028384363 4.00274088823647 0.7241941427989658 -0.5341004019002414 -1.3803777218859128
Ni 0.6537210424491439 1.8202659399165493 11.80642179681176 -0.28537342473934074 -0.6421921499038618 1.5633219962240494
P 1.1380688972295385 2.075491056161831 6.551223388013529 0.01602388623208208 0.07591439194012733 -0.6556829853014449
P 6.4634058908214165 0.48606037394475227 0.9522717730384966 0.12561690137157722 -0.2681313498294414 -0.005721475864809501
P 3.089052153295713 8.385302466424266 3.6441847560440945 0.04493465572916132 -0.16460459548868425 0.586135673229926
Ni 7.360424176121349 3.9819618866200863 4.236684639010176 1.13198627368756 -0.6700107147780268 0.9948120064956867
Ni 2.0736888958634614 5.657429382252599 0.7447478789912545 0.6891888303683744 0.31310405788538986 -0.41560391362352933
Ni 3.0840191771256547 1.4952608034136667 9.475769120207904 -0.12938073928938362 -1.1044505301611365 -0.4859701220519179
Ni 5.544285463416609 7.93570549126259 12.929729787307293 -1.6557788659038903 0.138762951835232 0.9009078628463582
Ni 9.286550692735398 -0.021273895377076288 6.828135122357068 0.13179989025383754 0.5599906394034421 -0.4605966762841358
Ni 7.139850960742646 2.8549580668701755 7.124726820663531 -1.2427915639676017 0.5597931786806553 -0.0007528190056245099
Ni 2.4210763030150084 4.21996843504053 8.345518610635489 0.3941130907396051 -0.020626160890783833 0.16868005110963852
Ni 1.417002225897415 8.728039739748933 13.063907624734513 -1.032133111543648 -2.0003172310391615 -1.1140682557565589
Ni 0.03500953164081645 0.9548088038834036 9.259824562134394 0.16814706142430397 -0.01961366046586945 -0.20145595998907884
Ni 1.1230540072824997 2.83533039356876 4.257512196240816 -0.2993712816803296 0.33959310531485387 0.2170748974732584
Ni 7.190087346261968 6.381879146960972 12.439005273108469 -1.5019376795792971 0.487719757753173 -2.4344721681920007
Ni 3.330494945186624 1.947304234524425 3.89317607842828 0.6758525182707844 0.31086257014938073 -0.9844568885136078
Ni 9.272077384639681 4.069212590391934 2.183012795123994 -0.1463055400691803 1.519874723673692 0.8829301953220149
Ni 6.394699696648337 7.436936619047987 1.5200344380644681 -0.9281777543059047 -1.0196177526854568 0.8340082728103315
Ni 6.270257259879565 5.221465329555273 5.8563075756767295 0.6067561776937551 1.0752348278291288 -0.47100604454291783
Ni 4.47237359061168 5.2331373522131095 2.1917724146882462 1.0754862817183026 1.069042840085804 0.45732546173203176
Ni 4.852750802603331 0.01998250279021343 2.464351494221197 0.27089142907308184 -0.0527109572404705 0.2778364929323473
Ni 9.30225656642378 1.0112173549841885 0.4117665490849139 0.4916306627718049 0.5845387610564513 1.3818967296336007
Ni 6.870927558706129 4.9158077378100185 2.2745233202850454 -0.4549978420401196 1.4441935307902936 -0.2742685730754309
Ni 2.3323969436698415 0.334103711605118 7.380236734261664 0.26099653855687305 0.09684420011425901 2.4549088387797977
Ni 1.783802541133473 4.318769772434572 6.141076915673523 -0.44102261080695015 0.2945556054592411 -0.5437281547979926
Ni 7.889951162443879 1.999931050284071 2.94198373404518 0.5984381447463629 -0.10757264227535666 -0.4918078117796175
Ni 8.021191385208574 5.283056258716138 0.34875163315979457 2.535949753313213 -0.1687525562187868 0.8210812803360182
Ni 4.873648391969918 4.2539947154926505 7.4842531313792255 -0.06048674453114744 0.3002068902077475 0.37208979239097856
Ni 9.201363602569455 6.788121561162385 6.988621698855049 -0.039633298120905935 0.8243877190014319 0.45584373498018266
P 0.5795196600087555 5.108508163081811 4.123525779985184 0.39420924999783724 -0.4669678699178022 0.7475646992041061
Ni 7.860276212038599 8.831733989041137 2.914131486698148 -1.067739033672716 -0.8405818122627912 -1.092612656985944
P 8.117322163818503 3.5570068856936317 12.425843900359494 -0.3095356238078411 -0.3119869135618111 1.8601568846357708
Ni 8.267190934745104 1.78168290181881 5.26159374345291 0.7088703679577016 0.5049564333464336 1.420516755998644
P 7.796780408779976 4.746796849724569 8.417144677996653 -0.449891888272122 0.743511612180655 -0.03477005649133367
P 5.707301600664995 3.1663489561449594 2.91164394522931 -0.5398249630888445 -0.32579887974423893 0.44711124020319126
P 4.425340008109668 5.747117204355402 9.50977205661471 -2.448237340296893 0.9002661154973012 -1.9151597232342112
Ni 0.4416123779019041 5.166849601134732 9.37713772746376 -0.4031775149347186 0.4092998257823725 -0.8626526760199015
Ni 8.724958325767263 4.73605858887936 6.262436070937003 -0.31001230633394355 -0.9502010526545313 -0.6656886903639052
Ni 7.50981672852351 7.871182550010079 5.743872382056524 0.08022536061065538 0.7113131730712394 -0.20895895323434335
Ni 2.3457684128266574 0.4000627785254496 2.1272251956286063 -0.6430439563811957 1.2540601949028853 0.4309600843646256
Ni 0.26046071872868054 4.961478028065595 11.80920907582245 -0.7588762675621834 -0.6804941308078538 0.8227396418750476
Ni 4.6587431107938615 5.0524917919423284 11.514134740461508 -1.6580702330412282 -0.20803232765501592 2.7128542492151726
Ni 5.382315139398366 2.8293543179679483 5.291113689397294 1.9904609070703718 -0.06827950110268885 -1.8140099537660628
Ni 4.573033114012848 5.908798062211732 13.658347864747231 -0.19924481127037297 -0.0317999181194162 0.5677913663947834
Ni 9.218049926161097 3.061515517441349 8.071763924980441 0.8847433372713536 -0.16484267964141933 -0.06913285024191965
Ni 6.099332160078229 0.6138989024260489 6.67399065609045 0.5686046063246982 0.20048588276632567 0.5673910456325713
Ni 7.335446047633581 1.3861507356082257 12.723501954655976 0.9690014731904859 0.7742890025728278 -0.06106832806623032
Ni 6.153957226116897 6.5693598437001794 8.070793746457122 0.04980123979284326 -0.8828785161484731 0.1348751867450516
Ni 6.0076274124601525 2.814591543710319 11.009894024024911 -0.3195716678876045 -1.333348388411252 1.075067191903013
Ni 1.052667041846692 3.4189408640786336 0.03419529134020589 0.296050959057845 -0.40474640208373525 0.13570848127962434
Ni 0.33144249043913165 0.4284201910131128 3.866061502913223 -0.005523500921390487 0.434260095272136 -1.3006454988615923
Ni 7.3535423515622895 2.9942379788415883 0.9010670765194811 0.6854309059878388 -1.3560334887135936 0.6433306343836792
Ni 2.694014880845821 6.955330288949465 5.65693915730097 -1.604382256599469 1.6331670420416453 -1.0774318354804477
Ni 5.59727644628318 7.440765042479757 10.35656516153707 -0.9971218855757861 -1.2548173847838842 -0.4933748991564213
Ni 6.4862643799945205 0.7360965757972673 4.298252224125723 -1.3648788549193656 -0.3892295373950587 0.16572662490826942
Ni 2.46022893581845 4.852199883133881 10.784860228467291 0.13113114632158707 0.37393353046793665 -0.5100248490082765
Ni 3.1427808079942587 7.066690722723337 11.992013493404023 0.5925606029196633 0.25106153883134824 0.8204955830358772
Ni 1.2629221891958675 2.933468760075836 9.962503670181372 1.2005069442667775 0.44310469014695947 0.005847717030028639
Ni 3.1203518492549636 2.534976568919225 11.642094657978445 0.42438294536774007 1.0947885815913405 0.6802555324344864
Ni 4.968583955459685 1.264827063293626 12.881131220007319 1.0683902941034695 0.7876294284354758 1.4374801233258598
Ni 4.290943670418294 8.779592729424058 8.447020387191648 2.0625065600837122 1.0077418271834775 -0.9471270417148979
P 4.153736709670912 5.6450196877627885 5.9938338829640285 1.0789786111422772 -0.39672867398558126 0.8026824661138564
Ni 4.356783215826608 3.4403987105327976 9.586810207441857 -0.40792325714982003 -0.2679508583875192 0.2942725270011835
P 4.825774423836543 1.7095031137027588 8.08477402831577 0.26064789696820273 0.08381976283013305 0.5263613813847708
Ni 3.5419826581284664 4.3258383493561565 4.461430835929506 -0.08293221801885718 0.12435397549875359 -0.8264109200790477
P 8.57855381116551 0.14446229003149155 11.20766290841564 0.03147750178299095 -0.029694184630323053 -0.29714727744581726
P 3.486069000788374 3.785405025062146 13.718207599507487 0.10634828294995233 0.726438201638136 -2.5642167185787064
P 0.5628688193659945 6.634452379658394 13.355142331521934 -1.1205037269692573 0.6604500676727851 -0.7248281768385388
Ni 0.6718985836555497 8.129629144508923 1.547299349231358 -0.35296515574638565 -0.9908751333351258 0.5395367424244643
