# total energy = -381169.7580640831 ev
CRYSTAL
PRIMVEC
9.22397274486665 0.00000000000000 0.00000000000000
0.00000000000000 9.22397274486665 0.00000000000000
0.00000000000000 0.00000000000000 13.50021648556067
PRIMCOORD
 96 1
Ni 7.23275670615479 4.550453158153966 11.000151782749207 -0.39612240786015007 -1.1435333550952111 1.2696356807436393
Ni 0.42758647190695304 1.9370988050255304 7.7218938245452176 1.8867161231815377 -1.6931634771999355 0.5601919567809707
Ni 2.5789304875413106 2.7375920395145505 1.4174690781522752 -0.22999880462377809 -0.07329778025288668 0.48779200575200515
Ni 8.481488887108526 2.0005320643081284 11.65291387274643 -2.43849748730131 -0.7534435265823863 0.880962787182999
Ni 8.643664772626433 5.462159829776952 1.327774246599285 1.1193634427172272 1.8582157017489997 0.8476495177428499
Ni 4.671204182913089 6.338215847462576 7.09074534704632 1.9700036676572847 -1.5380665640913704 1.2664706527520964
Ni 0.13914085884836513 2.1324533198352067 1.4586043061727307 1.070132473605557 0.20963463914512928 -0.7062301021213773
Ni 5.971701297863326 7.285231886038272 5.304127352732181 1.2121802668396477 -0.7825234746674781 0.3687188190362166
Ni 3.5071019501806466 8.105150806734816 1.5284537607667983 0.005355864995274647 -0.4144268625962927 -0.47694837816928176
Ni 1.4114246089349 1.8462426753274657 3.595053450920141 0.9073394774043148 -0.8044436717793371 -1.1856580521794031
Ni 8.163999751656 9.092899908127432 7.271216059736119 0.36335909738620004 -0.25048715438511704 0.53527333916242
Ni 8.43303535926041 3.8807189586496937 13.420227014893555 -0.1859612067875894 -2.265329575623647 -1.1479862486602421
Ni 2.677590098023595 4.606516463362579 12.350942608072916 -1.108834003940813 1.1584033302285082 -0.9732252814638466
Ni 4.163793452487654 3.4625409387520834 6.862375467259152 -0.755048666285977 2.117163328196644 -2.6443083818249753
Ni 3.9375294056355186 5.3347767687484975 1.4587795616513364 -1.2844246661273557 0.9345790298465582 0.7004276365069873
Ni 7.6041322892922 3.790822122097679 2.385056420327222 -0.3676083595808572 -1.2633377635500695 0.5339638763223772
Ni 8.209769103489686 5.176096768830142 8.975159588011298 1.1558813351376027 -0.09987167408667316 0.5787946594838225
Ni 0.09474218933682559 3.5033385693769095 4.338794349450452 0.2906719541341187 2.1995093346947283 -0.5452332785886095
Ni 2.7951496282775885 7.294031555858775 8.091368346938385 -0.5429593949527681 1.0045752565300377 0.5991901924210391
Ni 6.77323684125142 8.709957463402066 0.021174551404556076 0.20817785209394468 0.6188933272769213 -1.0070165189816787
Ni 4.936882264506323 2.8854523196221624 2.1896271913398246 0.5237239437619239 1.044237093896034 -0.8121266422458917
Ni 0.9901012143949508 6.412717873814989 12.799865050904193 -0.7208298543124231 0.4968679999113442 -0.11908578512127876
Ni 1.0982707405847179 2.428487495117409 12.825394239753466 0.6533887899506295 1.743136980904585 0.5584122391727286
Ni 8.751908090596665 7.899954313205563 1.3387655322996115 -0.14980249747884522 -0.09021615327478011 -0.6663705469222782
P 2.013473297807254 3.0916542261602573 10.89171752854702 1.304044240130496 0.36338892218287094 -0.15307551180316217
Ni 6.4565501914114565 7.760976718671478 11.275380365529179 0.5127401910569105 0.3166778912795772 2.790190204093175
P 6.202688018665249 5.7793814700252915 8.694476870257674 -1.4937643997398855 1.0773873553957576 0.4490313400440396
Ni 4.817007517140227 1.1942185031348973 0.49334417227421223 0.9663864041651422 -0.4932340027031828 -0.2104730758860246
P 6.427762173057379 3.1217612725901542 12.834547187722945 -0.31881627777881866 -1.1770201739987471 -1.9195030878045718
P 8.237634724587943 7.56091797785713 5.371479877954749 -0.09466981817075953 1.4113847117903886 -0.9846031842834849
P 8.502021450023033 0.8280387837395105 9.631364986964488 -1.0138780219882024 -0.4632176588467506 -0.5066914137596693
Ni 2.241812738484979 3.128245725298554 8.768754754076923 -0.07577452392815337 0.6195679847464427 -0.15166680438109365
Ni 9.027501942689941 8.585904256467115 3.514821492814587 0.33062381193670803 0.11471465263677663 1.1930165494270033
Ni 7.6488224363365775 6.561057800495625 7.158880987539078 -1.0795830774954955 0.9488360539862046 0.7752215416894261
Ni 0.469277905472667 4.459218845581016 11.368680847955162 -1.0120168004097472 1.3451469237080769 0.555265723123947
Ni 1.3546510578393074 8.674675768367031 6.160364742979301 0.41073604400826685 -0.5459004798589631 0.24229664815452465
Ni 0.30449993729609875 7.437759496260322 8.381649530536052 0.7668142914623375 -0.025489659630672228 1.1522357679652158
Ni 3.2151816666593924 6.9481418088996145 5.572929593830869 -1.8614604339385428 0.9620258132036014 -0.1848990840716622
Ni 3.228261259746891 3.6317178194416475 3.9683614563084886 -0.6946513961448423 0.230118618031094 -0.45845057647541043
Ni 7.747583510517002 6.021234030500748 12.620393294442446 0.5230595707050476 2.060410339676316 -0.13442138703708462
Ni 1.4609573415723223 5.2787595834026755 9.108096402917031 -0.2856151084365017 0.5654974281542842 -0.5567171108584928
Ni 7.222388960999397 7.683633708771146 9.331727005603806 1.1322976342803919 0.16094797257270346 -1.9795969677726744
Ni 2.7036754924181254 6.51306547127542 10.72832500104869 -0.2653933820729881 -0.37755441504997556 -0.14558126030864607
Ni 6.717791542204206 8.004452698317175 2.832817565013425 -1.2083022719414802 1.254209833106872 -0.2813990134726251
Ni 4.933118883702587 6.1441895847012775 12.231992102757149 -0.41081266288247315 -2.4824967757003953 -0.42803879695277247
Ni 6.42648926484435 4.273060631411844 7.11862388170616 0.006009953639505778 -0.24144432745655836 -1.0343049223839864
Ni 4.684468255451751 3.549901182850598 11.4198729732558 0.8471687214516894 -0.1863764399481371 -2.388608830000983
Ni 4.939566440520754 9.083159393105994 4.317126315514033 -0.35257563361745087 0.04520924954678666 -0.7564794851952327
Ni 1.8899181853904439 3.0797645255327644 6.000778948955731 0.046761167414938826 -0.8189984296650605 -0.602509229491943
Ni 6.06960454259584 3.654676287138955 9.307751133733332 0.7252020152381898 -0.899689931278857 0.2115704227152614
Ni 8.228456871892556 1.6797960905151228 3.3024773429500005 -1.8358920985511349 -1.259889657100469 0.7762458691888825
Ni 2.882998742921687 1.169590496404559 13.045461621841016 -0.4525198128132723 -0.5644497036160602 0.39825796614591413
Ni 5.570089532680207 8.736716207793343 7.8103609453507135 0.20475288557279575 -0.47816990928120867 -0.5044036461667571
Ni 6.138341586099391 4.8324576711751766 0.49256751378481356 -0.222452616845404 0.585829711953733 0.9003825864705074
Ni 1.4754020825984309 6.6233472871810095 1.7267313524801615 0.8897726721651451 0.4180791146368994 -0.4606792086956131
Ni 3.801033059719584 1.2308837940536597 10.965969585243107 -0.011740685475695909 -0.28322038295208 -1.2137414406791804
P 6.677206062948218 6.902104961861743 0.9138023581882044 0.2475203584473092 -1.3899985328051288 1.1263817830165892
Ni 1.8291875500673926 5.681007802692311 3.7773468205874354 -0.009714141963970368 -0.07150186469472848 1.0271045479808052
P 2.5767259580999062 8.95764879850685 9.723922017202282 1.1467978847790958 -1.1523707508811831 -0.9831289137308037
Ni 9.119501844985221 2.97016528359648 9.690118002571069 -0.12616274657271823 0.8980611374261823 -1.0182329565227883
P 5.845877088197204 0.90654032459315 2.4514505748009956 0.7329389788711314 -0.45065422035944325 0.3329398616643943
P 2.9878199670728347 6.735842856500562 13.395994716585964 1.1269805929428527 0.004123278139754189 -0.21516868158948102
P 1.4422880211145677 4.394180615073295 2.038167717140011 -0.6490953047815983 0.4000024596408466 0.8591652316919333
Ni 6.043583716009217 1.0500016921877664 9.605039769283445 0.7320462918535328 -0.5475125615410893 -1.6181505140281551
Ni 2.6782357761026674 1.2372114392285705 7.530906860741839 -0.4545985497191719 -1.1730833008381862 -0.029946152740129066
Ni 0.3204029883836554 1.4166453774028296 5.573915636497339 -1.3597579887530324 -0.6275350621123192 -0.9516364995494773
Ni 9.041577724813724 4.020738862082853 6.886771029881024 0.6079810512397916 -0.4121910312872385 1.04596873187516
Ni 5.979209611525685 5.392380477374327 2.830414720162019 -0.5211117029500574 -0.8618666897834963 0.11458892569218976
Ni 7.395172414959209 2.750136642193674 5.299847429465185 0.48842141180588794 0.1486437012840537 1.3047422946387852
Ni 4.20210983449433 5.134219933416008 9.381961682552907 -0.4491503821204071 -0.013093857069480677 -0.08795795336822271
Ni 7.530091461567696 2.1492409498910927 7.855654340200396 -2.5672354508003723 0.3381481453382112 -0.08198296673171042
Ni 4.627445657097088 8.258490126541988 12.54627775254022 -0.910733076466896 2.449476612020633 0.9218975777241477
Ni 6.080756325418679 1.1326761582267262 11.723358273570499 0.20835860064618308 0.3296187677109614 2.449631906651575
Ni 1.27632108287525 1.0902366604865437 10.776952861978156 -0.29850867656971813 -0.8801235791111552 -0.2625548841829285
Ni 7.924591543908459 6.21570304394484 3.5145383168570503 2.2695397570502527 0.48503192650836474 -0.059103748140691754
Ni 0.5974053410865662 6.268805453962278 6.184705884163079 1.1476106104883783 0.6074069239038765 -0.1821598307636282
Ni 4.369764759711794 6.732771273638689 3.6096070348224356 -1.5295549270759337 1.245589695538029 -1.5982411766987377
Ni 4.706873284795568 7.635669051468613 9.91397828217454 -1.2365155011509026 0.19288904425567427 -0.790275093588439
Ni 0.6348777296041691 0.10042507882991976 13.256942407874156 0.502739885311089 0.9092760323053954 1.8423653649803042
Ni 4.363593922070373 2.356328357794773 8.61123420750913 1.1152733318082535 -1.5527272514273387 2.254345308698001
Ni 3.603759958617806 0.890121653439591 2.6377665189009125 -0.10084277975069085 1.392212766847628 0.13652352098175197
Ni 3.1707405668740853 1.3132999888609904 5.047312586370101 -0.3498718615330426 -0.01591487145804356 0.28937303281703713
Ni 7.110142438938914 0.49226220029313783 5.315345548157437 0.8105662397373072 -1.4333023377990863 -1.0580035515525068
Ni 7.837563362822039 5.145196460760242 5.445595419856973 -1.2669812738399275 -0.5850804924925344 -1.8788840287316286
Ni 7.154113116123755 1.6391737153689019 0.7150561886688855 0.8924309357235984 0.6525123008829471 0.8565311365031958
Ni 2.304987726535948 8.498055141823016 3.7798852578354465 0.29267715748960565 -1.1974997820093376 0.8869038352577823
Ni 2.418211989687597 8.449564718084668 11.89028819454489 -0.8239112935856455 0.05970281517727138 0.0743987266265493
Ni 5.235757423336445 1.3543558907174456 6.188337362159234 0.5105372698683208 1.587742591160259 1.1796532407462201
P 1.5128883070748709 0.13968046124301864 2.031903717375752 -1.033018085251763 0.2940961493243193 -1.3455721841709536
Ni 4.144598365594082 3.620492244838343 -0.0036102628592713224 1.734394973045897 -2.16927290440769 1.7803251599191081
P 9.241498106039698 6.571277962090088 10.793018254982735 0.21538979646135165 -1.2736311750562774 -1.5064507369583024
Ni 5.445612023007579 3.158491131316824 4.320204355156697 0.202228062268413 0.5126640864033364 1.3889621211208143
P 3.8285112739703995 8.982507404551143 6.569947865247199 -0.5244430813161355 -2.0727089545380104 -0.8848186705939795
P 4.803097766522494 5.202505002264208 4.973655475904017 0.25510665543499933 -0.8311404643442332 0.7002381462040005
P 2.0376124339920088 4.883309431888419 6.895303204497341 0.8061112892897472 1.1298095777512156 1.7139292489923772
Ni 8.775143277470718 8.449472478359088 11.544088522107776 -0.9971028594123923 0.6788442539092566 -1.0248656313479576
