# total energy = -340898.27762924205 ev
CRYSTAL
PRIMVEC
9.01685485148270 0.00000000000000 0.00000000000000

0.00000000000000 9.01685485148270 0.00000000000000

0.00000000000000 0.00000000000000 13.19707851280695

PRIMCOORD
 96 1
Ni 6.485075197945392 2.042552031292055 11.297780826517801 -0.03586894598246726 -0.11588193347200043 0.5174928752505474
Ni 4.46250451670297 0.6695772042083379 5.948042151313582 -0.3018678228499382 -1.0095318292043645 0.6844811404800598
Ni 2.520787971694781 1.5729812882709608 4.552226729549935 0.8586342988891277 -0.41963077539473537 0.7937728223290523
Ni 3.276039722668279 3.9901114981559127 4.667357537299815 0.5225787744138871 0.6677358027009209 0.20126235592103406
Ni 4.867767051892844 4.462621735814272 2.689538407696083 0.6469867430790276 0.08633661571471582 0.2369245852093339
Ni 7.112729437839306 6.0419418729502565 2.638689658898747 0.6475672981728461 -0.5826587704249191 -0.4152699273228784
Ni 5.044181814402354 4.643553942536267 11.32458432884521 0.2949767521570597 0.29660965977479237 0.1376622625718855
Ni 5.529423850919053 7.811625846840688 12.25346102747923 0.06514558345939749 0.2469014939163877 0.40537529391698573
Ni 2.0304604291185178 6.533982617922472 0.4911282392750032 0.09927466393262258 -0.44124706811293046 -0.7431424017666944
Ni 2.7555147336496773 1.598273565748046 0.4103516479913239 -0.3258772983906581 -0.7180448353681183 -0.5540884149863942
Ni 0.6543612618758666 -0.08414348483446138 4.532562772786289 -0.6620469798462598 -0.2632765928403014 1.173980615841475
Ni 8.487123517855247 2.4481752406705506 1.3137999146420531 0.3556717560442713 -0.08823614673027383 0.24976955949280208
Ni 6.768952834954688 0.6196553880757594 4.843723608793861 0.06265032784136952 -0.047919706499414245 -0.7976785851413617
Ni 0.7778912697932714 7.298575830381267 2.502667700458435 0.22943444747987585 0.042367409222617364 0.042435029235759175
Ni 7.50190590421666 3.7414446788107942 3.7567327559809898 0.5894976477236235 0.44053384409598967 0.17678108295021813
Ni 7.632560129044811 3.9966306841152472 12.521968533940418 0.507726539892403 -0.7003880415183035 0.4504593307398178
Ni 7.761789690827908 8.76088424387371 7.0167414126505125 0.6295004133688061 -0.37854223288454164 -0.32003523778758425
Ni 6.787996432113905 0.6429143648144907 0.2575926038280299 0.25566381349005 -0.03608414731706689 0.19389794513616282
Ni 1.9210048297265971 6.281240180245931 9.370321732185822 0.22235542914590736 1.3502281948857264 -0.8262162875697384
Ni 0.19778200312892047 4.865819411274288 1.4485775471316205 -0.4844984226023979 -0.08713108659155316 -0.22873999251601249
Ni 6.411831287091074 1.9501292704577862 6.877577982027308 -0.10197792179639856 0.4308474700461612 1.4110309279953956
Ni 3.3502123695582977 4.267172393000261 0.5184772613127029 -0.07796047583587863 -0.09702212045302001 -0.28311188239867374
Ni 5.940889982153218 5.6946757472907255 4.851998376366311 -0.0871555120715854 -0.7080794966252902 0.18560459477911903
Ni 5.3212877935202805 3.0565604620373583 9.28015949682874 0.19296514890924832 -0.6375502802564762 -0.4180006959904801
P 0.3223237021454086 5.59535509259907 12.482337654094684 0.4253630498928223 -0.9765957405979762 -0.37201163085487543
P 4.043085519609701 6.097954574443182 12.687182559522284 -0.5486500175796423 0.6246140318107823 -0.3553547390244847
P 2.431223553805338 8.436845535961407 1.3848094488978613 0.9387910110453769 0.7885863930321064 0.8239544881187553
P 6.201359864320976 7.702377635107224 5.8029005460139755 0.33993377648372425 0.17043302924500325 0.3463864740876035
P 4.744191058016391 1.1189646196341707 12.40459343105184 0.013582880890757255 -0.19579824748266925 1.1199866781235228
P 4.076772488826952 6.150378567759321 8.297319627778636 -1.2539702062922404 0.3071085024235872 -1.006655536097834
P 4.664941921921523 1.0982438874978635 3.735683810333037 0.3410792029420771 -0.9511587885821103 -0.21415361006140535
P 0.2295655143157218 5.490732527334678 3.6030792398299143 -0.5402869903269275 0.48089656418375243 0.22565132628835977
Ni 1.2615120758321174 0.9753531745797903 2.570262551833469 0.4828462317109556 0.6628926156760068 -1.3894421460810265
Ni 1.7787098454606853 6.6442948185123685 4.806190951040433 0.18385830151197366 -0.7856730760400533 -0.30175340875926093
Ni 6.036937518583133 5.6055080710087655 9.104466082696472 0.002317592389583105 0.37162982203542444 0.8957695131785283
Ni 8.60638043832296 2.3641291378670166 10.021967117421367 0.05771226710980383 -0.2827863807384549 0.412390034671922
Ni 2.48049164797104 5.249739051352482 6.781266251754227 -0.7845944982638939 -0.6036209744988831 1.08501067626897
Ni 0.49555461325486105 9.060406123814465 9.061919152035731 0.45562699098368625 0.31097672712974184 0.09486110824595921
Ni 1.3738981530065884 1.132967795007402 11.345857794175581 0.19410234783748506 0.1683092980337811 -0.18341118667222606
Ni 4.230022951572243 6.729594264121363 1.8826155707751921 -0.17695386108265654 0.3978100799752181 -1.0725760500500432
Ni 5.528341828353188 7.85762082274465 7.958445488802857 -0.3699958859764273 0.6879824687650989 0.17989674576106437
Ni 5.349708919583657 2.825359290276238 4.883552859443337 -0.19304176778345464 0.551902720188985 -0.1700278233867846
Ni 0.729651097065141 7.267413580484367 6.975302653434313 0.2350520507769694 0.6433717720342598 -0.09272220752608548
Ni 4.982389309036769 4.544512810340792 7.069925526819174 0.9487344954113338 0.1800841791815221 -0.5861544422830034
Ni 8.30620032798797 7.058781596076239 9.240594440022427 0.11427730798904191 -0.05343112323594669 0.2312964403892791
Ni 4.6771236926422155 0.3784626396043507 10.373457639515129 0.19780062262467868 -0.5621030577607545 -0.432678609717629
Ni 8.080274016235439 7.124748905175117 4.845425990964155 0.3381363182636693 -0.18606867889973117 -0.3449502558617092
Ni 7.40428943506624 6.1284044928175545 7.198332751452212 -0.23394930463109387 -0.040204597243343666 -1.6061488615815886
Ni 2.4300874301111803 5.206927025163107 2.5508763141950617 -0.7480796911673117 -0.10450171665951678 1.0386917385977725
Ni 2.380377510064417 5.2644365245388105 11.460462017610073 -0.3812650311323434 -0.4409807018254212 0.5513244790880117
Ni 1.110930602082626 3.3743054053582164 3.763001273379232 -1.4576257450357992 0.18809676507335346 -0.39003197869169604
Ni 3.686090207712104 2.439149369100296 2.3668296858543205 -0.0032308482324718553 0.3839562048112613 0.8560865927666096
Ni 1.2013786717341917 3.2656523060359786 8.212397086696752 -0.6870627851643071 0.5401512360800116 -0.8039662179222864
Ni 3.512840361207749 2.7820964213510844 7.23932337298905 -0.27736726660541267 -0.1517508794544677 -0.9738325760305422
Ni 4.0756363651327945 6.94625124922632 6.06839912805659 0.2473601787203611 0.6698587625811947 0.17719734455203032
Ni 0.7833455652107006 7.46306129410212 11.456344020061488 0.23112134826399547 0.015510951151405545 -0.4238139602381475
P 0.420785952268145 5.451987102622009 8.061289930317345 -0.612824495375022 -0.17021371414534556 -0.5481399107124431
P 8.447485424525741 1.6791998368200034 7.86047014883476 0.19667345099877095 0.01934395174425056 0.20327013037968217
P 1.7530749275044097 3.195239687562339 10.30541374877526 0.3227390098719926 -0.2184766629167915 1.5164276456653563
P 3.871449690099427 6.045900272170377 4.068738471275408 0.06977382626002822 -0.20643798658470255 -1.0294604498074915
P 6.933212877307651 4.036629451633376 10.408034572292804 0.8118389358021437 0.1038327156169502 -0.0657356516349126
P 6.332825606073525 7.617979874969786 10.032775621168884 -0.17264983439066398 0.35842592175064075 0.8653453923607161
P 2.425254395983652 8.514435570788613 5.834863492609617 -0.4615739525957405 0.1559654317564475 -0.26359258141882347
P 6.768114267466143 3.954512955738967 1.6442243590639014 0.9379903695209523 0.6089740112806803 -0.17256807331013505
Ni 5.3377435533761375 2.9589710434510863 0.4080514483533901 -0.3245616649030281 -0.7402074875080865 -0.7692974628955074
Ni 1.4494503786680846 1.0875949820788124 6.931382455800397 -0.532265919794664 0.5814930322515921 -0.07843021638344556
Ni 6.996601365957886 0.6305847176764634 9.181432151177365 -1.2909490975094347 0.31034886373775583 -0.6702097181627104
Ni 2.8860427225118115 1.6044951955017677 9.22473108752138 -1.3452721364320317 -0.2829956685357836 0.7951743306622693
Ni 6.390425273996385 1.9375778086937567 2.515825094859349 -0.6695507444224726 -0.6700541664214525 0.2118038788823062
Ni 4.067503162179379 6.950588356344493 10.457180037234375 0.29623196472039953 -0.403410199770815 -0.49440719707567754
Ni 8.20834040376023 7.160140059933607 0.27551630763157714 -0.5447931057273973 -0.19096303087755498 1.0949302493755273
Ni 7.648447827053589 3.9271287679678766 8.201628257109984 0.330507855184134 -0.7617931840986621 -0.37384688429140134
Ni 3.0283918079060164 8.496392844502822 12.298199053835845 0.5173234395522187 -0.3008820618979011 0.2725518474946403
Ni 0.14433279343162342 4.7333437817935975 10.199190691798862 -0.4317069898329791 0.406683471205448 0.6540940435477703
Ni 8.54225256758605 2.381089841586945 5.6380949839507215 0.23531353196847218 -0.6151413164336567 0.08868763244539565
Ni 3.588816379040875 2.8302103581131974 11.559651026222882 -0.42915979793109316 -0.4537259173062315 -0.34191198325601757
Ni 1.1441306611452384 3.3360739413643334 12.639132642428654 -0.5743877886653785 0.21785291328986353 -0.21762228533629618
Ni 2.9496746662393662 8.404556179225063 8.03940963066462 0.8545634712538638 -0.4648446529272124 -0.24759260644614134
Ni 5.647039703828536 7.753160560865137 3.5305224133049196 0.16654552126513897 0.9819729457494893 0.4652493445647988
Ni 3.287121437113676 8.275957797272055 3.72684188259898 -0.47610634188396067 0.5430108170159939 -0.37880165719351533
Ni 3.38666751317322 4.3746983854830575 9.344415406902607 0.13294248849871296 -0.3475874363742401 -0.27975067923592467
Ni 7.411016008684032 6.220114922129295 11.465608838281703 -0.5925156086143408 -0.5599898680724936 -1.1593682652449386
Ni 0.5574264669419425 -0.06762100025370879 0.36025941330462186 0.4118932975411616 0.833433631253784 -0.12762930381591567
Ni 4.67503178234821 0.24625481070871189 1.4537901908426731 -0.6735308121161433 -0.3380666413679984 0.14537891448985285
Ni 5.988922767222891 5.549585538062997 0.3322512591872164 -0.08400462514742951 0.5347308363953887 0.3753147270861794
Ni 7.791752699047642 8.831368997185074 11.215167501928567 0.6400864164147686 -0.07048422206349152 0.803679539919803
Ni 0.10295985725484694 4.763460076543495 5.7167634346019085 -0.14240543368382572 0.6747343455059412 0.6104117721684713
Ni 7.8497581254327 8.622746029631662 2.584845510964909 -0.23049322776169337 0.28677853261698355 -0.3496733723689914
P 8.35662257955726 1.534830975969518 3.4755033692016473 0.02478080648910571 0.26844065353974417 0.7616355754748754
P 1.7057905413761263 3.1480635036906426 1.683881387788311 0.3092178354571061 -0.24153174496404214 -0.9862561465058756
P 4.7219915617067345 1.2146244313113177 8.269315982088589 1.3588059092524083 -0.8077714506009894 -1.208127179816197
P 8.541513185499376 1.56233238285191 12.465274158231 -0.3490259685929796 0.735451717990656 -0.608985581244906
P 6.304368412591287 7.6437139783279315 1.2355119752598624 -0.37066822945310357 0.10005782195555026 0.7527202752631166
P 1.693022675098924 3.1779002759443586 5.954877828873432 0.6739897540304327 -0.43658257275772555 0.0587525354488601
P 6.9095075662605 4.040795238511954 5.981510010961246 0.08405707565191975 0.05477143931392503 0.35495004738689834
P 2.3506669737767183 8.436286490969042 10.1377841078151 -0.26182623354702006 0.4650228303762895 0.7475639278731577
