# total energy = -340893.09350183356 ev
CRYSTAL
PRIMVEC
9.00851787109243 0.00000000000000 0.00000000000000
0.00000000000000 9.00851787109243 0.00000000000000
0.00000000000000 0.00000000000000 13.18487649928844
PRIMCOORD
 96 1
Ni 6.425154342881333 1.795478725581664 11.367961543611035 0.44702022315128176 0.6755861519832752 -0.18808416666786318
Ni 4.5354014758248145 0.425211060846124 5.990786123429459 -0.12299129082327205 -0.7363102093362094 0.6890132240224585
Ni 2.643729794421983 1.5761663534645716 4.788931802932646 -0.0635638407945744 -0.15453204174403065 0.7680823595414836
Ni 3.081949155343567 4.148909025591106 4.3711824975937965 0.6963740352629039 0.0319770671272288 1.3961177583289892
Ni 4.876301816168006 4.3141252467711215 2.614429589438995 1.0935973894967168 2.087568902368979 -0.4506480497118561
Ni 7.232758978244869 6.131557730859639 2.677030682274439 -0.158587699870643 0.5850054162802247 -1.8526703464507384
Ni 5.225372882389621 4.463243246181852 11.42158384649827 -0.5177710686125986 0.45129211105375827 -0.6211777524357238
Ni 5.826637411639292 7.626665438840144 12.422487857235199 -1.47634209049838 0.8934928013292096 -0.3428836031406675
Ni 2.005764562604843 6.578073936912456 0.1747445307297485 -1.0941326931748963 -0.5107406441283785 1.3973919970557225
Ni 2.8018923459627425 1.6593870432825095 0.40986414948285926 -0.7763957645031854 -0.8961410375853339 0.02381407170046221
Ni 0.4007961752058798 9.212831247348872 4.806269596786684 0.11468945582579602 -0.5358914323623932 0.36009996701895397
Ni 8.575226356254044 2.1500720133727094 1.5659146599147973 0.033641342203529156 1.2390143563133567 -0.41053189841726073
Ni 6.690482225237659 0.682487129762389 4.8529580433248345 0.3764619533167452 0.6225165258518053 -0.5245281848307741
Ni 0.6926631517604775 7.54265199943312 2.590340812152443 -0.008356599494811413 -0.5267843278548024 0.32755442898276493
Ni 7.245605124995287 4.103109719785261 3.665501136387995 1.9258956215944765 -1.8390427283649748 0.2799255142508921
Ni 7.591487175824443 3.9391456826152793 12.391964295499964 0.9190652504816752 -0.7282215187908039 0.15410549572957333
Ni 8.079037181630529 -0.28356742886794845 6.94361797925456 -1.0201782531746173 0.6381048672083656 0.04744302397331184
Ni 6.8838590738663505 0.7247001445294248 0.29307051456711963 -0.2908496173625636 -0.20543731323433004 0.6583713307668855
Ni 1.9206430754767096 6.259812002448509 9.52848611668689 -0.3540095378505 1.2719216485643385 -0.9812435237826326
Ni 0.15682118320195357 5.07212898170842 1.2700902413774087 -0.6060930901884595 -1.1963137321210364 0.21941562979129312
Ni 6.220516846680394 2.190322072054951 6.919159852727638 0.30635208387353696 -0.18855904942175267 0.4331578633468927
Ni 3.393914135685112 4.346024409213784 0.5630035513545908 -0.6125553008740354 -0.7544215742249394 0.5316601678898649
Ni 5.954756555457295 5.65534944928832 4.863874565507274 -0.11522115995954996 0.9367665244161802 -0.13509758716850281
Ni 5.120333561835697 2.795901681454307 9.564032828091156 -0.48031086688361146 -0.9214406926923874 -1.8615223975247297
P 0.31800879510652186 5.509735763402073 12.333529642266251 0.43045409126248446 -0.46914945095015337 -0.3391789005955707
P 3.9809091723312306 6.002997169656804 12.576921783151837 0.22671319189397082 1.2095220032811944 -0.4630104279319509
P 2.159891298055709 8.537615793362736 1.5448851753606736 2.1361671229926564 0.4445432223656989 -1.7865893956612653
P 6.343185837073429 7.730848950178578 5.710963535518137 0.010640510432981675 -0.3528962501816632 0.7517445416134085
P 4.768100505775794 1.0658518225264297 12.67380479145623 0.13445455426786523 -0.27576109846055735 0.6234362094525973
P 3.928794895366869 6.218264717165945 8.283293617517623 0.5295284662588429 1.0237981093153916 -1.6712155121739347
P 4.569408631493001 1.0945169269863428 3.9054790489296765 1.0776650345371763 0.049972475263384906 -1.2208099174901879
P 0.21708906986042806 5.6073790906305465 3.4818093455232417 -0.79098497517127 -1.1689093719661545 0.41040642858299
Ni 1.431687740853607 1.1776295145875875 2.8320591703828906 -0.23802835979647394 -0.09834443880886932 -1.3310727050031979
Ni 1.6481624297824933 6.467971829210048 4.827445019333345 1.8045392952714663 -0.11440612025742232 -0.9726138731320927
Ni 5.848113718689082 5.662520229662327 9.136236322562443 0.9983922676477773 -0.6509691247655434 0.4572676119109028
Ni 8.590612905096762 2.18938518617694 10.036697158658537 0.7970689765818207 0.9249008833268458 0.7239198060916565
Ni 2.516313315012488 5.137530822808033 6.947256519698104 -0.4073409022837888 0.4913118459798055 -0.6653392774442864
Ni 0.5840825827580324 8.870399458935854 9.156540621412915 0.638233679476746 0.5182300105268882 -0.02457640378778348
Ni 1.58095888507132 0.884656292015492 11.478332105151564 -0.2707068238661015 1.160358654182666 -0.6673192839887927
Ni 4.0459326556724164 6.913551149384853 1.6616770085728017 0.9220904104612441 -0.12602647810517004 -1.4234046190694003
Ni 5.831655156197485 7.854806158653878 7.868628828761763 -1.3047065563048434 0.21048001786456008 0.18709043529602618
Ni 5.309944849916229 3.0792916425165164 4.617778968352542 -0.38193120396143254 -0.5640722656719833 1.6884843265567113
Ni 0.8170996133964532 7.239533383824332 6.767414969451254 -0.5299393285440164 -0.37082995184194845 1.8048123464271952
Ni 5.097478951523063 4.6316394742362705 6.931816820598844 -0.6673611929703216 -0.10708336134376398 0.46718024303892447
Ni 8.000284716769258 7.255595571521386 9.184690438639922 0.10674320439552584 -0.3603856165801729 -0.2870251014101508
Ni 4.585029401805223 0.2555338215238869 10.690904748533887 -0.2220121868738757 0.10910836219359274 -1.6996961361121308
Ni 8.226857954440936 7.14847528329611 4.651347409191314 -0.6751647481751404 0.31536739999826974 0.8226938762387765
Ni 7.391921475290044 6.11346862659958 7.190754961096774 -0.5709288835825006 -0.10747288347269879 -1.5410876103058815
Ni 2.244057882269716 5.549057944724362 2.6122405195509497 -0.13846830341294863 -0.8002674289144605 -0.9473525274621427
Ni 2.4426326458177576 4.852672473302403 11.462298744712296 0.2566526597658806 0.3753676918113019 -0.23988006829323208
Ni 0.8870579629297008 3.4320381841057133 3.874205077640225 -0.7072886252928786 0.085579168723401 -0.5086505943685692
Ni 3.5403475967146187 2.532141281240039 2.4525978684932936 -0.006856617910517223 -0.544946600586126 1.0080891832205672
Ni 1.2287798801197645 3.5197811499886655 8.28624660973697 0.641108944142012 -1.0554522458855629 -0.2950155758147951
Ni 3.716905542129402 2.5372310939426947 7.180049238236887 -0.31469119986685157 0.36718849843461926 -0.04168246734045079
Ni 4.02558241337985 6.913470072722333 5.825737460685318 0.40877223541367663 0.023832840753539596 0.5038326041546355
Ni 0.6246425344614621 7.483628189118427 11.494668151797576 2.4234105110612005 -1.5735773554034707 -0.6074364915902314
P 0.2516871843132071 5.636179322861326 8.246639759244056 0.32618968742475435 0.1880707969314245 -0.851088882441702
P 8.564542253837494 1.6698008901573238 7.950072137966898 -0.3569449663297401 -0.9568237001773716 0.0009222547039532504
P 1.8787264409537756 2.9141204639267904 10.378014593387803 -0.30531721485111935 0.6095064867453825 -0.14443197719555126
P 4.053878168599394 6.0689034877676535 3.7624895443536657 -0.2519513976354693 -0.332225352095873 -0.10809509043772995
P 6.872184034463445 3.765704684448494 10.19351834186049 1.0828638051292965 1.1233031440912655 -0.27238858244389863
P 6.326466027558157 7.935126105657206 10.328003805389939 -0.9515169432524775 -1.1634511770650608 -0.8530190095848793
P 2.3552139865848853 8.355013132331171 5.6532531671362705 -0.03889256330013947 1.1745737693407836 -0.22960362606788845
P 6.902812995859958 3.9865214790812384 1.3696190514353785 0.8482557838682809 -0.28849268709461284 1.621551569289904
Ni 5.387102807081269 3.0759404737990153 0.1871879967229849 -0.48852477015297163 -1.1275534347271872 0.31901116739844415
Ni 1.37525838373956 0.8391749868970871 7.034791388813923 -0.07170729583731522 1.8217289196768753 -0.809757884903399
Ni 6.886642705946211 0.7886966568120218 9.10000406293398 -1.0491846677092964 -0.3931437848478003 -0.19529225438052816
Ni 2.6942675807262297 1.3111717862763852 9.12945921442756 0.47542140000179406 -0.08636541207012223 0.6694237319263052
Ni 6.1510341469005985 2.1612155502102057 2.5400138251707483 1.0942507068099991 -0.5874137686114013 -0.13639393738242317
Ni 4.132090122377197 6.769513954158721 10.416039548109769 0.4677505137200976 0.5182310389681527 0.9719618413703904
Ni 8.043012117917394 7.122882083493906 0.09547047267293177 0.11054046665442896 0.09676372458531077 1.3331637832042718
Ni 7.927207618284401 3.861140924752806 8.060033712787604 -1.4815100078525647 -0.40481016544213505 0.5020711413788386
Ni 3.23907572730768 8.287980749463095 12.443187630028408 0.5147968164756231 0.4346244205900902 0.7449190340511429
Ni 0.22864339512135978 4.686510357726318 10.240114000662643 -0.766363577078164 -0.863913545010196 0.6281559835257697
Ni 8.599035869480803 2.4136882772980526 5.9357792113167385 0.34987674662904905 0.5109039091791201 -0.2257893945281208
Ni 3.6946905365988725 2.5449964365085163 11.454744201469026 -0.16956502481775312 0.32669336653405023 0.11817869992597711
Ni 1.0860939626023018 3.1989968304685363 12.53653659669873 -0.6049597479149645 0.1119723140049491 0.5045239737947053
Ni 2.8249271266365317 8.28165676978652 7.8419293829420615 1.876197225928085 -1.5549245161889738 0.6928703929850196
Ni 5.575876302982426 7.775342020866042 3.5494480016566063 0.434174220426549 0.46640839786990645 0.05243096410620648
Ni 3.244291659263145 8.200589115784398 3.471129747365722 -1.5160882600480663 0.9493677581199585 1.2924922736268387
Ni 3.3598709459446936 4.402859149640432 9.095679974266236 0.7482995204876015 -1.8226946260242545 0.9449647439562565
Ni 7.434928140497971 6.074308598602332 11.240647761307399 -0.9005041996500363 -0.2697146351561613 -0.5134930100625349
Ni 0.4304864490207705 0.05983097353267128 0.2737823765535683 0.35139369749420774 -0.11380473922799755 0.824782126226373
Ni 4.678736006642438 0.4665214221037683 1.6186153914047214 -0.16359543749787953 -1.1099125817169724 0.0785384598265357
Ni 5.9125966909468 5.536211797973942 0.2939227203753873 0.15070212647497916 0.6806365699229892 0.9789153898700884
Ni 8.052471061878082 8.841374013753628 11.15822973044841 -1.3808706023619315 1.6937219208065668 0.19386040703000806
Ni 0.144394833393027 4.907264092732658 5.850248737468781 -0.11104286021214424 -0.6141568410332003 0.2000076575783265
Ni 7.880174145504638 8.813204377786894 2.404473464176731 -0.838973844345723 1.2396054529301361 0.7714065388187101
P 8.32273561213008 1.802181063016666 3.8112202219355185 -0.5269221389842473 -0.20383551596484895 -1.3792441225021022
P 1.6862954867211521 3.299901241233932 1.6651182624708807 -0.3292518712898459 0.05060393819979672 -0.37572044716503034
P 4.7664339299351015 0.8167626948210914 8.286602446200252 -0.2445021404462757 0.9891992882945997 -0.44642989786545056
P 8.526111915802929 1.66507141817698 12.245836223232615 -0.3641939345826695 0.11057286255426119 1.1565930164926468
P 6.323051799214252 7.722939471323831 1.3834759539118835 -0.5712980939964613 0.030097333606012685 0.3149727356630123
P 1.8671775208036785 3.208212544441664 6.087246632236942 -0.1651095601495608 -0.045599028786037596 -0.5076401508261839
P 6.9902226465747725 4.121694292538498 6.013450654011073 -0.039060713446887566 -0.5648477103854271 -0.21590787374835074
P 2.3928695920664813 8.246622643059746 10.328214604712493 0.3251759014482593 0.5686753116616335 -0.28518753398077984
