# total energy = -381170.8282343402 ev
CRYSTAL
PRIMVEC
9.23468666214960 0.00000000000000 0.00000000000000

0.00000000000000 9.23468666214960 0.00000000000000

0.00000000000000 0.00000000000000 13.51589738648628

PRIMCOORD
 96 1
Ni 0.9023230950561536 6.2031607621671 5.865751163285042 0.4608794976318773 2.2987855412892473 -0.8429420849648515
Ni 8.863738674681281 7.600950661655429 9.569836680136557 -1.46436126398742 1.4930825431815122 2.7959258210253717
Ni 0.1604702292133398 1.4169980480512923 4.149542798337602 0.8655035152051352 0.560250320822732 -0.8031144114449523
Ni 4.340191984043135 9.085334219352847 9.390264501258558 -1.881584201271611 0.26830027130713796 0.5535240578424919
Ni 2.781404554724665 1.353989779952689 5.464071838086255 0.8691938195725288 -0.8477832151072366 0.38211992293347097
Ni 9.326756636603584 0.8524437811940716 8.735622170703682 -1.271816747555358 0.8071482151946938 0.49864668907832194
Ni 0.5172043337121557 7.46648438702788 0.8279072183422487 -1.5937800556035906 -1.3615934992998744 0.38082691515366024
Ni 5.339551321152125 6.647192208009857 2.711978179293726 0.5112003573736164 0.5394436684900258 -0.49924549900458537
Ni 2.77413685620589 3.6210869222172186 13.306509559800086 0.5617436175388067 0.2521216046647464 -1.829100272440282
Ni 2.9459297349158877 3.2113808072439474 7.4072115497435655 -0.8064149365730949 -1.2560502287497206 0.08474844529198954
Ni 3.343455297987934 4.560263805391195 9.401495727355806 -1.4022724650764753 -1.1843930694240505 2.4948756089807227
Ni 6.33435795766422 8.097268904211406 9.96971801181361 1.0319292230629582 1.0726030466332364 0.6813618781247879
Ni 6.215036569403623 3.6840120781345393 12.366573585370398 -1.1159587879110524 -0.5255211448716627 0.4878981923125661
Ni 9.092952835970367 2.9350697432283663 1.431576848116845 -2.6435324228908987 -0.21354657260502577 1.2710983813320946
Ni 5.685307229972263 3.2998306375016666 3.0336564891964537 0.9442540910424769 -0.7565144521982261 0.5047630863887049
Ni 7.026331509644952 4.935136681720478 3.826512530286019 0.560064430064171 0.5126216632011752 0.8516465547173848
Ni 3.079546418356997 4.9182741436070305 5.913232228982796 0.9989671663146409 -0.09137494946957166 -2.1316190986106576
Ni 5.680957692485168 4.838172470224752 0.8645402974453336 1.3110252994340195 0.5436906166918378 0.5043049158053637
Ni 2.172810989943448 1.4354489522959073 9.952971830753958 0.4667110167119897 0.6370725692891094 -0.08000270307688802
Ni 4.965731199119082 4.215699171169433 7.879578708591417 1.359895028551529 0.43830135522104513 -0.826865491117963
Ni 7.900985636083631 9.089526767164184 5.023764741433613 -1.7775861637213903 -0.9449853127815468 -0.2455120697680288
Ni 4.652610673482362 8.952013045889627 4.0492411710290614 0.27383482797212194 -0.09258491061727281 0.09446721524165021
Ni 5.920108376780864 0.16727065257957333 13.395308461219189 -1.9838297749070994 2.7813556365206806 1.4931100539853381
Ni 1.8197412091704894 3.1019497685559143 4.337007864031351 0.125056657992733 1.571986356767267 -0.748594168909885
P 7.9033127771595275 7.015166773292731 3.9317879599099492 -0.07373281090777625 0.03472249108284988 -0.9326638151017163
Ni 3.3413959628295014 5.442204099722266 1.5366768186914017 1.3337795624113997 -1.5283148840212453 -0.789753416757014
P 2.522528579404697 8.780441799663048 10.896449307574938 1.6167718885130735 -0.5590766122296049 -1.610831611769239
Ni 6.711068536668518 4.226014316335216 6.2932312799598185 -0.23438124996218987 0.573287099402032 -0.348361081315471
P 3.8021975999176147 4.234630279128122 3.3904764762825947 -0.47217692492256746 -0.947764932409213 0.5588524120339408
P 3.987390009187641 3.2275138050994743 11.434611763000385 0.8084005995445562 0.22519984057323797 -0.5621701635532641
P 5.3329577547704154 8.880157947827891 1.8221459216155833 -1.1101290686031524 -0.34736040796509854 1.7349842698904636
Ni 3.451196388989899 0.6098217781268297 0.8697237271512908 0.5169336603129678 0.15848819817830123 0.9115805120688559
Ni 0.20411612947926802 6.7967294915098835 11.844886734681097 -0.33546699896162224 2.3352494405432362 1.4178536073441839
Ni 8.319575519767271 4.257181384315985 8.163696776835424 -0.24984952080111808 0.6260409940652959 -0.9281666985623112
Ni 1.006331525649873 2.0635646449915974 13.03905640737181 0.5412254429807969 -0.8560963629586225 0.3045337997178755
Ni 4.890136052899652 2.918318021356629 5.36743361103489 -0.42319329593501315 -0.4501649394278505 0.09860514866942373
Ni 6.864253521458145 6.259649341378466 11.174173278672315 0.601691618686654 -0.19609855233190743 1.8935825112840678
Ni 4.696632425501421 8.315152104785705 11.762466231441051 -1.1956038505382056 -0.7156501098836965 -0.7302169519542778
Ni 7.151415342474437 0.7987920977704654 2.725710158578882 -0.5440760250557145 0.5775001090421151 0.2242806711930783
Ni 7.430626098148081 8.52000516227234 12.292641606245292 2.320976732674306 -1.8943389298341182 -1.9772282104301817
Ni 5.745166469868957 4.322793834094759 10.31021014915255 -0.39045466805141144 -0.3878817651179126 -1.846999007097574
Ni 8.977159098070853 4.202041069378749 5.5787001585104585 -0.6798302719716098 -0.42794495168738556 -0.6132348434395632
Ni 0.7042630731863043 5.742165196655995 8.960499723067207 0.6813652205588975 0.1314473920104252 -0.6884573515189885
Ni 8.414120243319008 4.04280736472915 13.016539470525139 0.16430763307355573 1.3530512661568184 0.8383380105339369
Ni 4.763463853938998 6.386303070965501 9.29897777521308 1.1333582143344223 0.8108773432198229 -0.43233999543128765
Ni 2.080972029626782 -0.005130791991145233 3.6092582118834207 0.7525919772153684 -0.013477465661144532 0.4104966743039511
Ni 5.651729908734314 8.237959357748299 7.703439986269049 1.0433528915188677 -0.6445714487693157 -1.7692149089385596
Ni 1.22507355209742 7.999113418117304 8.184119286713786 1.7746265668724341 -0.3158451109656367 -1.0666596845656082
Ni 7.352685341479136 2.3261160256615936 4.673594652318718 -0.5666613665553983 1.001424883826514 0.31902119470077317
Ni 3.1805923614223524 6.250156083338695 3.786681479140937 -0.09719952657114872 0.5211312433340831 1.1235414853543164
Ni 1.197064747005369 4.8598924535997945 0.9542922185431386 -1.304771605214824 0.6507737209252857 -0.18770724294441865
Ni 9.176997720620138 8.495671762530318 2.891672256037604 -1.030233323417774 0.18970910386579587 1.0381266101229218
Ni 7.8563728641087875 1.8217728402684952 12.416230343280382 -0.8638284414955575 0.22742641591091153 -2.0696326296055325
Ni 2.520552356427546 6.7530678922763805 10.011157745400839 0.9099067239108588 2.952546112756999 -0.10659099508837773
Ni 8.863110715978262 4.9571706444470305 10.86834907908348 -3.117190303234367 0.07018957364120815 -1.8720266394901632
Ni 7.904393235516194 2.2925294697368366 7.2334378307130125 -1.1601529659297631 -1.1448970682119572 -0.815436680455731
P 7.247215983432214 6.120741182395733 13.371101576686453 -0.18011863196388334 0.30616902132845336 -1.4748379951490278
Ni 8.270280761580207 8.33820188306126 7.454017559835574 -1.6529172280853792 -0.10814625539063956 0.15645779801183377
P 7.835613288161893 0.5818175903781834 10.443139771895062 -1.3510890002241247 0.024436792886125658 0.028024767347700125
Ni 4.551583199790625 1.3207079686926326 7.402711486861483 1.0021350225196612 -0.48260763333758827 -2.556161709484714
P 6.121018223000006 0.9092666560679284 5.8046729447295435 -0.7327217206540027 0.15868591601140414 0.33429611858197267
P -0.22033500992211966 4.0417361410592925 3.3480098455221907 0.408153113772439 -0.29203258192707127 -0.5865784171942995
P 0.37189191942730004 3.0963535483495894 11.368545890099284 0.8161763868352331 -0.7434992708854807 -0.5698855299196508
Ni 3.6839566700136848 1.849938635036301 3.2185543119572695 0.5360297577124704 0.07342145031494451 0.5500173302408141
Ni 4.437183899599288 3.0425153242524394 1.2326552299677047 -2.450411979350709 -0.8248849703528245 -0.598078190303783
Ni 6.692506816182193 0.8666799743790059 8.683004772202697 -0.16991495195800416 0.895816821476696 -0.007964763373031444
Ni 0.8162234925913542 2.271520557246096 6.471168919272603 0.49014276537236884 2.640434757802182 0.3322880870130084
Ni 2.1160361354409987 0.859277449432818 7.719929443035407 1.6620711266705053 1.283435562741209 0.8334012353539518
Ni 0.5085911413252926 0.3044408435048308 11.234859946507108 -1.0324892093314864 0.10930068071005691 -0.12272441031513057
Ni 1.0357809418841462 3.427435539830041 9.207191452611227 0.10182725515114721 -0.9388807425457055 0.14923891166589137
Ni 2.827485641902157 7.56424278158919 1.8711276239198193 0.0191284932993348 1.5908307431672797 -0.651996280478477
Ni 6.496445180537836 2.305494970016836 0.8607743921645759 1.3256975567342135 0.06135989116472013 0.1734751585054367
Ni 5.2544536822061145 7.073456116431875 0.22312850268187745 -0.17967588799950993 0.3074928823461994 0.47292922970755974
Ni 8.51592343070271 0.5925021230163313 0.5654121692617875 1.3298689145030838 -0.5958153624115352 1.6260206608048513
Ni 1.9516956489859578 2.519287204334697 1.7609993663776982 1.3319463658574027 -0.6622120446692144 0.5542197983579359
Ni 7.262905716320903 6.162232630229094 8.897704776233894 -0.5633500427939782 -0.5531862148870988 -1.5365524414396892
Ni 7.312477515112242 8.055528119834198 1.439591632798477 -0.8023405093934053 -1.0745920520388075 -0.40051436628025855
Ni 7.852429652841296 3.0107849403763143 10.052259489450856 -0.9064601601231549 -1.898811106672859 -0.1684154845943422
Ni 3.431775842630326 8.430493343031571 7.123391761883492 -0.136149682582101 -1.480934852075385 -1.1988269854611935
Ni 1.7179934299076418 5.24143277380526 11.256579929882149 2.5565270632439328 -2.3319188335081065 2.281886965761696
Ni 4.300889156983534 2.397749491239912 9.22649194804228 0.15114692732188162 0.09807010210156013 2.8223354213671525
Ni 7.768671043482606 6.580111443028434 5.985150122914835 -0.5947524683646596 -0.5860824513944873 0.3298689360485545
Ni 3.219119474789987 1.2308267619795 12.138221943829285 0.650610198764228 0.8299713837367964 0.008826082932062218
Ni 1.7614518660313447 8.599848264423963 12.822869618764344 0.9655546522924661 0.9257182370218187 1.7724244170147927
Ni 4.616669272421279 5.919702050561263 11.707997278234837 -1.524349214505278 -0.9458188644264356 0.47733018698873275
Ni 5.506994662375029 1.1506327417291304 11.146925411773335 1.1803384397387027 1.4861241095858084 -0.2693989036879554
Ni 5.278824020695374 6.5927721986437335 5.13020189465813 -0.050779030325080285 0.06179235071644842 0.220535088107717
Ni 0.8219342229141119 6.12872918648562 3.121955794059185 -0.38020085153388716 -0.34271133922886143 0.5921695381288318
P 5.766803341062718 6.1130579229705475 7.135866900293928 0.1403171836962293 -0.23136097507862735 0.5932596858692171
Ni 8.016899424911664 5.8699640274073595 1.7552018299989345 0.672258373161623 -1.4733416131091595 0.9709223443622826
P 1.2459347095992148 4.616549221492761 7.159195566111118 -0.03775459304095433 -1.4802072298807412 0.8196329779252659
Ni 0.5630896455292947 0.18239614610422558 6.214555442220869 0.9128197837925957 -2.3726325091773846 -1.0609682906077855
P 2.1908278639080345 6.583509807774188 13.255851761839994 0.6409927302791218 -2.556317775446604 -0.09983310753925387
P 1.3301458186115498 0.1402656579436734 1.5324593372256783 0.7177237045832736 1.4795292299771101 -0.6222591584253605
P 2.4506273079089143 7.746470856393489 5.2510747103026585 0.3405914646723812 0.3204828668479642 0.2078106985625131
Ni 2.8617832687112164 6.122403426021374 7.823839062480269 0.04394092435732433 0.8109249086283066 -0.9808012940388916
