# total energy = -340862.38812226505 ev
CRYSTAL
PRIMVEC
9.29417397325500 0.00000000000000 0.00000000000000
0.00000000000000 9.29417397325500 0.00000000000000
0.00000000000000 0.00000000000000 13.60296307936374
PRIMCOORD
 96 1
Ni 1.4259586054176536 0.6953714905663223 3.2528762305547954 -1.444348825421235 -1.5309168404204667 -0.4395072026036882
Ni 3.5923654440203396 2.55874179451271 9.005107273702553 -2.6152808842443735 0.6973909065631925 0.08767564624111351
Ni 4.817049423015151 7.039119068121641 9.172083610788112 0.42049723716008874 -0.43708625186702144 1.6896629202458446
Ni 5.283756357159177 2.2396077509459773 7.613034296308314 1.3373199714644903 2.302202023169964 0.33281130650633006
Ni 4.277754991994395 0.47281134745371217 3.827424391972876 0.4014083388494377 -0.028123754819409628 -0.05098291880577026
Ni 9.14242776123187 2.504686880065201 8.075208461921383 -1.9291686359187938 -0.2979983125922029 -2.2179518576706316
Ni 2.5477003161145597 0.991353747357136 7.448274619658746 0.21369312548521907 -0.034515774388682495 1.7026482767619193
Ni 5.092900499494185 6.478327213249942 0.9443596166967269 1.7617602524327274 0.47539311786702 -0.7616350612542432
Ni 0.40278904252807035 5.325710257402654 4.142823107115184 -0.6991590542072087 -0.7897511027641689 0.20110449018693108
Ni 5.22065821166672 2.0272172927350978 0.178645172210877 2.3343487831058383 0.4938405259389302 -1.3050953071028297
Ni 4.08032815349818 6.147185097216536 11.448008345606793 0.7481773930874405 -0.08688194669522456 1.0393208875413391
Ni 8.066599268789897 8.407091323601536 2.888017640459966 -0.6719799226892557 0.48941720006025397 0.9528045517156493
Ni 7.991093401360123 8.689978089598585 12.107480160701149 -0.17359214369927523 0.2752201383554228 -0.6119066115464429
Ni 3.750459339266579 4.892155640974283 9.633305123593262 -3.2278315571327183 0.6687539595527903 -0.6297963473426702
Ni 8.890351181169054 6.265843813301705 8.789473148857873 0.5272098454279953 0.0328584412909176 -0.7077593942817102
Ni 9.09128192316367 1.6200953064113897 10.867692219968266 0.9657562267803109 -0.5735686351981929 0.18018085266038647
Ni 7.669552166795814 6.624394447682036 4.759432051774703 -0.2755073305785384 -0.01925010647886362 -0.937461750710992
Ni 1.9409859488141916 6.229299122172474 5.958438087572199 0.9739847853376903 -0.6605665386459915 0.8937031175678029
Ni 7.879377433055608 7.344860207335063 0.48290389071343537 -0.224728043143142 -0.5467044638174972 0.08607359186131629
Ni 6.950880182673799 8.951358137570953 5.318146658816446 -1.1055681887053477 -1.5912786293379755 -0.5385615229953886
Ni 4.89056633726546 0.030918927766940905 1.1815803894602142 0.35744993099061667 -1.1755291912755175 -0.44864130369447247
Ni 8.850637176795908 0.1187832580132298 8.148827612082787 -0.08774995112247468 -0.8622155884824828 0.07460287221755539
Ni 4.012155389145966 7.699414347008992 7.253044923833679 -0.048212555149484713 0.15820434838929529 -2.217593703000265
Ni 8.26258551035706 1.5762082180308639 13.24082471788985 -0.15753509023641254 -0.08943428080343307 -2.535141398479305
P 3.3343220044191293 1.968821999152962 1.4691337600900158 0.5528095482739704 -1.4989148335925733 1.0576626232733204
P 2.749067884274761 8.02707114789147 3.0161034369653743 0.427278007527348 -0.0037928913835289517 -1.00695532672644
P 5.441524956324664 7.308073867688701 5.556715086771628 -0.8115098345974991 0.22115189575610944 -0.567166588326591
P 7.395048745508472 7.63814715374249 9.503968331303012 0.5118405620607765 0.6692452973669119 -0.270791670270424
P 8.280588324883336 4.887211140546829 0.7483993988160237 -0.9749085827035403 0.4178531146690223 -0.30198506515409285
P 9.006881531468721 1.2490625967038573 1.5264156116586003 2.28930896925738 -1.7930189533366925 2.445489859458743
P 5.559021900692857 4.184395016818118 9.20726019954343 2.300370369277864 -1.7695069862576815 0.1242220779065796
P 3.4887725835609285 3.9936971601066342 6.043619189860958 0.2194349130650027 0.41618883959272196 -0.2715632583291258
Ni 4.923458418116514 1.6789181319853725 10.406130540404385 1.2160083823364864 -1.0396952401616224 1.1708328142411124
Ni 1.944220321274256 7.961389222100454 8.247816138873475 -1.3668406066314267 -0.7552348141548542 0.880801064794154
Ni 8.852430952326921 0.7028709593537527 5.053106565226913 0.05202138737261364 2.0782882483980014 -1.5829207442915834
Ni 0.054781718833649885 4.5585412747271485 6.56012430688149 -2.0381687546692966 1.0369346466973497 -0.17244671724092234
Ni 0.784644817550961 7.597076200003916 4.068673259633466 -0.2791837509888611 0.48109916711286177 -0.5356474346723872
Ni 0.5030387886947083 3.356665198080032 0.55603044966684 1.3309202385857335 -0.2948957624074792 1.3071958983856002
Ni 7.936694602484389 3.3923548252255675 9.992886481840893 -0.493876264272872 -0.1622234968510174 0.07230584865326257
Ni 0.6813707472506884 5.9854200033446485 1.6599970530939971 0.038752695288165516 -0.588430897022006 0.29687808294483065
Ni 6.185718741525231 8.581989084962132 8.043078503316666 0.1094444053767728 0.03843027895174027 -0.11984400344354199
Ni 3.224567106772872 1.9292288190383837 12.972397827390985 -2.606227515792854 -0.7110234097449626 0.047134491593957537
Ni 2.4419047364797604 0.6902829304459628 10.590192357068496 -0.8886925517270888 0.3606854072087788 -0.4865049115094654
Ni 7.073265862427032 5.43635739572755 10.320349963909667 0.08567661353321374 0.12743801374071598 -2.1969775694118097
Ni 7.0968172986735905 1.106211146384357 9.414692216066253 0.02692073565024396 0.09881392224612015 -0.024392827022067666
Ni 7.5153060594762024 6.078900802779492 2.434698963582382 -0.14286231871558622 -0.03357706462449701 -0.14404296928724872
Ni 1.0831337129983245 2.6891297578524807 5.602543728045565 -0.20436901987081577 1.1813758798642815 -0.11159873271561424
Ni 1.1440198451416588 0.594689565320969 12.93928733345714 -1.046423045803759 0.45856499056608774 -1.7041672845096072
Ni 1.8485739793589677 4.934732250858059 12.776691340453269 0.2402845028205023 -0.24175697360097076 -0.5997193254516316
Ni 4.187740919363012 9.376705998590596 12.058604889276612 0.9140012056952066 -2.2221252723220313 0.9011300061594931
Ni 5.981916099846245 3.3108170390412495 11.9207248924884 0.22544383826324396 1.1258508502137836 -0.4468479592394755
Ni 8.893724966235155 4.512813939946931 12.237402485936757 -1.9924792230519814 -0.13331606978804783 -0.09151815991565529
Ni 2.8387473666516554 8.38846579943496 5.169125735971111 1.3840533709652874 -0.5827361606300738 -0.05144288916132431
Ni 5.4410323651166665 2.3527829045270154 2.418988092299357 0.08996932737129668 -0.5458338882870858 0.3643659413841596
Ni 6.3689719650743255 1.989362123109117 4.8127555147492025 0.8392286406690063 -1.1689417678659868 0.41438572494571213
Ni 0.8836379914285166 7.34129124462051 13.25516191029472 1.4771267911832044 -0.4830238949394004 -2.243837210077826
P 9.047822366774993 6.59996935910431 11.63586590282461 -0.6056616590779955 -0.06431280314545698 -0.7256614713731115
P 1.7224055708952584 5.726028908551744 8.720968582503291 0.822234420103855 1.3923873447522794 -0.014714423392039174
P 6.873357479543354 1.3716527482792775 11.6053540598673 -0.3794398049981465 -0.04213832393094678 -0.824912224046334
P 3.68991709155147 9.06833460820994 9.079229238663064 0.7709820496867819 0.17233950223909675 -0.3904744655457534
P 5.500050368339101 5.272724172934764 2.8854059776402012 -0.14660661624936688 -0.25544192728723103 0.29445199000184125
P 2.0764578251874535 4.531671818456903 3.109188304599072 -0.32080734006691847 0.10417364389613672 0.10421323888482054
P 4.327581057392107 4.697368347819041 13.005806664301751 0.8470645917736573 0.06646790181524682 0.9851816824947742
P 1.180834067309228 2.7257580965453334 12.232423597066479 0.3095441084482734 0.22082587987525842 -0.5897089924034811
Ni 3.4120491793717633 3.5291557684430517 11.48703551054086 -0.24979295653156983 0.11588758989895524 -1.199194138992625
Ni 7.673074658641688 2.764375388417651 1.366757506972623 -1.7445084073308148 1.3879398505038871 1.927425942196074
Ni 1.106657266723676 4.355045340781445 10.463711664367263 0.39695338840187766 1.6915429108773772 0.12286427832710453
Ni 7.274215192769121 3.925217688021138 3.46966655061221 -0.5107910377503397 0.0846923952430735 0.758497544066526
Ni 6.053992417167503 7.38545715821311 11.14358790848123 -0.9721179073322808 2.3323896024969377 -2.01251531576725
Ni 0.885725462849581 8.837848393735426 6.256846123708061 0.20227665611816134 -1.4516371315525323 1.2289924533009802
Ni 2.5647923016147267 8.97020672190719 0.6895682084856785 2.483880029201167 -0.5702413705971728 1.1927051888341718
Ni 6.838337032906797 6.399819327703501 6.910441232749261 0.39563878335551217 2.1272407670373044 1.5322229608264
Ni 2.8830526928502924 2.297380334887813 3.6394320692358884 -1.6627236726528398 2.366809988958337 -1.2320494949597491
Ni 0.30913908913123567 8.592203381897793 10.358983055877335 0.3858855606234903 -1.4527211086453302 -0.23370890648551365
Ni 7.28945763769586 4.453860995940647 7.885242986100282 0.3652131198758033 -1.4289193782400422 2.500262327213933
Ni 6.4907628177084655 4.4530988736943105 5.886450994318806 -0.46264635972431284 -1.6292805625030458 -2.726183362223911
Ni 3.8050533157907656 6.082990239223251 4.096328073584388 -0.25528508999439264 -0.3373927552294254 0.26494601012292435
Ni 0.522050021071321 8.531837723483665 1.410872302609676 -0.9293062114833931 0.7165255705101143 1.9292442263517358
Ni 6.0207378635407505 4.232083422256593 0.889155942375471 -0.6427853034031704 1.1170769606758955 -0.10965754982884339
Ni 1.9322680138499957 3.8987014103528534 7.665255470277746 1.298399897360525 -0.2850744054416832 -0.3010301574399913
Ni 4.647263457209253 5.194959821287187 7.479276265571936 -0.07900305816778007 0.05172545339874962 -1.356276200852019
Ni 0.26985912267155415 3.064196138961357 3.129606674879287 0.4673990439179499 -0.6710746372661669 0.02522380756379527
Ni 5.0218465412838675 0.4818155429689712 6.375831065291359 -2.1530667269614723 -1.0874730217665336 -1.5785110452596622
Ni 2.9341706483972834 6.3280125414205814 0.5064004913349531 -0.5013172939319496 2.1323359221720244 0.34833074229816785
Ni 3.3426217015652133 4.203076306027109 1.369954702737744 0.53066232275297 -0.8252130431162047 0.522578517303571
Ni 4.637030571926119 3.276270595265219 4.331441857161966 0.8501915674384133 3.421614316847256 1.6605549471362953
Ni 5.354141134860517 7.716227507297084 2.938308414544469 0.08077172003242865 -1.0173078736053578 1.488380766830469
Ni 6.603147966521959 5.748492926471212 12.384817375560543 0.20701545635472737 -1.4928010073853517 4.276172131674164
P 2.6596672271099417 7.584770713977695 11.521885873798054 -1.5193067669853642 2.4203120746415347 0.9705186811659607
P 8.26469528779509 2.887495307896013 5.263897496137859 0.06593182680611871 1.5122141218046408 -0.5498525225281755
P 6.315576936962059 0.3762318704953481 2.908122797085284 0.14946953961945872 0.6895066187191093 0.454206970707708
P 7.064482868246685 1.0581602681701854 7.068262808705042 0.9129951330281952 0.1789366958406402 -0.10197175114881149
P 6.066706846838099 8.124074439172187 13.033869492479678 -1.0151008386517097 0.6843854954424601 2.757834156359973
P 2.369763359942352 1.1728410778964258 5.435268118565713 1.6206208299455187 -1.9567869118566947 -2.0219903451372208
P 1.256312052217794 2.6238381873583694 9.443489283969308 2.3700156403798283 -2.538537054424415 0.4961882002355003
P 9.1737305383741 6.782627755534312 6.255961318368412 -0.2491740920006483 0.5656907751120129 0.1368284538166805
