# total energy = -340889.49607498024 ev
CRYSTAL
PRIMVEC
9.10093687449639 0.00000000000000 0.00000000000000
0.00000000000000 9.10093687449639 0.00000000000000
0.00000000000000 0.00000000000000 13.32014105262245
PRIMCOORD
 96 1
Ni 6.179035495297868 2.0678329377521356 11.284703781136825 -0.022774317582038194 0.3265763813402117 1.7683728726532382
Ni 4.7127198704741975 0.10000746356064141 5.715858791481148 -0.10506504536215454 0.8371912985240034 1.003694139476665
Ni 3.1153780593971447 1.8248288258432943 4.829643245154459 -1.322123723340026 -0.7703230759465443 2.123779547961581
Ni 3.5319916405683007 4.487853925489229 4.89362010015935 0.04963643208020484 -0.20707999104407562 -0.5159481564712468
Ni 5.173982647294385 4.216254670341648 2.8811335991010614 -0.00884999419146218 0.5332920470663332 -0.03281087588243382
Ni 7.166487131645169 5.856616609391178 2.8135864466128617 0.5273103755616015 0.7427508227552304 0.09550157004343553
Ni 5.1628704035342 4.599431409928104 11.627191142650055 0.14173720397220751 -1.349475375880102 -0.20386636920278436
Ni 5.598777970595276 8.011035859292699 12.330414153934946 0.17671037761328276 -0.31931250068894684 1.2870924427675061
Ni 1.7763572367632414 6.515387915354306 0.525489907585442 0.10750553648284711 0.3573208616119201 -0.3454652478249147
Ni 2.7123521767795973 1.632061884742168 0.549770296715497 0.34169678192141795 -1.1385137903934328 -1.174722636213822
Ni 0.5543881120176409 0.11016046858837458 5.109646305288243 0.4361681109281262 0.012702278058016834 -1.0013876028306754
Ni 8.580090130867701 2.259735289862912 1.233093199723548 0.9354627180030922 -0.06842116888687572 0.12757711042174155
Ni 6.794540947996525 0.9961248290610248 4.694031096877524 -1.2095842239776975 -1.1756304927400723 0.6411421113727925
Ni 0.8694388795391993 7.682200812983935 2.9916772171262123 0.9467262067320534 0.15699027347653607 -1.0637887907757164
Ni 7.775913158601154 3.6572842366751512 3.7214740535997706 -0.8477492765455077 -0.07370350033173759 0.057685527636926456
Ni 7.385646789293827 3.8800478652730583 12.798697393356775 1.3660589912703958 -0.6389772425109899 -0.2831085399645641
Ni 7.882020980058972 0.11132538849116218 6.755416020948995 -0.04189124091714721 -1.11057155545721 0.4763408264922699
Ni 6.714179676577662 1.047253891669312 0.1904525728880099 1.810498598178695 -1.2060589844332585 -1.3451857473658124
Ni 1.9010764738554389 6.561402251514417 9.142345092603854 0.10885305164967705 -0.7288131296282158 -1.1319909016732503
Ni 8.990132835712195 4.689084737759046 1.532162722328739 0.8444837184203586 -0.7365387804072476 -0.09752965621705784
Ni 6.425479761294628 2.135735026773216 7.144977067658931 -0.21036277556040542 -0.28731255074358264 0.06106061475674645
Ni 3.6361609625003855 4.444988513441341 0.9234119848789013 -0.4448427558839887 0.3575494326829584 -0.6831446810568235
Ni 6.088617688780721 5.639996113093128 4.802256706314862 0.04393963880574368 -0.2512651702017221 1.1098171937896886
Ni 5.205053245326548 2.8802917624525626 9.226368580967105 1.4213616204974422 1.8159956167375242 1.2266900304200488
P 0.09956697822239985 5.53405210849664 12.779542651798984 0.06403306712150908 0.38836384696065374 -0.8615776977881677
P 4.067627272432083 5.9689221687692955 12.757298142217786 -0.6392505507770345 1.5317480780725103 0.7005387081635548
P 2.397896610520869 8.678817092628949 1.3309646734311875 -0.6130191278843313 -0.9783790577506442 0.5678551297531833
P 6.4615740764075635 7.805573111438535 5.785669346936717 -0.5427467647213298 -0.2730159316152524 0.48522167392166754
P 4.5122444359538445 1.1039618284995425 12.646754524192636 0.3595656917820388 -0.8187199791926932 -1.4743929371918092
P 3.9986967775593234 6.408934258300349 8.111206229620995 -0.041757543552760346 -1.265408015815537 1.4364377981042744
P 4.794682906759395 1.2239121747397033 3.620227952548743 0.2844437138362198 -1.2363360381502448 0.3111667316533609
P 0.2127034531249271 5.683325672914782 3.541252753795462 -0.3235573920082298 -0.3763629658450357 0.3394365251323316
Ni 1.5845640958933518 1.0635172656246357 2.8645762648890183 -0.9066882169735612 -0.8824599405538157 -0.7440158055105831
Ni 1.7453230424780406 6.7790147499171844 5.015552630421597 0.729627397999395 -1.2270142465286868 -0.5954196696350132
Ni 6.14959396494226 5.61366710310278 9.543321444267434 -0.518825735129358 0.4821679746970083 -1.2501976266236856
Ni 8.736007379106429 2.39790571145761 10.311693511209395 0.14542622278802053 -0.19591574689714 -0.6470589910778598
Ni 2.516409008756027 5.343078051933397 6.8389462385409105 -1.406562350701081 -0.398195745449411 1.1970079299745835
Ni 0.6426135028739947 0.009503198144459468 8.942276469955802 0.5915653288859296 0.7313222692033147 -0.6685644692498035
Ni 1.5989981815638294 0.953905583521715 11.28944536917864 -0.8639739659344862 1.813804522623476 0.7782718984799757
Ni 3.9143492958481083 6.904762392861062 1.6656707340312644 0.3972750334073545 0.7593763471270535 -1.099972696895441
Ni 5.716007136750018 7.846609235201577 8.08286136214262 -0.18734317473678058 0.4100755276061325 0.009180638058003544
Ni 5.407667399980926 2.9100245227838677 5.047321270301759 -0.7915917555173334 0.47269680198177944 -0.27234384524889227
Ni 0.7244782490423933 7.635258181276291 6.9340919816947615 0.12954837521549947 -0.21665709320954943 1.5368571171643015
Ni 5.084556842881955 4.54922154193061 7.271811362449627 0.6674851201426956 0.6358538663906598 -0.6945812050285393
Ni 8.153465519281964 7.30125380289891 9.053539972077129 0.4250941125021518 -0.43726288665420177 -0.3107949501362389
Ni 4.770993168423799 0.09573548385463751 10.41989363802386 -2.1363558419646953 0.1248093178686173 0.16057901926905893
Ni 8.339479565321618 7.155019951352104 5.002925080694114 -0.34908484685537305 0.22591357881081092 -0.864615199062911
Ni 7.277900799222715 6.022790613336481 7.171856684322082 -1.250818548037136 0.33606580888788573 -1.1403487867196425
Ni 2.247712952428674 5.269524281196449 2.7138583818101547 -0.2409825573287914 0.3144438597427359 0.3826948216003345
Ni 2.2675893982699877 5.120050496170015 11.535748570655924 0.9909103574484354 -0.3153203488104182 0.21875717027168776
Ni 0.9939861089270007 3.2654434053117125 3.5730213936756234 -0.14015468997643604 0.2795825290891766 0.6937414827360633
Ni 3.316426852932151 2.708930224565158 2.8315025506802654 1.4381655794286585 1.1074574353082605 -1.0767175830222424
Ni 0.949236802973824 3.4314899961426484 7.924444996674944 -0.02032405626933274 0.6534345555869004 0.5405222462661852
Ni 3.6460718826108205 2.6892813021423585 7.351359010123888 -0.1318374283599923 -0.10320716621780936 -2.4484540842933895
Ni 4.369869381585023 6.777422085987592 6.031573017291091 -0.36710210936840004 0.6777571914926651 -0.5967584430510948
Ni 1.12786998931691 7.1407769853531775 11.272116275531001 -1.9199358044666157 -0.12744264172640635 1.3912982254531587
P 0.11919041802232659 5.710146133489118 7.963486195104461 1.3989937943252035 -0.6911490394185388 0.2851214566295348
P 8.424546021035335 1.678604075233229 8.085565250448232 0.8768217684314318 0.720009672403973 0.4039010233643044
P 1.66276844530471 3.358400373179467 10.17063354219958 0.6160604858138164 0.15971589993781526 0.6842654249248279
P 4.18750481117832 6.175922974932607 3.6265813164873055 0.0015431761174037938 -0.31546253081523734 0.7894196875666792
P 7.09172293632173 3.9034736764431774 10.628913031956222 -0.9254521278446256 1.0706132698967175 -1.3457359634423274
P 6.560237331611629 7.953727260637593 10.323855092975762 -1.6011766051779779 -2.109803802507779 0.2848926284481803
P 2.567956714454378 8.661215880972767 5.814787794038037 -0.48547672735526715 0.5456536539554796 1.0913731281518881
P 6.833629471297093 3.9652781378481037 1.5105834912232727 0.17577783849668438 -0.5097883075174381 1.5791674478967384
Ni 5.206627707382659 2.8330396988957403 0.36993214634796506 -0.39756608228521206 0.924057561489944 0.10380931857818251
Ni 1.6394336435019958 1.3827417227354002 6.935650972158414 -0.2276259335162273 -0.8780106465332105 -0.21836919080464973
Ni 6.73068877582498 0.8706074398166832 9.449440731320516 1.09342846801902 0.291198258951234 -2.6265145481766634
Ni 3.002562847561558 1.7634885122121347 9.354561645613163 -1.498398298967471 -1.5086420881826663 0.1608926938547358
Ni 6.4126383395537445 1.90902159162992 2.3980112823238002 0.7896297466949562 0.6450568730461664 0.6897637290352379
Ni 4.090943872361317 6.590379634096258 10.630271801811581 -0.19472481191283236 0.7237403430909988 -0.9541716072665051
Ni 8.456608621172215 6.998274517869988 1.1377708983969304 1.0262897653889937 0.033871713046780376 -1.0183188313683753
Ni 7.703342289032183 3.976481390975694 8.429730824696414 -0.20031233330293888 -0.5028044200004372 0.06765369459323187
Ni 3.109598964566909 8.279258666909543 12.300937129926048 0.020871958353002765 0.3101848273560658 1.1216792353345972
Ni 0.06280010388434028 4.921841194898053 10.540893322270204 -0.5103207829821405 -0.07539939997692174 -0.6127064817399189
Ni 8.566047385477066 2.274597119560194 5.704230524607776 0.9552360439752775 1.2714981878736749 1.0627734621373246
Ni 3.4920112254671603 2.8168946371180437 11.380462017333315 0.46123662386097986 -0.07955713089903718 1.25902422377638
Ni 1.0814370100667354 3.2595824020508126 12.528312203170382 -0.7140544832618025 -0.2201800187611434 0.6500214161402934
Ni 3.1462029321373133 8.57163536063575 8.085458769488367 0.36756105128268957 0.09505908318937822 -0.23037881367101617
Ni 5.643154138142091 7.981758145798419 3.721154610720178 -0.1251787853928941 -0.2971843013313398 -0.8157292719954855
Ni 3.1429629986576852 8.36380636922905 3.761954110127965 0.9515272276651227 0.07875031872702566 -0.9897024531832633
Ni 3.388005720396405 4.2714427507362105 9.073319947988992 -0.7266770571218194 1.889345847494901 0.906326205648452
Ni 7.162801252265255 6.058848524702453 11.645533170556915 1.1120059739108914 0.9762542980981573 0.2922295284292258
Ni 0.5295634868705024 8.7358890669288 13.134404556998309 0.20780709901808725 0.5092146944021553 0.6265343887619468
Ni 4.899061550236511 0.3010025615688791 1.4512826975156656 -1.6713929182920635 -0.9816952666080706 0.5037786109882485
Ni 6.250887390864337 5.88664059969818 0.6225377465180637 -1.5226201476293133 0.37891632839450873 -1.1583956169190244
Ni 8.321186682473156 8.89095992805066 10.768308439636195 1.6676825593200117 0.8967879271407136 2.5706110521408245
Ni 9.004239287660013 4.963787412335147 5.707347595441406 0.9738595726137357 -1.1363350375745591 0.18301626522665254
Ni 7.891531458952824 8.671800270402002 2.807939315365364 -0.6461665611705775 0.28342350010182155 -0.2800970068317499
P 8.542020912482071 1.398850380766135 3.704410707304954 1.715370609424594 1.5091838196187493 -1.9463752296050674
P 1.8162648443704574 3.2733885230861937 1.4758179128744553 -1.7930382366104023 1.2765450062689627 -0.23057164640811256
P 4.799670220093204 1.076031053642862 8.349903778264219 0.12619617091381494 -1.7841694733658628 -1.6461793951409134
P 8.652360669524233 1.5740161102110797 12.326631804625581 -0.37530315712195367 -1.0873462663806823 1.199961613286269
P 6.651838259905045 8.047212082836298 1.076118422635571 -0.9561336160888824 0.1966333417894549 0.18745167529018686
P 1.7156266858936975 3.389953320858878 5.7871746418736 0.5903720799087768 -0.20825087142372523 0.19035393653864635
P 7.028371315670914 3.9721766478974243 5.987909453091059 -0.30041309268128263 0.4381362903980906 0.35166494887772337
P 2.3185091393332424 8.471643368667566 10.218932213481562 1.8676261964296221 -0.009620039588267303 -1.2759991610678219
