# total energy = -340865.99518058763 ev
CRYSTAL
PRIMVEC
9.35021748480303 0.00000000000000 0.00000000000000
0.00000000000000 9.35021748480303 0.00000000000000
0.00000000000000 0.00000000000000 13.68498842348075
PRIMCOORD
 96 1
Ni 8.055090656657265 5.705540001247714 12.859947600320647 0.16997434444102985 1.2859308183592368 0.1066493591301389
Ni 2.450271196234324 2.8843269840330303 1.7527188045668118 -1.222949332430694 -0.015445130910476628 -0.33319182977420037
Ni 2.928497410588566 1.3175297704305677 5.832651530419864 -0.5079648811554542 0.9674554688596048 0.758365646474352
Ni 5.883960847888852 1.806331080558372 1.7836465183512626 -1.1048205119060455 0.17791236834118393 0.7377268871780779
Ni 1.6038147239185858 4.179360131624347 8.525993780817117 0.9986313802417769 1.2541800083102013 0.5037801536501453
Ni 5.0982340369783214 5.063273574469612 7.84768413636622 0.34023588110517533 -1.1693112353902635 1.2760984056498474
Ni 6.758944833206483 1.427058215957991 13.312044632412094 -0.7317511292106172 1.9802140325313833 -1.1343784280688205
Ni 7.60138071208046 8.055081306439957 5.477361973210453 0.6170750431212598 0.6134783269089371 0.2743369644195211
Ni 1.4093676048142412 6.3699009915208915 0.05615179501198456 -1.3063944855302274 0.851296627577134 0.8007636518245886
Ni 5.752263037127903 5.042525442266661 4.360474775871465 -0.3281694368589445 0.21054275278169543 0.62246973177427
Ni 9.317248440199203 6.809884817091868 10.637108284782531 0.8751004148649509 -0.44744908315858417 1.275879347660506
Ni 1.7363073031505805 7.269887457915894 5.568750062141688 0.2803893412611881 0.7556927276278792 -0.250783088358981
Ni 5.961483499576393 3.3247222191654893 6.1390310359211115 -1.1204433060449672 -1.1441198237263004 -1.3618318405629255
Ni 7.872209756360964 1.4902937356013204 10.192072536800895 -0.14232315838266454 0.5039004812780934 0.7336380618206849
Ni 8.450062536115128 7.917642462252866 8.92105261729593 -1.9428556464875828 1.0301384497111226 -1.254528907009188
Ni 1.0364341875476137 6.876823022788541 8.042982125245448 0.2891686301157149 -1.3100989309650082 0.3234206093200494
Ni 8.84506246622491 3.2780272339372196 13.245563652341707 -1.4264287506077047 -0.42715690856845145 -0.5769426938767483
Ni 8.337485919745811 1.868640928688366 6.162664645184823 -1.8438437492980437 -0.7530192945607742 0.648462813403922
Ni 1.2909097017591853 5.057364237131953 4.195406974565628 0.14838967629171862 -1.1862594332088279 1.053131053951554
Ni 7.2236132324664135 8.661835607888271 11.052488883555121 -1.679972175320642 -0.4408516324467246 0.16541500720512156
Ni 6.380541538815599 3.126058152055949 8.478753677919883 -0.5071920075451717 -1.1941858871447562 1.2060849525751873
Ni 8.906708448926148 0.7438462525733369 13.786530759843767 0.3968736842038778 0.06200395250662225 1.2251661375763545
Ni 4.0320848588309 6.290676600283581 9.866889744296431 -1.004224300948522 -3.261443588760209 -0.6246999066563693
Ni 0.13507230418683644 0.1886004282226391 5.042603049070305 0.8955044324425997 -0.8339460521138283 2.471622551990053
P 8.30479756004256 7.936520550994532 12.981908094778689 1.022799235737232 0.5152935536063835 0.08666880224315397
P 8.319318447519434 5.556254431733387 9.083575289450959 0.7202274448417338 0.3732267342088991 -1.3060640987740022
P 5.94340952952308 1.2784552123070316 11.411090287734465 -1.0443995876158272 -1.2721363356783058 -1.2533243451781253
P 1.6644602333680365 4.380717061318138 13.820469243600886 0.7677545438884197 -2.5713795548757328 0.3422737374708106
P 1.988033853474064 3.018352998903278 4.112954888314141 0.6998581371567624 -0.5114613243444869 0.26464879059747975
P 4.948892366160155 8.549100037824747 1.1604704302476807 -0.9283009101473302 -0.7023559638779517 -0.3659312289887504
P 5.6747497356576675 5.887495230030679 11.581139884821162 0.018217037228658948 -0.15723967048318083 0.9724778617748606
P 5.168856228293724 1.215350595705992 5.389148283054749 -0.27549396084209976 0.5741530469467531 -0.9068550815687285
Ni 3.224198032904151 3.7696242590396443 6.295463911544469 0.1377795048760401 -0.8697360652292441 -0.05402196274241019
Ni 6.336315010956224 6.864190879207565 2.4245010623160956 1.1394329597735924 0.69129970606379 -0.6622117875588983
Ni 5.145003823945044 0.018835077742055763 3.277335317856545 -1.0629266998857372 -0.46716558775090516 -0.3285581876569309
Ni 8.591895982436238 6.924163173010954 1.3859200648749277 -0.08899796459696285 0.9132668986323432 -1.690250674428515
Ni 4.5760898519358175 8.137783978515257 10.630019885042532 0.9618592057187498 2.316304524009617 0.9897273928839275
Ni 8.4757943341424 5.556273132167999 3.2792652027085905 -0.6145396782939159 -0.6654912296411184 0.2504354752115751
Ni 1.4473014364263939 8.855731064171538 13.18265352026064 -0.07626303352879768 -0.8238436735725038 0.4811670442363197
Ni 4.645739620651352 3.2417390405709976 0.17180837296203647 -1.6804028351001574 -0.2698128512969224 1.621347423698898
Ni 5.645829513528905 -0.089322625928246 7.067886298249691 0.6858703075181026 -0.639847303820769 -0.5288553514512182
Ni 0.31590363684956985 3.6264911325129416 6.222536891663033 2.2731261888499303 1.3425225987113525 -0.9972494122925858
Ni 9.099294874786516 0.23311961788370447 2.93558020019818 -0.23109280901890525 -0.20876303517345335 -3.493410315743635
Ni 0.7857165256714932 9.407253631990818 9.198406243212855 0.6331356961285484 0.6422623410201649 -0.6715500342406886
Ni 9.202035062549475 2.3691019597972782 3.9969336518891385 0.19438336941301362 1.1555465775060034 -0.60476280141281
Ni -0.3672924311656632 2.948104816280132 8.321772879562369 -0.09451323798823724 -0.3752375939913409 1.3039614506087027
Ni 3.8253796048378366 2.0192916299294312 12.043856893729243 0.35250981337652193 -1.6517273215423358 0.9194511730661843
Ni 5.246650036283152 0.5594767976818537 9.26674885154895 1.118461242617932 1.1494281233130914 0.613954238104091
Ni 3.7563656508991388 4.854558023755667 11.981672338511157 -0.03183617067399033 -0.899262356823135 -0.20905408405131093
Ni 6.979507109247663 9.133479269258792 1.068314688475589 1.1087545568531292 -1.4642201104238655 2.2891446757653737
Ni 4.109364404868475 2.5413703634507905 3.649170084589668 0.9849502832102585 -0.341600879773502 0.5729094043476392
Ni 9.0695705339694 6.020539472083754 5.485695821895667 -1.2821551533668885 0.5085711472808854 1.889665692728165
Ni 6.293453614823588 4.2174342164960965 12.937829300352757 0.4541552915341662 0.1122890739144195 -1.5599371389122167
Ni 6.988941478509843 3.444704207641492 3.108545195041021 0.2856729582576306 -0.9604430420975136 1.409681870166669
Ni 3.694168005376822 1.0907121990113915 1.0121254925943788 0.6163052548347708 -1.0673633955008521 -0.5117757702611122
Ni 7.593872487583404 4.515472393138286 7.156044822123287 1.021085595480235 0.4722836257037608 0.29867348428235657
P 7.795463172709855 4.184960911790894 5.001630396833566 0.4293744850450606 -0.2599382724956878 0.26709673791734
P 7.858876346482006 2.448728410378765 1.3936517595656075 1.2161060842566151 -0.7257730572503113 -0.33992092096791776
P 1.8209922212948413 5.354803999866532 6.627256372662841 -0.4814717199609321 0.44994459588692837 -0.3337525873736768
P 4.980122091963604 7.540183539809931 8.405155312435847 0.6043151723524302 0.6577527233462801 -1.1792128107746918
P 2.7004736611368614 7.95515553408623 3.567129407899663 -0.7319339346453846 0.39951292159893775 0.546975972311329
P 8.227761119654954 7.683943130896163 3.439708386534671 -0.17485969755778918 0.2787448636792296 -0.07014663621841469
P 0.7679193220504501 8.738441938279784 6.99029164988889 -0.00019874627436739965 0.2082894379711445 0.3696552148075569
P 5.136457725326973 4.376406611139878 2.2000949119402455 -0.11148611839714993 0.07365259248914412 -0.18285454283780767
Ni 7.415984603328733 4.494855163977626 10.679888334024602 0.3634773681316192 -0.9664380833386839 0.8295888035863971
Ni 3.957442074073736 6.099399204846113 6.307506991435139 -0.4191731190320265 1.3870505059203981 -1.4934507251542086
Ni 2.920914384353058 1.1811755514510207 9.518347303895336 -0.03849841318551434 0.10009073207601471 0.6131834213763375
Ni 7.196993163795031 4.811163665236564 1.2968732703572212 -0.7271997623945089 0.7298775663369882 -0.8976201932340218
Ni 6.24285958897854 7.499594246482755 13.283142175696215 -1.3313398426216554 -1.3194916850338179 -1.0458843996914697
Ni 2.993771277604696 8.439496790558872 8.136984534935559 0.32063764725827365 0.04315108146617729 -0.514060709640547
Ni 7.0104002272280805 6.690473191871558 7.32943338181011 -1.0006586950844507 0.9770189441783238 -0.22772492098793684
Ni 9.341194346720949 -0.019539149105229314 11.521104009540093 -1.2077224881786104 0.8668857402646426 -0.5818730412988301
Ni 5.260235902029383 3.1623930965087035 10.670021049701136 0.15436234893538575 1.1789467015974986 -0.5939248302570416
Ni 2.0849488558551244 0.7179190350043604 3.6388661451179907 0.3224854991002898 0.3905461993239532 -0.47755747250819036
Ni 7.127764154858285 0.7339490475544898 4.299084054102693 -0.0738438825643438 0.7716747048784323 -0.00261018392933744
Ni 3.8253796048378366 8.5534011377857 5.365486623139119 1.0313802925380235 -0.6489160988912566 -0.22693070722141562
Ni 3.1154082545439348 4.748199301895121 2.913903591416703 0.3674286394698833 0.16347073899455716 -0.47303413071654016
Ni 0.04639110316581099 4.032327964480867 1.5982831353601066 1.2675160632974751 0.633254995315232 1.897853113634964
Ni 6.410237828980795 6.449246935583186 9.638610733912262 0.21641875194649826 0.6745104024205932 0.43525202687176007
Ni 2.6287387939619946 8.024393893240282 1.1473455302146567 2.284378364724982 0.21611330489093747 2.1453004527524926
Ni 4.081304402731904 6.249058783052697 0.22821916899340888 0.4977591442670459 0.18907481271590665 0.5448990351776422
Ni 2.122620881382697 3.1322573461301064 11.015361975696514 -0.14630708273107704 0.6255306300877808 -1.3137154446716728
Ni 1.3008396325386051 6.677962601115564 2.5784018990928734 -0.06881326211897182 -0.20467086738195073 -0.058086619730087066
Ni 4.3489543731282225 6.654746011543721 3.367190906171257 -0.7221863683403175 0.9806904794926402 0.7156966468509158
Ni 0.6388489223526057 4.831939848091434 11.92259392548226 0.9696414207673301 -0.01740508285032486 -1.0622800674406738
Ni 2.6260926824642774 6.975065756027113 11.90918290879966 -0.29670659036397284 0.7973515408192462 -0.2834561531119699
Ni 1.6009722578574335 1.9228628388483051 13.22977113531116 0.48107577007409413 0.9430060775679887 -0.3381016083709919
Ni 3.8795267132593243 8.788082241959577 12.690815259551709 0.6945182130010877 0.9406314066882251 1.2111554251195593
P 5.72412823325288 7.1584796187098805 5.317576109661014 -1.2776215271625933 -0.6195754409456103 -0.22628767432077804
P 2.027847078764807 5.798724266923513 10.262167375860216 -1.7256110562056797 -1.5251439424924316 -0.8957088351439219
P 7.635724060246948 1.2858792848483305 8.135164047625999 -1.431596153741257 -1.274096287618154 -1.1349625827070646
P 3.998199671312428 2.9538084488370497 8.805687766125837 1.1293452365202872 0.6353666423415961 -0.13898303826583808
P 2.0375058532423407 9.195349657175385 11.198931987008296 2.197517758185996 0.16012779066425326 -1.2837901178671505
P 0.06823227577188132 2.5663634943108558 11.343896821105329 0.34686855593034455 -0.28756143352959507 -0.5852229316076695
P 1.722749488056269 2.1055941356677033 7.8461787513798855 0.1747159728910733 -0.530500600364125 -0.4538971527767731
P 1.611313598198336 0.6147599575060717 1.512013355382407 -1.0295198422905172 0.5504222789887165 -0.970635152139167
