# total energy = -340889.29101529764 ev
CRYSTAL
PRIMVEC
9.08269448660224 0.00000000000000 0.00000000000000

0.00000000000000 9.08269448660224 0.00000000000000

0.00000000000000 0.00000000000000 13.29344147397515

PRIMCOORD
 96 1
Ni 6.481256328471033 2.122416782726222 11.483473074422982 0.8386290594117943 0.3975529696590895 -1.1572779583748134
Ni 4.534262705668869 0.7994705698779921 6.121895890878647 0.26027225879633886 -0.1623224843227269 -0.7148720940670915
Ni 2.6722740198931776 1.8975383517145323 4.784136711709605 0.6239152059715449 -1.8646290614745114 0.06262564525102118
Ni 3.6408343868799107 4.322990150890288 5.0068816178033 -0.10970408679606268 1.4235398590956838 -1.4011810317845095
Ni 3.6507617718750955 2.5196030094777537 2.594985740041371 1.2476082686299548 1.1818895862759065 -0.03490709628983021
Ni 5.292349794985508 4.4439171443265995 2.7370663287693433 0.11380422500736531 -0.04695528570361591 -0.7290039054827832
Ni 5.498036492699095 4.554744181573848 11.694692041304515 -1.858513692605393 -1.1546464342892373 -0.619378751553772
Ni 5.833596637847399 7.794623023520157 12.044721826924759 0.03698917562983953 0.9250446079935616 0.6049443212959968
Ni 1.7107799891610223 6.561783497151094 0.6644218031658226 0.41911424076963305 0.6791458443100754 -1.666573899636865
Ni 2.9894780396295255 1.5347846194888424 0.3915485983283743 0.23253519789238664 -0.23304890430401154 -1.098538535552076
Ni 8.353417631991105 -0.07018742935845271 6.969711826586803 -1.1734216580142114 0.3006702029974112 -1.1056931443189861
Ni 8.662029422811218 2.2497016622527704 1.1446665455307716 0.6736999907041559 0.5112605211875905 0.564107489785293
Ni 7.044646780315778 0.946353179142976 4.840128797967441 -1.5769964083873484 -1.0266296652269158 0.19796543033731712
Ni 0.7482278245295634 7.693296484630606 2.5681336622739757 0.7923142355056547 -0.7223704593266657 0.25518713096394763
Ni 7.7648045377569455 4.385860561628319 3.8941271190983113 0.49411023466054904 -1.137816250105776 -1.229230023233083
Ni 7.661725038845371 4.097857404434989 12.422668182097791 2.1032078944578165 -0.4428336958737599 0.8282842258423606
Ni 8.463572549851671 7.370906246383507 8.660889544662181 0.2522455318371204 0.4538907250188699 1.2193158494431646
Ni 7.197635685035715 0.7646729510366826 0.0951775547708507 -1.1118439944117302 -1.0836996707670306 0.06680085967463334
Ni 1.8790641512751862 6.683900323555721 9.111922525250815 0.17448920159224787 0.3934574594334772 0.007517648533283827
Ni 0.15942399371269747 4.693237106008043 1.277368344006202 0.4931998070311377 -0.34768231008089157 0.04465234860205213
Ni 6.763482892016661 2.124006254248781 6.933686227460635 -0.3224497607663479 -0.44717371801001055 0.42658586655632985
Ni 3.399852338671092 4.545625156381565 0.35454570128319385 0.3228002021272312 -0.49131493130359893 -0.565995193726309
Ni 5.993660961516328 5.630553004208468 4.751195595606646 -0.49231586176428765 0.747604551303106 0.47660256479408886
Ni 5.291496021710533 3.2063636995563454 9.44399309920502 -0.7625460031042867 -0.14023208018159078 -0.192530632474991
P 0.5123647828928272 5.755612623603433 12.451753694421745 -1.826950315976815 -0.9796083021720549 -0.9903002346682621
P 4.2344792938197715 6.113198302707202 12.251328601582548 -0.6825129610100956 1.0032871338462335 0.6869085189746299
P 2.608595249352245 8.37868568785259 1.2447033418134463 -0.6909760041757842 1.5513290855282316 -0.15501618046930077
P 6.589485715115699 7.994923683445873 5.528954892755919 0.32436934638656395 -0.7583203950587134 1.7278872538343664
P 4.971567193649799 1.157743808948948 12.522807612827352 -1.0935467387644393 -0.9830055007790619 0.4286903144938424
P 4.020191284495534 6.495834053006505 8.016330685911703 1.188338941445676 -0.022841937595180016 -0.06084284231898554
P 4.601202163504652 1.0384607832016837 3.7194115010691524 2.258829055500968 0.556129356675823 0.7727604817434434
P 0.6672319888177074 5.490270788974592 3.439664513098716 -1.5912727158007047 1.4138120902849587 -0.7722922838577733
Ni 0.5051558483359396 0.014292527930853198 4.659431317396811 -0.7281569841014556 0.22338721284453142 -0.2116179881237452
Ni 2.2601740089128324 6.4018917446760435 4.635064264821256 -0.12272852408018864 0.9073021964084761 0.34138722110079917
Ni 5.893660496011313 5.7002899319239555 9.234595212553618 -0.0963250943859954 1.3732706785274866 -0.27735723930308365
Ni 8.590276136935683 2.72253765078371 10.122690173182308 0.9474188619237038 0.0017871738074098254 0.3157129562631466
Ni 2.5574415144090796 5.409007922046945 6.968355780310699 -0.7393636514505525 -0.2274251303593309 -1.114754483190306
Ni 0.6604363168566855 0.3462350358938124 8.914235864777629 -0.26226537796696764 -1.5630121782931146 2.118122349675804
Ni 1.5576911748025255 1.0841467361072452 11.159485190228349 1.3065256117914532 1.2485091831776693 -0.5341572232801058
Ni 4.308739403353742 6.561965151039387 1.4668778546979018 0.7690406096896949 1.7856440010288601 -0.9031966588805348
Ni 5.498199981198559 8.25854888883035 7.749917093341934 0.8768981301953221 -0.16288889834915818 0.7039181661587489
Ni 5.393294860709645 2.9410491130107475 4.9087494625393715 0.7725992735752307 -0.7943837164401738 -0.49735419551914345
Ni 1.0506770071893536 7.2930130590836875 6.501994844627944 -0.8264389451035058 1.2539655783065502 -0.02545674951020777
Ni 5.520634236402682 4.828015208426657 7.059242670240081 -1.678402002620045 -0.7199903891302633 0.022863791972050945
Ni 0.9835922262429367 7.6983555454195525 11.200947690231112 -0.19651532815435188 -0.9089831836553248 0.28394080605787225
Ni 4.954064841512817 0.35942219991440577 10.228877770122567 -0.49249763875779046 0.7075161679226525 0.052252015326180984
Ni 8.296378311067262 6.942857024011082 4.4847284151398314 -0.23936199100623295 0.45604608079897585 0.10919397992886357
Ni 7.398844614402893 6.210737358025855 6.894470786056052 0.06466761538171445 1.386528057758025 -1.7090395250002437
Ni 2.5581953780454936 5.482604994888648 2.426212928967701 -0.4639380819525429 -2.3371137474454846 1.2673216878984819
Ni 2.2659142717828753 5.259543102759883 11.347015581807103 0.8801798862703875 1.000301054634716 -0.3129608474393062
Ni 1.2923039267016105 3.4296163282678167 3.7556232954308184 -0.4531052530030971 0.2929705203603084 -1.6151407806675537
Ni 1.5443032832353691 1.1009133899966421 2.381639606127931 -0.804503321372679 0.029716553227826244 0.2702334837741088
Ni 1.2098875575833075 3.4441395566368014 8.146779067902864 -0.3389163909628034 1.3334728298042584 0.12419302444085709
Ni 3.7454306957587273 2.9397775357927 6.933233909278787 0.6874679910225258 0.18674230792798804 1.1037645598377055
Ni 4.358585230301202 7.427645838391667 5.725857716701124 -0.1500081857317481 -0.5577190697604459 -0.28182813059024364
Ni 0.8237522451260495 0.13932762405089918 -0.06305660597353097 0.30905328485478384 -0.26422712967902884 1.31604075037074
P 0.44508744882482015 5.700807645505589 7.77856391152566 -0.4572663263593222 -0.8189516355875252 0.5361459715753606
P 8.697751659943936 2.0243418484371056 8.024199932352532 -1.1317808425449734 -0.8164417246814778 -0.8353622157350645
P 2.00706656366049 3.320987303068907 10.300449402109807 -1.1736119196481465 -0.3874999562984617 -0.818475467282055
P 4.186041284506579 6.341609901846181 3.6313030073612036 0.42522883830780317 -1.0124731712208757 0.7939936800906067
P 6.984891733761964 4.2060413776075825 10.292952546139977 1.537617392369094 -0.07482398708942598 -0.3271075712533334
P 6.653573206905289 7.896267456714221 9.700596473537551 -0.8282906536002639 -0.49336307208187935 0.9538041966247572
P 2.4282311036666306 8.8557269638975 5.444302364272735 0.5976693849011384 -0.795585707168075 1.6690771256746932
P 7.097726046474845 3.9163397565587172 1.4426306936886202 0.1468693829924503 0.6389965257846995 0.44133808516483997
Ni 5.403976109341244 2.957661361095096 0.54794078864547 -0.7448331592055559 -0.20170047189971713 -0.645791694329662
Ni 1.3779991485035932 1.1760908516664894 6.989983492250802 0.8923342622447341 0.8952604347525936 -2.9701386290277814
Ni 7.040741221717491 0.9231014814415373 9.032082916537941 0.01938020429882469 -0.08714059967324993 0.1579526373898054
Ni 2.6961433408148108 1.7199989239918665 8.814376181036039 1.9906809935009784 -0.6539055816860481 1.9326164852580778
Ni 6.372118672384905 1.765557719175623 2.4512975144020106 0.16037847322247864 0.932361196259633 0.67820713454589
Ni 4.118811180449528 7.143021443520578 10.198222768203768 0.40722108887647285 -1.0307701697578506 -0.12378524747947714
Ni 8.387405074490628 7.419916465444822 -0.17303713610133675 -0.7180193814468214 0.26377692951548765 1.4576961932624186
Ni 7.792107117167307 4.307286172247402 8.13452288005977 0.11092433235640897 -1.4618156147474308 0.0369125567556332
Ni 3.4710606628817486 8.31711410241585 12.254665583510482 -0.7239519448811725 0.49062741831827117 0.890688242000879
Ni -0.07837729491211966 5.297045547997869 9.997518836646044 1.7954396469630431 -0.9475129642994069 -0.06839340097273383
Ni 8.857370931586548 2.4820006546012077 5.384269387269833 0.41760680298617114 0.2076644027926359 1.3675805701212447
Ni 3.5479002576294727 2.8731196414837705 11.576593398908921 1.5676327077842613 -0.2481129977259856 0.6617664724913636
Ni 1.1450552848517173 3.3798340801812596 12.410663584889981 -0.007157179870071545 0.07720405728582833 0.7034432834048594
Ni 2.9228473934038397 8.421810320933227 7.684552574717648 0.4877935484139019 0.46905971944982444 0.19038967487258823
Ni 5.8489463914081155 7.876285529002048 3.482894505434563 -0.5087251563602465 0.34159419490528264 -0.44029036062661586
Ni 3.191241013355995 8.562764655553785 3.4141948214212254 -0.09386197755748352 -0.9903328876784107 0.3368566802202973
Ni 3.227926016096664 4.660348669532687 9.075060409969062 1.41392290483121 -0.7330281961508278 0.6157894915406169
Ni 7.49835461440952 6.343753417728031 11.258680929008232 -0.6797562242005648 0.00686304566842044 -0.3882062383368669
Ni 7.853133740939169 -0.16066832284750104 2.4511512830219355 0.34642478352470657 -0.6047951973126422 -0.4157530376068839
Ni 4.686116273586978 0.13382441950507817 1.4901549839437018 0.45066733298556577 -0.2088651079689564 -0.7307897937386123
Ni 6.192145082559119 5.752560838280119 0.205133561623737 0.417764411609958 0.4543789775091981 0.7157807219242898
Ni 8.00261672561506 8.97382015667645 11.075177804132922 0.2562569669893587 0.24035417971617318 0.31975627309458476
Ni 0.32260731464360803 4.9974619554258926 5.599995187119905 -0.08227170161672283 -0.413761718208468 0.8870907544576077
Ni 7.543768086482642 6.152353798328648 2.2319949494914595 -0.042456369391997845 0.645887853587894 0.23275194188888304
P 8.488595372963962 1.5961745510372898 3.4867364851719493 1.3092898048001516 0.8153762595314409 -1.895633737386142
P 1.9867031627829017 3.167880323321581 1.5173403965961145 -1.6890399419498652 0.6257067506543288 -1.1264985111001116
P 5.013383918734729 1.495293064174055 8.218457875684198 -0.7609521762546055 -0.9248736296333363 -0.5535312569313435
P 8.882075860394327 1.724358617310886 12.087274250257275 -2.6316896646197 -0.27703328030476165 1.5251367434035799
P 6.448931019049383 7.824123614978858 1.1360080129453098 0.22878652948323175 -0.3553740222981944 -0.2730645254650007
P 1.889300347880468 3.4520959969440126 5.991818991089042 -0.6981362693696492 -0.07198908874379215 -0.11956092498548442
P 7.168934370685501 3.9000272373900517 5.931626158664443 -0.20107877915531822 1.8192112954613442 -0.840445800905559
P 2.625116670492447 8.654935838473396 10.092301294209859 -0.3857559770241614 0.5409287376759846 -0.9552293591070581
