# total energy = -340868.39352393313 ev
CRYSTAL
PRIMVEC
9.23893829133761 0.00000000000000 0.00000000000000

0.00000000000000 9.23893829133761 0.00000000000000

0.00000000000000 0.00000000000000 13.52212007556528

PRIMCOORD
 96 1
Ni 6.952892301699478 3.9083295568261662 4.8161873536406405 0.8140721960080368 -0.4948286008838123 1.7209807565225197
Ni 5.1755700397326105 4.333653316667239 7.182477144755406 1.4302591800973885 -0.6394804073996535 1.2910671111445378
Ni 2.3458495641994737 7.612783463977883 6.936536609370721 1.5625254684646832 -0.7179880139882537 -1.1744236169161646
Ni 4.18289232281272 1.6956592870508185 9.854312481173501 2.4653493173868317 -1.121464805330946 -2.329408922602059
Ni 2.392469246451582 3.4183332294534328 1.9461712490661698 -0.295301225376014 0.8004582047690278 -1.2786260571677075
Ni 3.2084707478131955 0.1195047419664674 5.4564864235322394 -0.3842876200087511 -0.23480265377032467 2.6658557689784472
Ni 7.553672737253945 7.574414153555171 3.3279560880094037 -0.27430354007842433 -0.19482457071549028 1.879232670320299
Ni 0.8490953780613859 5.472943744181403 2.3152705264828612 0.7295541215592984 1.740079167914868 -0.17569479186457482
Ni 9.0145521262884 0.053178404493640447 10.215515238094577 -0.31223296813434614 -0.13708170747806717 1.3129551694668808
Ni 0.25903950199131187 3.538808983826697 3.3115532770957308 -0.3586125838401501 -1.29869377445186 -0.010030387652808531
Ni 6.947007098054097 9.226206961943086 8.44292793196485 1.486231838808266 -0.4493231602528456 -0.19367580182302774
Ni 1.9607521413630937 8.722130492724888 8.86481757846999 1.4499926539705736 1.8692647604743096 1.6772918002750017
Ni 4.5085741339639425 2.9997908502649655 2.8506383555543415 -0.2583339041230454 0.16137374725621242 1.3338808638759543
Ni 7.072638179953457 2.0639233644525294 11.224887716375855 1.829583639834604 0.5592576178921593 -0.34324047225945403
Ni 5.130243808831136 4.572895621843288 12.295880217001297 0.7731381767978363 -0.1550040962844427 -2.0652039044102173
Ni 2.403759228954966 1.114012692547504 10.806540278783803 -2.874278390093347 -0.08804305688286128 1.9305416050069204
Ni 2.3433458119421764 2.0341370276350905 3.922023511054084 -0.7208625073225715 0.07751541787866005 0.6595542953313931
Ni 3.8837539811641357 8.515261427067545 11.033685118256145 -0.6370728263994254 0.45661712281109745 -0.8831433397740854
Ni 2.8367328296412126 5.06507233863566 6.881649925200424 -0.38182501740087144 0.7900804610791297 0.3124034322739394
Ni 0.7370326008301689 9.058280020878021 5.0150970740224805 -0.5355589887236389 1.4825741874510208 2.1422490675206785
Ni 3.1710160922741455 1.692194685218765 13.497401360675891 -1.952522994374018 -1.3821360993379164 1.3839582401483197
Ni 3.270815102913716 6.528289179039472 2.3139050114141213 -0.22052326103317504 -3.017868845224209 0.13077402009248446
Ni 6.969199027655676 2.7828975366402147 2.633135272007149 0.37984835329047484 -0.16794805803962043 0.5578864485762456
Ni 7.487318682966462 6.93876596516292 12.36349076688654 0.6138997307170717 -0.26911556811958165 -0.5043378259258282
P 6.9330285845290405 5.027423665394014 11.043947730829597 0.30774176513221196 0.34883416429714764 -0.0937323939581547
P 3.6116025780526906 3.397628768905083 10.930267215516267 -1.9113876577862887 0.7129723059412173 1.6811674811803239
P 0.5493768310926598 2.2884757578606725 10.606156023862242 -0.4941297750445749 0.6886892650241365 -0.7979395521122322
P 7.933457770614511 6.93255739867988 8.367176953615015 -0.22041604603134943 0.5551361395246182 -0.5719964056150665
P 0.9470835568100701 2.2137142697940733 0.8008718161344925 -0.563055651482011 0.95058234725335 0.47727799359455864
P 2.6487389147648948 8.775799484837949 12.837765193092325 0.40914016027605665 0.869353999299477 0.7409230255178724
P 6.838662069562129 0.5186712199224494 2.579533724143088 0.2986454592578986 -0.2802777553839883 0.5459441886127049
P 4.490308753105358 6.602921321971008 6.68553867920506 0.7904033916361871 1.1710618995327833 0.9212925971502972
Ni 3.386856166941952 2.7218096771374523 6.193171640285382 0.9076595797478949 0.4800776678268829 -1.5829425986684544
Ni 7.937800071577351 1.6810617646651007 0.6177514411685967 -0.39483994160330066 -0.9505383813892919 -0.4783848535054923
Ni 0.4671281074935381 1.1755440210847692 12.434359890281556 -0.2243567758466523 0.704018182071723 0.3700167119120337
Ni 7.3959825397353205 8.058035613556926 1.1243870962734042 -0.040465564214214184 0.8910422829061879 -0.6081438020699009
Ni 8.006473099357756 4.84615569754099 7.285244626244681 -1.6457790743787013 1.5978506261285383 0.6603744772398433
Ni 0.4076025524435761 5.67909217265768 11.899871608128505 -0.362489293186737 0.23756813233060378 1.0969745334990657
Ni 1.2104579686136467 1.8781745115633823 6.953317292857544 0.5716778459333832 0.03814925737621172 -1.0523252702208068
Ni 1.7756500141492633 7.192587314848248 0.7791677024708674 -0.8494750009873627 -0.13810834897036858 -1.4742839224177706
Ni 0.9713357696344427 0.0947998211693732 1.2005658374627683 1.841937019193634 -0.4273168311850834 -3.5990870265478594
Ni 4.652221145389979 6.546185002369305 13.4820407019933 -2.0106746630140857 1.5180685237028886 0.6845297343298081
Ni 6.7368582093290765 6.511668329183836 5.754879182866566 -0.5745073449623784 -0.7881359357582491 -0.13972685841039809
Ni 8.785528086782353 3.5875998165602256 12.184268299955157 -0.8034108596394487 -0.3902386953858634 -1.1133339486936955
Ni 5.147197260462649 6.737883731471365 11.155694536373732 0.20847198629559582 -1.983256676012449 0.3970186944221743
Ni 5.70716006696642 1.3993850162500638 7.009353300942261 -0.6364632178398845 1.737434531203169 0.08351508710552069
Ni 0.7639003570642862 8.147514730206087 3.0488320582242237 -0.28598560440204296 -3.6579658031619386 -1.264656225251177
Ni 0.9479427780644192 4.083897099798186 5.596886872068186 0.14178014139500097 0.13729125238571194 -0.9646673645915064
Ni 4.976905151213569 2.218638623864698 12.379230222036101 0.9156917060237519 -0.05421248148666147 -0.20866481903269224
Ni 8.994771559561931 1.5546638508935804 8.633521684055939 -1.219124302257649 1.4992552476511276 0.8102530793722627
Ni 4.671022384665254 8.719423483826777 8.308639964954466 -1.4218388172441772 -0.13268306418973924 -0.010871652607181276
Ni 4.828610953863473 0.6507547762738247 4.049577215996778 0.9346975577022936 0.9515940763473161 -2.4504289486315733
Ni 0.6865288689508736 8.1347003228966 12.296569441792421 -0.6089346734023126 -1.3627967755793562 -0.6294029685589935
Ni -0.01773044633571559 6.99754409011098 10.048585178463322 1.2468107124293235 0.056900826952102 -0.006885671376239754
Ni 7.148600729988501 1.0994983206057556 4.9285559397269 0.15757828476952218 0.3676327850608894 -0.7632090906095824
Ni 4.635905180495563 4.216845420766842 0.9414949230815127 -2.1431047306527544 1.4484091115335378 0.9833011776426098
P 7.81574445876867 9.055905613755787 12.691334489580964 0.7101266089623061 0.91905496606903 -0.9858082603351798
P 7.826184458955924 8.537046843387495 5.995694879221279 -0.29196624746551003 -0.4791870376918134 0.26332390113846904
P 2.7520302440511752 4.533352966266787 3.8696248729461113 -1.3571048674009014 0.02598588254080041 -0.0750348175486514
P 6.300438484687215 3.207241969030094 0.5791973519815082 2.3090213600846425 -0.5511445018667218 -1.141251758149886
P 1.0392419655426859 4.199790340814921 7.729365929785741 0.25850745358643223 -3.422569738781989 1.124394063162599
P 6.922052725925095 3.2597376159893643 8.623285864403321 0.5355859853068323 -0.48425031114733375 -1.470605188014603
P 8.476005178575827 5.375851742439943 3.881253924482126 -0.911025153786018 0.7454448246476258 0.535213175348446
P 2.550381178487459 9.104613296045347 3.550787267227383 0.7116273618775486 -0.3079423111787922 -1.7137179043125195
Ni 5.194629969278013 3.9721890977945713 9.745256978332506 1.6619343439823246 1.239721152572394 -0.23149235845016908
Ni 8.97926862123077 4.489856045132636 9.651399528861452 -4.710981157471235 -0.11674736679608924 -0.2844969356716584
Ni 6.919096265695076 7.689328067120712 10.280840998558308 0.7811271085405838 1.9404246684485873 -0.7365225824573315
Ni 5.923480566421605 6.255657351140649 8.742239965651947 0.5838229659363494 -0.3000590517759736 -1.4453248161812593
Ni 3.0890389934586566 3.2559958460107468 8.489795217761221 0.8465236316685228 -0.5691931318383164 -1.2896182945131534
Ni 0.2893912618277419 8.659739942933273 7.529440850093654 -2.959072343911291 -0.2958128749051099 -1.1213154242372754
Ni 6.257135581255659 5.253103209264852 3.1468405626369886 -0.021767473584078642 -0.01773572671686623 -0.3262616783132704
Ni 4.776891377714582 9.082763207157864 13.241522499449234 0.7535018906241474 -0.6225671765840827 -1.4641938851716203
Ni 3.745807394619104 6.057888639628833 9.271887968072162 -1.1701152193487976 -0.7402519675927768 -0.5394449540416064
Ni 1.7456604206910105 4.192842659274377 9.944748751822132 2.1547168609703857 0.0892573889059366 2.0511402272283
Ni 9.191413120611053 1.0302340007793473 2.7550098016267413 -2.383082243755799 2.2089583959227697 2.4331976723549515
Ni 8.270826838612525 2.7726330762791185 6.7509993281667855 -0.89785673472486 -1.525178909495425 -0.9306120747790102
Ni 0.674473902362972 6.140235295973073 7.703335221354248 0.05271764210868986 2.6179779714605624 0.825359853106714
Ni 9.137651739115807 6.755446953025319 5.5190802299646675 0.5011465726820401 -0.006713150354117471 -0.8272678687627043
Ni 8.594069570073982 4.046479400012012 0.9764947927358254 -0.3543797767057252 -0.6882215813590986 0.3775122489581305
Ni 1.8959317508199325 3.501354328287647 12.67072703788391 0.020481407782803433 0.04728541534952501 0.011854842456057002
Ni 5.191922960379903 1.3567565553084813 1.38328616640379 0.88701953490004 0.5109980115548232 0.0850664907530406
Ni 6.656701181342693 5.742175642815705 0.5641979357832726 0.5889816273191534 -2.286397709147856 1.1741937602935455
Ni 2.6878842959979874 5.582323533753878 11.75311569399184 1.577497259283167 0.6030303921027357 0.039698861251518724
Ni 2.2618306600376283 6.769545572747222 4.585945622077356 0.01941028620581173 -0.31025167603825926 0.1013577717138964
Ni 4.398880220492027 5.051805223353451 5.161474191692175 0.6963233845306266 -0.43569631349803034 -2.132107608211302
Ni 3.884631680294922 8.626867800750754 1.8356273532781249 -0.37799304524929095 0.7232065820747158 0.2220003597993338
Ni 5.590795640100525 8.608389924313135 5.85678189973856 -0.06385026168674164 -0.9758755746025 0.7939692546105745
Ni 4.602552613525663 7.236481510325809 3.9663491649464624 1.0693035499463586 0.8100455913471469 1.3528574049784572
P 2.675504118784784 5.195775597617145 0.4879249574240762 0.13898021005236064 0.17212275824260034 -0.49042224428600056
P 5.701071606680226 0.6085429914459101 10.877991455286603 -0.29797877220817715 -2.490973188602523 -0.09395042350623174
P 3.1247382507361334 1.052167240110799 7.4721751393320135 1.35647006203038 -1.0774858286468347 2.0469249035953716
P 9.178866642509911 2.010845664385474 4.80244812861545 0.573545238159425 0.22989261806321698 1.0551995064448085
P 8.83021683094673 6.174798163849636 0.6130700711731264 0.706859251064944 0.4453400072353814 -0.829222935606546
P 2.242650624295382 7.175504518081672 10.226508650681138 -0.7612033730334632 -0.6474366861322527 1.0948852550702046
P 5.570322153007646 6.90743672566294 2.064787205175988 -0.3540807574080676 1.084612926609919 -0.8291761415290106
P 5.135888800082827 2.733801818945466 4.816173495233313 0.7666911356209117 -0.4266763693876071 1.6869468068662625
