# total energy = -340891.34493272874 ev
CRYSTAL
PRIMVEC
9.07973326172312 0.00000000000000 0.00000000000000
0.00000000000000 9.07973326172312 0.00000000000000
0.00000000000000 0.00000000000000 13.28910742203627
PRIMCOORD
 96 1
Ni 6.252322398958684 1.946041044208435 11.588234595987979 1.4871170696266969 1.3453659816974184 -0.6135572597759884
Ni 4.696283132268282 0.47917656059576547 6.002637001423613 -0.02769695169463617 -1.4501173524738962 0.3633403283331227
Ni 2.919642669233547 1.5854031236618202 4.734895605415051 -2.727194319986929 0.38290513783892766 0.7949452453705987
Ni 3.7068464526488123 4.33728864341982 4.865168892573003 -1.7624721908980872 -0.22352605241524084 0.28088222173720656
Ni 4.763373280432106 4.529824384631607 2.6607449744556804 0.9854416210243803 0.6492536847363335 -0.5252900026974631
Ni 7.239825095419554 6.191315671997968 2.5646114839002436 1.822358068620442 0.5479671325800047 2.557876892403608
Ni 5.2424200008439845 4.608618308811559 12.049033776710477 -1.0447646842647298 -0.0195799790144566 -0.5369185880753269
Ni 5.614253232350944 8.07332643811041 12.308198415642629 -0.1865394478885626 0.19570311666570167 0.6097486846631757
Ni 1.8442663154537584 6.37861240718857 0.43693401014003724 0.044980164255116084 0.8291506876077139 -0.49679832301567345
Ni 2.554392244252337 1.4056698061759765 0.23075778583358075 0.2565971239375968 0.5968060084595787 -0.08837575763193167
Ni 0.525054636200336 8.974399154821457 4.654802371422913 0.4070048591006087 0.5451641159135707 0.19636209040593924
Ni 8.821096940503145 2.0738292084062513 1.4756627450243283 -0.5418761891909184 1.1282790000393021 -1.2388621470062084
Ni 6.9451514361275315 0.6212217217683869 5.075282997141828 0.7335208195165303 -0.1293928234742417 -0.8685587570916913
Ni 0.8801166926263113 7.355010590020483 2.4793092070062803 -0.9824961652428111 -0.1512204608722944 0.6040850586194951
Ni 7.840249688433137 3.766545698037518 3.78747539089615 -0.42310716397910997 0.9889851154012644 0.4651313309296957
Ni 7.576892028737411 3.7712853187360587 12.851603192516816 -0.9634396628319923 -0.28325612128602184 0.2418310213720158
Ni 7.736332142657665 -0.5291450559794404 7.289061764312228 0.5627172943059857 1.20508993565177 -0.8770860778364121
Ni 6.741447623154816 1.038467238569889 0.5539763101678863 0.4485901387415629 -0.9122330580511901 -1.0727732536625136
Ni 1.8186614680018727 6.606413831912104 9.295637389358154 0.5832197851347117 -0.003534238405503591 -1.4914331805035477
Ni -0.033965465726246286 4.651883237218735 1.3706120485531126 0.28047341633456213 0.5425791287952139 0.7163507354951469
Ni 6.491355453575119 1.9249034254609207 7.198483254491211 1.028467489766603 0.048514402660619675 -0.33298459885940074
Ni 3.193169630044916 4.475827211654173 0.42911091206750357 1.4549975633843328 -0.3464366105992485 -0.6334853661584832
Ni 5.915364422438495 5.5441758519844 4.657539910964311 0.2802728702879818 0.7696617882134615 -0.03477134204291431
Ni 5.301174953986237 3.0629844162984123 9.108819156103975 0.5478216081410759 -0.8060961197810956 0.7879670142805527
P 0.1759752159396257 5.531418826924153 12.495216403025866 0.4450803258160915 -0.7006122417139676 0.1205716256381859
P 3.9457523910013017 6.4440137249885465 12.635044293365953 0.33244132476142096 -1.379137935941541 0.12298949105105915
P 2.4353660225336236 8.46291054790405 1.2836481804947182 0.8169495175558318 -0.19956594205521758 0.17313525866751472
P 6.328937187185284 7.541998614284362 5.61383738057318 -0.19181560868583739 1.375896546186108 0.814098935480914
P 4.607692176031384 1.2746674164469662 12.60486416838534 -0.9066630201625805 -1.1399615785835528 0.8829170826958923
P 4.072768777882306 6.218273399687559 8.310356503596388 -1.5230536356223061 -0.2870580115306153 -0.09474052350769491
P 4.736333835144264 1.2202798149445562 3.9281004818058367 1.9995294450305436 -0.45920699502546075 -2.0948685213541856
P 0.3296742145961108 5.423442640435561 3.674384590730379 -0.5306366117213571 0.7036888237567623 -0.9996341104746783
Ni 1.4453573197263994 0.8889476410772701 2.4338869340052858 0.4254376118844996 0.32340621114234624 1.3330550255405493
Ni 1.8219937300638736 6.547413725975099 4.801607128706981 0.9358360421821108 0.07458667426763929 -0.26697923850286925
Ni 5.8731436633423 5.441247997121075 9.198760268658637 0.06394307851086407 1.9226334059034373 0.43107604111719955
Ni 8.43936679987471 2.5844280014760384 10.422367805798622 1.1020794588257987 -0.4760847446174058 0.8018098337009159
Ni 2.4008176379398556 5.234584191145057 6.969910960424179 0.12353636469346467 0.3862434581835412 0.3261493211051222
Ni 0.5664573113407098 0.017729994900460094 9.023729344965462 -0.33091897457962366 0.4065610866949708 0.07175331858390224
Ni 1.5056649072354158 1.1401965686588706 11.223341912492446 -0.6828916845057529 0.1047966221921163 0.31365375974127274
Ni 4.274039222373779 7.121715926747876 1.6997033442817016 -1.4440235808713322 -0.8386671117385814 -0.8112365263314546
Ni 5.519624253576635 8.116627685450142 8.12139908521467 0.33602055747224713 -0.3651879230648227 -0.5136002250643606
Ni 5.426675025433034 2.830189138348447 5.255296878381667 0.40675391943206723 -0.4206275920903659 -1.334897992286559
Ni 1.069928513896408 7.475671163704211 6.907306200431004 -1.1798041645017874 0.07288331842328738 0.6223558319042249
Ni 5.092531766185924 4.519319133389822 7.02967194799823 0.5482576672372299 0.624735387879995 0.4603112838332331
Ni 8.271827563994497 7.132947556640778 9.134467586274926 -0.183880927219793 0.2848854293593287 1.6228790298520759
Ni 4.893240703518746 0.5122776357271821 10.267709079349348 -1.5770159487713744 -0.20433842374319647 0.09021049684782528
Ni 8.247194247988482 6.9889520687899065 4.818657051595332 0.2982893614700605 -0.10395227191395 0.054273930852216205
Ni 7.1730073392498985 6.1826263673839765 7.220955594010153 -0.28883490092537994 -1.224065448313008 -1.2978293695690357
Ni 2.3767291059221773 5.084278288762603 2.6660075877830254 -0.7619497642811844 0.9218592682870445 -0.30286258266303967
Ni 2.499123908635447 5.249511272425518 11.198411689212787 0.028522275809408942 0.17418632563984843 1.987371469511771
Ni 1.1384169409636333 3.290204738101052 3.5866371417020924 0.07423469024485924 -1.02391046652354 0.7131453411839718
Ni 3.571776342473545 2.560802535848447 2.4838799446684363 -0.45368297988343803 -0.025382958849478863 0.23933885107778138
Ni 1.235343092222102 3.479153984722947 8.137199636823098 -1.289297935059257 -0.16062169958153627 0.4530106364067617
Ni 3.7042678084373457 2.664756400556476 6.995147170710623 -1.1818250515865583 0.7460978848505925 -0.5344549570261828
Ni 4.204897054520548 6.681712058833554 6.161720281831506 0.29568200575420045 1.218244727866173 -0.7822959320377044
Ni 1.0312942493901054 7.307323831574632 11.431210599056007 -0.07324738663092546 0.014579697586387793 -0.1696025629239079
P 0.12956143607985623 5.638632315829071 7.94777642813135 1.3227816686389993 -0.558685033218141 0.287833199133743
P 8.57053262480022 1.8023361078180107 7.960879391024192 0.37989540447832637 -1.5854741068410565 0.8595442122979068
P 1.7169956960448634 3.3060851913611047 10.473171636631083 -0.8708048728133905 -0.5587318272956765 -0.6365694044004456
P 3.8797427310810146 6.2225045553303175 3.788803755854381 0.3125623264493068 0.7079825660361097 -0.009590471901912517
P 6.757191880417784 4.05436415880962 10.509930028270876 0.708464904989167 -1.5340615566970355 1.0369012223562528
P 6.347586959052721 7.788086621549774 10.055668255408435 0.7550026435393901 -0.5082153066033634 2.017849326385654
P 2.573859192102281 8.570096797609551 5.7358844295072275 -0.7610439646374634 0.5234064125215051 -0.4623601959424618
P 6.748638771800877 4.172246334152824 1.8253650349783717 1.339648362487351 -0.7981367557247029 -0.11017485578489412
Ni 5.307113099459122 3.070112006812501 0.675757322920962 -0.713431504965823 -0.43422024317313607 -0.6585487368850143
Ni 1.4441860341514727 1.1467339765189266 6.983040254543125 0.2579950327263879 -0.03264015463252443 -0.6135402904951239
Ni 7.083998715288608 0.7612884090900275 9.540928196053963 1.0725783640428883 -0.2494828814903187 -1.1195079387148914
Ni 2.835228390240574 1.700534139863917 9.040752028654397 -0.8539446067229421 -0.47678614155980464 1.096137639420067
Ni 6.469455137243932 2.109821270569115 2.7039744919036144 -0.7451566039832458 -0.33428634838995974 0.7303208245219939
Ni 4.061727822385323 7.221883542736956 10.483165698897144 0.6373605328431733 -1.0206436228468099 -1.2662168848700774
Ni 8.179332322507845 6.9960796593039944 0.32097038240909737 0.13350170343629267 0.010783977989381428 1.524778845843529
Ni 7.710636497874389 3.7473602219148816 8.449280960489148 -0.08794689762462918 1.1973352314070154 -1.0133218923744163
Ni 2.9755284267038857 8.390581393719042 12.263959231869642 0.40899874960218596 0.6764901518547832 0.6835748266157066
Ni 9.145379609561337 5.063358583610424 10.339815780072453 0.6088773378018159 -0.8508523409508637 -0.765114020941779
Ni 8.817383329649306 2.4813367114162115 5.822051096996021 -0.8890609908101011 -1.3721831018902626 -0.4533957876603224
Ni 3.6283884785950025 2.7670032754343787 11.324711685149124 0.5517340558216046 0.050440673149055065 0.3364383617359561
Ni 0.8019165829936475 3.2669969401978536 12.580066509209507 0.9332916784937024 -0.07482475842037435 -0.03459059349067591
Ni 3.2321216852110823 8.500391686301704 7.8451709037944575 -0.5225396936458355 -0.27973808083043433 0.43161083057474703
Ni 5.632439937828295 8.241809966237074 3.4446691582611515 -0.16256571068178455 -0.2016570202562914 1.4200161622131418
Ni 3.1298112522012067 8.420916782136329 3.5056395662893127 -0.009412294452835403 -0.19902395350881852 0.6023539348610013
Ni 3.3248620794924872 4.25566184250051 9.27119837964131 0.07926993867592155 0.7443186814629826 -1.2051223315516018
Ni 7.2675001220271245 5.861085777733752 11.613377285023093 -0.8751832043867444 1.3038071844190255 -0.5353126770407878
Ni 0.5180677815499012 -0.2714549657090569 0.34949164014521933 0.2753841747371128 0.48673245413923916 -0.3432289022952283
Ni 4.594272330451992 0.599675515029619 1.5525136063125415 -0.33530167702835156 -0.6739576152409168 0.037643521384386786
Ni 6.161379791838795 5.902335005384077 0.7034305335819044 -2.4764099460763673 -1.165201584097264 -3.2795642096203195
Ni 8.029689240644537 8.230133429420365 11.686347468367712 -0.7961698618063192 1.87387243444965 -1.3096096500334156
Ni 0.18893925891544228 4.716712531830956 5.868204288514702 -0.6873039546408357 2.063198186834098 0.0026384660641115853
Ni 7.78513570827961 8.964057338776174 2.5043456631636665 1.3813187456429437 -0.8035738675798741 0.1260277636567507
P 8.54190422621306 1.6144128710408188 3.6097205472612868 0.08238740125898068 -0.3130495504983705 1.1074201543124218
P 1.7876178603997457 3.211347255789127 1.4124859618433987 -0.8758709744823883 -0.8392450957292386 -0.17281721320646365
P 4.720952767206854 1.215476636114043 8.141225590496916 0.5091303622184651 -1.5396807026560257 0.5257234906904559
P 8.533596270390905 1.233672421324532 12.493767277616888 -0.3515960433130009 1.3055750749527257 -0.8295183553597778
P 6.2483182366444 7.936976085562549 1.36121634070091 0.8530141244888728 1.0180869178632272 -0.6151346315654374
P 1.853282490460752 3.327050295178978 5.904868250929849 1.0006787496891087 -0.9587767101386844 -0.37538928907785674
P 6.981642883613038 4.164119972993449 5.977227368234216 1.0123510438207146 -0.6216359230190649 0.5992971503125485
P 2.48372468123176 8.680252120051495 9.936731015074482 -0.49953063434517186 0.22579839338918534 1.1437881514184947
