# total energy = -340892.03070096346 ev
CRYSTAL
PRIMVEC
9.03007135911433 0.00000000000000 0.00000000000000

0.00000000000000 9.03007135911433 0.00000000000000

0.00000000000000 0.00000000000000 13.21642220766360

PRIMCOORD
 96 1
Ni 6.109746340021411 2.4725690128480085 11.461149086064504 0.933591212011992 -1.1868546435906657 1.028849812806686
Ni 4.4392011827478655 0.34627885874180175 5.880303060677137 0.39988136068195 -1.3419487284857532 1.662118434968673
Ni 2.72718993739661 1.6416398985765186 4.7021126158905755 -0.16926600552009557 -0.23879480564885322 0.4681701177560195
Ni 3.2774012206420204 4.258572663623644 4.6440393234174575 0.3278051115409903 0.2804687883488718 0.09932428622363539
Ni 4.933218331387965 4.558912839900782 2.543368385009262 0.2756335717437575 0.357704470203584 -0.03775150771716079
Ni 6.935699884926435 5.800466393013233 2.6521130203916266 0.8731435482488962 2.797865975470878 -1.8711056703377906
Ni 5.006542511525378 4.510024033094877 11.164110303907837 -1.0748800155928713 1.1838253698460386 0.9660110231035943
Ni 5.430721087606026 7.940638475952598 12.439309903226201 0.5129985869246197 -0.23158697504650438 -0.1178763381942099
Ni 2.023476469649243 6.6959876083343435 0.24076518292263507 -0.5733007262487868 -0.13741286556524077 -0.2385816611967827
Ni 2.9542420538221177 1.5097647351865207 0.6573305057675859 -1.8764589642299039 0.3379517130566889 -0.7245558970137586
Ni 0.6559543228792926 0.13403244745832663 4.556916291104184 -0.42894742480997095 -0.2878694516883172 0.6049561483705387
Ni 8.924311248724624 2.4228313793262264 1.2428872946649498 -1.2553825132587346 0.11638844079477376 1.6885663447475565
Ni 6.8282420347250525 0.830514633992142 4.862506550919734 -0.6814115004158006 -0.34325872709189914 0.024980581204737624
Ni 0.5352800601102855 7.41092545488846 2.347104297177167 0.2560957588211461 0.3819450879185035 0.1942311601058655
Ni 7.6080067641863725 4.0000958985678166 3.6605128378028486 0.9766260796152794 -2.3829251493526447 1.1473681554602693
Ni 8.059582577032648 3.9839952811805 12.601911690723782 -2.389669410055013 0.10200928925496626 -0.5088519117460979
Ni 8.241285674658885 8.921629317505312 6.738406368949553 -0.7946176868278508 -0.4238676962942184 0.0359314237892865
Ni 6.766060962751379 0.6336030900374052 0.6295657450941247 0.4746901782627245 -0.29521277942726576 -0.8343270896023308
Ni 1.8976153338419441 6.606273848523358 9.199620969961996 0.37585543008099787 -1.2437292452905226 -1.5836023437396403
Ni 0.2889803463987071 5.002235167445878 1.31055594105605 -0.7489795772737617 -0.7019178478992686 -0.4779570219394542
Ni 6.469712078053148 1.975535820345114 7.085482582999992 0.4986148073991219 -0.20973131262399364 -0.30703856841760024
Ni 3.563446793820942 4.28689999774816 0.36631929630078713 -0.19026883302400782 1.1067817493974745 -0.1943383751076911
Ni 5.9636036637475325 5.532968586583357 4.864780322909709 -0.40584014936854623 -0.21476424706221076 0.533963619212061
Ni 5.329331445416016 2.745457771930845 9.18343095486737 0.7905594575980772 0.6729147757986991 0.466787635586196
P 0.3701001872150156 5.728442543163971 12.262870434245544 -0.39645819393301396 -0.30129832349971336 0.19567586297219203
P 3.9942263521282455 6.2608826458046485 12.482025753191966 -0.09348273984119385 -0.8616818274661999 -0.4701431823219903
P 2.372118498088331 8.435278699522437 1.4432067875832162 0.4574522171178831 0.4564867678808203 0.3731758263663057
P 6.439461338710743 7.673492842309097 5.839966634537259 -0.44935401349078097 0.9116725575620298 -0.8670510621979133
P 4.650884117573141 1.0559675247646525 12.670702774995556 1.8472247499551349 -1.7265417955500653 0.12136506807375871
P 3.9585936902043253 6.1430402134409485 8.332729596158826 -1.1791562465051435 -0.01644169049579104 -1.346314718763933
P 4.778867320170132 1.069332030503984 3.957591352273875 0.4413763946019431 -0.3269129387440241 -2.030116316678465
P 9.195231452232342 5.5867516921127205 3.5002110095024346 -0.5291795675598564 -0.007662144530948093 0.9270510969006293
Ni 1.597031345635777 1.1191509346687758 2.627080759337572 -0.16681882953118368 -0.20379746363806192 -0.5392906878519292
Ni 1.8086239797465984 6.322070409919317 5.009750895909963 -1.4417083024745947 -0.7209766643029324 -1.457990584574386
Ni 5.796791153934917 5.696981774247869 9.20277968895363 1.40983587924603 0.33988518263397594 0.1708911998283444
Ni 8.184387194480825 2.409123730871966 10.122048186162102 1.2776688354607608 0.12361478333988388 0.505177291107988
Ni 2.4917217943839023 4.899229142467124 7.0449348531882885 -0.7125910113423986 0.9641991667058363 0.4264285150428592
Ni 0.42573987543357295 9.131930651399427 9.142433527497683 0.4153889693992459 -0.03344799524580046 -0.08987265389243232
Ni 1.304980774945602 1.1250024209654559 11.711468084576472 0.5823515235971454 -0.6521911700981026 -2.0886773049418093
Ni 4.156903089218824 6.77475692155339 1.4522729793144924 0.18110619268813324 0.5438687941409149 0.41493234147780156
Ni 5.784501226697599 7.778620934077541 7.887481154374407 -1.1103314144219458 0.7849343981018159 -0.13185439764085677
Ni 5.071161702789335 2.8296812483029696 5.207455280137614 0.7008169015256059 0.3909735166693589 -0.7025742505363448
Ni 0.8937747995035519 7.314303690421672 6.966124904647738 -0.39901592735786123 0.20278547743377978 0.8813883047561917
Ni 5.046202585313989 4.595340148111907 7.136273122852319 0.610613089546 -0.48884744359971294 -0.5169010073028195
Ni 8.05366788023585 7.130017992362025 9.092145059617726 0.6352997936594026 0.18992224831786644 0.26582841272787766
Ni 4.668248944962827 0.5503395102599363 10.539330496679826 1.1776174412631137 0.09929703253012577 -1.6249580238682917
Ni 8.299123282267274 7.209076267867327 4.836615530071213 0.32697850187463684 -0.8600715455562866 -0.35939291364960035
Ni 7.402256586300785 6.167159534271863 6.996007217075167 0.20429394365850623 -1.3005616808985343 -0.4412758644683368
Ni 2.143161036587824 5.679779488144202 2.58366507883478 1.394975931415062 -1.0582560338829452 -0.04296004850129376
Ni 2.318579204487995 5.3708878342081805 11.320130072328798 0.3191340661295536 -0.9789043341264949 0.03685470693450427
Ni 1.1307455464047902 3.3724607827487385 3.6133830889145253 -0.3866754035146373 0.005899139093254357 -0.016143185418765745
Ni 3.7566632325401828 2.6943836878351295 2.7556373714713507 -0.4077777327108913 -1.4013679509843349 -0.14811122581935138
Ni 1.116252281734772 3.277500551427921 8.326174667296542 -0.5095162848029741 0.1097159138706046 0.14251830511260616
Ni 3.584387529503043 2.5557269407895653 7.076984382762637 0.4768223941143788 0.7128856597646819 -0.2415759679384162
Ni 3.837852604906621 6.692411700041928 6.006427874570645 1.9211601637920201 0.47453565496273115 0.5848120693224961
Ni 0.8155202003568988 7.516559230657852 11.01635034183807 -1.0281301610318423 0.30316005929880047 1.5198616110475696
P 0.3173456068232936 5.461080187805777 7.897658044893479 0.1946908733511034 -0.28221199629222365 0.42496992821946167
P 8.556678980035661 1.6684230904838546 7.918262861917808 0.1397890791069012 0.9259612062705602 0.5274947236582658
P 1.9590740000999782 3.13068061979563 10.495887725962698 -1.461334047125322 0.4375490504360529 -0.11482521007271193
P 3.9536361809807485 6.1050777930840905 3.7047746360000833 0.9084879891864612 0.056230026137322524 0.8789290445824217
P 6.954536613961735 4.193149796001038 10.309642502399377 0.321698227312304 -0.3233771576766237 0.30015675369610245
P 6.253053573861405 7.889212219070509 10.11125002672758 -0.0762126399068365 -1.4873803505904126 1.5865853376273644
P 2.3150213563384705 8.355768920444861 5.741742935396039 -0.1865150224085304 1.3753085348931218 2.065660789441978
P 6.790496336082886 3.82156235601895 1.5089980821207982 1.5783796618881203 1.0499251454197465 -0.4021737562605526
Ni 5.251140056769481 2.6491430298932035 0.6281299637342912 -0.4878922787752953 0.8406676871083779 -0.06800207907158612
Ni 1.561877277498468 1.188348372155598 6.957455133052919 -0.22627996101129416 -0.7977032677317101 -0.2367160687429536
Ni 7.070708483108018 0.5529464918862506 9.153152222303484 -1.3160752031531011 0.43506459345130233 -0.15365529556603216
Ni 2.839695597536023 1.5630782770007186 9.103286361767175 -0.5509354711797092 -0.3895054167642647 0.9987673915990087
Ni 6.430684109265723 1.9644288324671562 2.570250907702498 -0.11179002279081392 -0.2964564220263798 1.1977334952866985
Ni 4.0499870433041725 7.1040475068847835 10.36233567830527 0.6810366335748852 -0.12660600475772388 -0.2183159689692111
Ni 8.009510830867384 6.9682623225588864 0.2984745635164997 1.0237014358365275 0.4263884058335431 0.25488451212186425
Ni 7.566423285179871 3.990487902549811 8.180846503467047 0.3594258237700649 -0.3236666638925845 -0.4369396989868281
Ni 3.1528945955515457 8.665861573883133 12.013740696142946 -1.6055325681538286 -1.1549724501700884 1.4707612539764927
Ni 0.11422047070691224 4.969591459170416 10.090698487124781 0.1498526339904903 -0.6086382252078163 0.3144250906896585
Ni 8.67923510969391 2.204132078987801 5.660672759972681 -0.02695364577070842 0.1704952499415064 -0.15518818727079078
Ni 3.63239138930729 2.623271875201862 11.739302376800063 -0.6722097793118745 0.8371033667958873 -0.6756501724519913
Ni 1.1012172127780242 3.1777363220981005 12.68160658626599 2.902060959523254 1.4153560377333108 -0.867078573001739
Ni 3.256812657746294 8.363751503602677 7.966912371830408 0.2539612289766465 -0.2086717610112277 -0.5704069496407597
Ni 5.715204458424877 7.670079475302699 3.7375113540114335 -1.3794287277090824 0.6286408935819884 -0.17932904618305243
Ni 3.065664105388071 8.060250802319615 3.8740243620958377 0.8623693404515277 1.256514827090965 -2.6358718210218477
Ni 3.437034823655468 4.0591706259642395 9.240499200388605 -0.3651107899699841 1.185541838316513 -0.14436975649904812
Ni 7.217356843382846 6.092354422417389 11.325919251132506 0.0863463859067287 0.5464985184542782 -0.09879489608272662
Ni 0.3984437754681329 0.07869526663319332 0.5879831690947682 -0.01416317887425948 -0.42146294350746766 -0.45528220604975783
Ni 4.541439651653752 0.23161320551262665 1.8013060098471698 0.5741473905197984 -0.5134212762843351 0.801805977046174
Ni 6.013016214697277 5.45564408479559 13.431850206157701 -0.6189210951910631 -0.025647525364775183 -0.026968815279360007
Ni 7.695453976064539 8.6502937307111 11.725517069731373 0.4238383857181798 0.40909465175010185 -0.9417984304131327
Ni 9.218890239419537 4.54096105786714 5.6535362945093075 -1.3585549695838668 1.7775568531453516 0.5704946242585595
Ni 7.718570958965004 8.648948250065722 3.0057053339971342 -0.11025455998289398 0.3757926951638625 -1.7773161978894552
P 8.486804287190427 1.656042862532082 3.3384815269064885 0.22741381750542125 -0.0034437355742263274 0.7644933566386446
P 2.0533027956337104 3.409556316246829 1.608861642236519 -0.9836827293517446 -0.1586964575343654 -0.4067647180653446
P 4.806562549293463 1.0083880783183432 8.162382716382444 0.05699261533495992 -1.2396756440464392 -0.7736169162064677
P 8.417940962347089 1.583233396467062 12.432741429256748 -1.3534135345922433 0.4947442687001221 0.14845729630486046
P 6.237196768403118 7.550060795720635 1.2700100172586364 0.023594756600804526 0.4854415032419575 1.894311676140609
P 1.7903832354267 3.2202589285349332 5.914943317749197 0.31032186715456234 -1.5082944750352603 -0.1139554058732489
P 6.963693106407467 3.8044142503439558 5.862091212585865 -0.15191183051236418 0.47473362990615015 0.4180148370578672
P 2.3403416766716365 8.62021456272616 9.933290796722646 0.3026684643743626 0.4923654840553004 1.3590432220741948
