# total energy = -340863.8838548919 ev
CRYSTAL
PRIMVEC
9.34316528878898 0.00000000000000 0.00000000000000
0.00000000000000 9.34316528878898 0.00000000000000
0.00000000000000 0.00000000000000 13.67466682176636
PRIMCOORD
 96 1
Ni 0.4318794159699041 -0.11783320022212741 4.038444070294351 1.1009916250782588 2.94467879419378 0.1804191939234377
Ni 6.286502184753627 9.054078607487854 0.715237070346129 0.47521185509414937 -0.1612117677570514 -0.005256363302932883
Ni 0.6166087467906353 1.5343813527501349 2.1330428129492174 0.962375483233536 0.15861521067446877 -0.12754085786716746
Ni 1.752665728115039 2.7716313565572963 10.551414309066399 -0.8720014642246532 0.33369756576602533 -0.968189518812152
Ni 1.8640829765945357 5.06583629969289 11.09555652999273 -0.1855608860253772 -0.844522542078094 1.246575713600382
Ni 0.22453682171144337 1.602007184573581 12.35451444450155 0.7650142621391213 -1.8706156180752493 -0.02809778667748064
Ni 2.4662686788168022 2.5652314876968716 6.406978566493143 -0.05745849922778491 -0.1097717068092045 0.21879933636353288
Ni 3.8978565248355808 1.1548713136735158 0.8952761320904067 -0.5244122280782001 -1.7557024762744216 -0.9236572407277318
Ni 8.873876974664034 5.5988919204476675 12.305778624667692 -1.6315863278180867 -1.6013254720510164 0.49309799134595084
Ni 0.6648755397168473 6.400610264894515 5.632239546717942 0.45106868218904245 2.909809750230737 0.8064185361175208
Ni 7.983903088989737 8.873559307037342 9.140599122883634 0.26152490025651737 0.3170059640429572 -0.5204745835866906
Ni 7.240383322385975 0.6660798737486299 12.29403146269593 0.8408294094972228 2.43291485100721 -0.09096125897092076
Ni 2.017684617265641 2.943143845474539 12.835712693831946 1.3428648125421196 1.4668081828660158 0.6789077601573404
Ni 7.991592514188784 5.503806525246339 5.979617505354659 -2.348933365788232 -0.1717070108614204 -0.4456307990029228
Ni 4.154774889505535 4.097641432528417 9.39667099676011 0.3813347080280143 0.08052360857736456 -0.03580621106533188
Ni 1.5903188845444112 0.2697680201696481 9.537642546320557 -0.6122951052341132 0.5595851764349072 2.51715190388042
Ni 9.043128417532468 8.73058084552944 6.557262449098413 0.13261235885280387 -1.2331725528205988 1.327689904573894
Ni 1.166681074854068 6.0156251308402044 9.300045847885874 -0.8413639418444542 2.5205645291063945 -1.5615337939753753
Ni 7.372476996096928 3.3079477420684134 12.138413566911877 -0.01324580926631267 0.36515449872372596 0.9243930904524919
Ni 5.21532694754798 7.120417077482265 13.369899771927678 1.3380843604343406 -0.163638374920673 0.4275482304695992
Ni 8.521518174504095 7.5795589160381915 0.2579451785574087 0.5704254615835208 0.7285439351272291 -0.30342488292441294
Ni 6.778513279506692 7.483520517956787 7.461855585816388 0.42582122047616344 -0.5990030161108973 -0.6596507116999414
Ni 8.247277581013934 1.9161430947100708 10.437736948854644 -0.1509612936736368 -0.4868085587928132 -1.7495958491560513
Ni 6.579886924334732 4.007498571871798 7.68034924808829 -0.9106893677131542 2.2867784895260423 1.7465300657465341
P 6.739440161423568 4.152803481586946 10.07539871363383 -0.7920558396379456 -0.11128634368151802 0.2986948244385953
P 1.553235860710858 0.00897130750440359 0.12544788009724606 -0.8304532084692214 0.3498602915688168 0.23015872724041006
P 8.86570170485946 6.614316489168857 7.67152929986484 0.4903253136968201 0.4217305953465576 0.9104649104071738
P 4.124783328279607 0.19935885934644984 2.8735942558765073 -1.5931061694650175 0.7178646010365121 -1.275457943852371
P 6.013980733713798 8.50303739316301 5.669995278466843 0.19018784327442728 -0.05274849534662528 0.16190416583838568
P 3.2191596404079807 6.762583182344634 1.4832368648527121 -0.19729874328759572 0.056598722330650914 -0.39568609165367985
P 8.780454662920093 8.80319592772505 11.118379080337458 0.19144896937503803 -0.14780989252884869 0.9445374266108506
P 7.205299735967483 6.049185781283672 0.7327611115409419 -1.2760750086110797 -0.7714440769248649 -1.8758827800114597
Ni 4.462407956460328 4.8855879510416145 4.00429853769115 0.6083224937396104 1.1757387361831622 -1.2329121000703605
Ni 8.631029417223441 4.368555859103805 9.133077874663424 0.8288534680822692 -0.29092263669234414 0.12295349560680113
Ni 2.549581685499542 1.3135649795371849 3.985796267069435 0.1871662828392841 1.3078124489236767 -1.5219673445366628
Ni 8.3430450272961 3.2016785777744263 3.0248498276928366 0.4906875821322453 -1.2255134936134444 -0.26870162051061464
Ni 3.9903351768649356 5.985110352346784 11.155711566689618 0.5465987914775683 0.9418038297297715 0.371406907391341
Ni 1.867334398185384 8.695048787167382 2.2806751051881586 1.794140982756278 -0.7327782849235509 -0.9377031772978367
Ni 5.949251283192544 8.623433423679304 3.115061827774089 0.8024574945872438 -1.2736738553687548 1.3340274167561477
Ni 0.573702127906577 2.227064955917676 8.64279993710893 0.5085896592236466 0.44610593886712846 -1.008804721230353
Ni 6.365311785669732 4.2527379796780735 2.0703445666056943 -0.3131716778985316 0.9507600104817948 -0.02984716526841957
Ni 3.893371805399928 8.605158191979019 4.795363804845224 1.0303701061059545 -0.5541298097472908 -0.8317665279640063
Ni 5.040544350708907 4.752728137760404 0.03629165771647038 -0.061081183582036735 -0.6142347454589874 -0.19487393589618696
Ni 4.211842944324215 8.907288134459646 9.533061592280347 -0.508582203024479 0.18624222836311793 -0.26520543443189815
Ni 5.954277906226672 7.385968527065851 9.670300547227164 -1.2782061960214697 -1.0668581737296594 -0.948051096191064
Ni 8.207008537747969 1.663466527173005 0.4897584575531986 -1.0246751126037064 1.27265209897246 0.6605801654927462
Ni 3.515580908773643 1.6986996042393514 10.110228165950966 1.6658347074779956 -0.22541761301099889 -0.8852177058046109
Ni 5.376599327087149 1.1476957625764717 5.088671930469304 -0.9041862764873136 0.02701509513626315 0.2993216593893167
Ni 1.0198625723293877 6.0669097662199905 1.7726470218339698 0.465169897477115 1.0826858847905354 -0.6640647816072369
Ni 7.41865091995317 6.867506930807925 2.6608989621082855 2.4895644811804543 -0.5708630633415717 0.92645665784974
Ni 5.723632522917249 1.9799008560202667 9.737908627036177 1.7696874776996039 0.9762558407600541 0.6644555892877524
Ni 0.2730839096023838 5.054213401822157 3.7360964320577836 -1.2041915922072164 -0.08205212940674901 0.44979495768294153
Ni 2.5317362394118406 6.446550609613483 3.8770007108266973 0.3130773184125124 0.9502293347893054 -0.621426121001104
Ni -0.09574502268498877 1.6365675537245798 6.339015446395473 1.5932558076690044 -0.8466362459869871 -1.3828215554407153
Ni 2.3674740469155693 3.925035793248734 3.412266987724441 -0.4151439432679753 -1.022705133361529 -1.4575103025038576
Ni 6.240449722048768 5.65924876951916 11.787317028409767 1.3804702815997194 -0.5830189819778153 -1.095089657771527
P 2.790317687539183 7.787435005046185 10.651171287013199 -1.1403446729545843 -0.4358222975529333 0.45662997832690394
P 7.971243099749509 0.5542281680738044 2.271731827180228 -0.3606609817287466 -0.7934300942776529 1.0682095455512313
P 7.884538523993558 1.4471442165611987 8.167645781534624 0.43528030900653425 -0.721975537881092 1.5837923482632594
P 0.782521876629156 3.1065838394076075 4.801654558170276 -0.7356363231976363 -0.795349937008185 -0.1724228059815224
P 0.11393055999656047 3.63195937812883 11.532393429572128 -0.6921947070742337 0.6729142615780669 0.43169644831001786
P 2.2613917459314012 3.593829919760291 1.1935286608922933 -0.9520422196283281 0.47570550690111624 0.09774999975798004
P 3.999650312859406 2.9053507410636743 4.587837150226592 -0.03146798870129419 -0.7482547832925952 0.34538785761976
P 4.009647499934715 3.897903240663035 11.928904292576068 -1.319999735018488 0.2418724161329125 -1.0102993034980083
Ni 6.662770145404888 8.100888864101837 11.642925880279632 -0.49130259000842486 -2.57785564951838 0.13383106175125337
Ni 4.148374821144238 3.194129300057744 1.788112763671128 1.2887117235384837 0.7233243385995026 1.2867954803523773
Ni 7.939326846432448 8.354350257540142 4.605969431494866 -2.648216972850762 -1.9461703126831125 0.391949507429383
Ni 3.0620169400158086 5.591632280861205 7.47319164850655 1.0090196654546364 1.816413421001233 0.3726281813929518
Ni 8.181398921137292 6.591668656018811 9.959711638524972 0.1797795034569097 -0.0303295042214768 0.7175516977817836
Ni 0.25908784769695103 3.980758432236719 0.8330020654601725 -0.9778920908118964 -0.4514623180830354 -0.35936720261798755
Ni 2.2690531416339743 5.5368906742497686 13.378733734899363 1.3978455396533733 -0.9075011997931597 1.3583359115945253
Ni 1.0503026054988804 7.112391298325545 12.293279337873907 0.8809830988979731 3.424864448353437 -1.0901575105772323
Ni 6.231340135695099 3.2769564621349554 4.695730156682905 -0.4488004549801561 0.7888347615974866 -0.9778087870694709
Ni 2.0908416030597254 4.763033649296914 5.563087041653276 1.1818559048244937 -0.7196216929369349 0.0783980775939295
Ni 3.2280263044588864 8.061526107888493 13.142887011361132 -0.995924522833575 -0.6370144623576641 0.12778125601274767
Ni 0.024705198191151814 3.8393309362003127 6.79908506128465 0.6521695728315478 1.070751852357111 0.23387808507352623
Ni 4.539190090464898 4.181561744968068 6.222507107039961 0.0606752063928697 -0.2571182865483894 1.3307826845666049
Ni 5.30766545209497 6.319212607137419 2.0977761004871036 -2.113491792882328 0.7485239777935817 -0.22269738586635843
Ni 7.581866677914455 1.35918765662946 4.327019882597267 1.115514501284782 -0.7220647551607887 -0.22523300780401853
Ni 4.741441593847344 2.2329511501769703 7.594404271686751 -1.3157268186747468 0.7298405424514656 -0.3476139187368013
Ni 5.840599611698367 0.36768813178092846 7.96785900520869 1.322857001961625 -1.308892826472049 -0.7221681135078724
Ni 1.9314752292807085 0.2639799291480089 5.784999368178314 -0.15012645647716724 -1.4089028259087992 2.8501185050176914
Ni 1.8379875153783316 8.128544633955027 7.9807684569675255 0.43276371323226753 -1.5203871445337365 -1.8311579263002593
Ni 2.8200102674693994 0.7726844576837419 12.16520229100751 0.11722096399839813 0.2235551058809634 -0.2876336815284272
Ni 5.190735735975817 6.426070390857336 5.769478501664758 -0.5097235157177737 0.8290979799929076 0.1888351859012748
Ni 5.879261630499889 1.4514140431905598 2.4689202691831316 0.51446694394003 2.5650908936535437 -0.8195558448304272
Ni 7.154258022890461 2.3140498266383567 6.50149776586572 -1.1911959512784969 -0.6144833711346837 -0.9978392233577847
Ni 5.295154953502598 2.1162456700296 12.432870901891343 -0.7957713408163197 2.432509388038675 -0.041246665354612834
P 2.8183845566739754 7.416109578939633 6.062294242467464 -1.3739201391860272 -1.5538099429685563 0.8059801630285217
P 5.032583973710623 9.471540584788684 12.49602042312808 -0.49603701936961675 -3.0977139396773103 0.5343091754769378
P 7.201123340993032 4.891632979114255 3.783000991455417 1.604242131477179 2.176578694040484 2.702487304158552
P 2.9213368972186777 1.0502091738439712 7.980822647327374 -0.23351195998335914 -0.627292864194526 0.18298206955460744
P 0.3890176442802026 7.252398633207328 3.53021137161591 -0.1980507909622718 -0.7541246118098109 -0.3722484294560299
P 5.2104311288307255 5.888520707501414 8.009006306030804 0.451421694653087 -0.3305896162646629 0.16983216243621074
P 6.38015807563484 2.942209528925445 0.5911411462954225 -0.3346565872451849 -2.296861070573025 -2.1005210916542727
P 2.0083507949401884 4.233874128551859 8.630205350027138 -0.9857444969767799 -2.4613119140926645 0.49855001559945755
