# total energy = -381164.23581591004 ev
CRYSTAL
PRIMVEC
9.24461568273823 0.00000000000000 0.00000000000000
0.00000000000000 9.24461568273823 0.00000000000000
0.00000000000000 0.00000000000000 13.53042951176628
PRIMCOORD
 96 1
Ni 1.3315020080679245 1.8127119922792674 11.183305981255646 1.0911754103187854 -0.7642570722581226 1.3367543287690073
Ni 8.396958452712354 1.2591259112744524 4.126618979122174 -4.687314409981915 -1.0936405840298262 -1.8396217407968962
Ni 3.1031863955995322 3.5972001726399663 11.101839653784307 0.48414103926297913 0.03743269092516134 0.15802411405768915
Ni 1.1335100723129379 1.7236493640370512 4.032094631888313 1.7752338614391296 5.1990693543074205 -3.698605431060172
Ni 6.227542961291931 3.0495306457222413 4.417576619893703 0.9746782118602891 2.8273691271363175 -0.6277875444427574
Ni 4.468033732717662 2.5050597558578485 8.980335308007241 0.10273562589802952 0.9260108285615729 -1.2530006432901195
Ni 5.412962888120389 4.742829936215676 10.251451485923809 -0.8360954943566633 -1.0897078246343233 1.3566207286756313
Ni 3.6423231421697837 6.123772149373841 11.16413357262875 -1.4478103016072743 -0.4505601179837402 1.182880746544582
Ni 5.644725405250591 5.139766003149041 7.8502605349111185 -0.6115764819005338 0.5229472134968993 0.7452602194406455
Ni 8.191441399727852 7.874110719113122 13.378861548202094 -0.11380088257325563 -0.7111108272524463 -2.514777233000656
Ni 2.1679271082828913 2.753776898293865 8.9895226071506 -0.6705213358658582 -0.34129311872509605 0.31002361918785315
Ni 6.94399143815964 6.322355740537536 9.574849151909497 -0.7209969760179066 1.0485439488015038 0.021995273324168573
Ni 6.307120613763281 0.8798526072142019 7.8175577066563084 -0.8418485947903566 -0.2935683018453073 0.6383866601148425
Ni 0.3862779494224187 3.5688931591795483 7.373177347175521 0.16003857338455663 0.3176189150366079 -0.013206728498261124
Ni 7.930817192191569 5.801181282391058 5.274581159254404 0.3269877578460175 1.1588543017229977 -1.510542904749805
Ni 5.119742165410548 2.8746225155226632 6.3637938062249875 -0.978165141967625 -1.014133332532118 0.43377338544370453
Ni 3.389760239577159 5.285997335257757 2.9949199270368307 -4.297614617818657 1.4738522341969909 -2.113194059136251
Ni 2.0989068070106898 3.063184943201352 13.408642153414826 -0.38782391529678373 1.1903207477623952 -0.6425919564454418
Ni 6.6353229625130385 3.1590423640279597 8.024126796914423 0.34687498368824776 -2.1043314665392985 4.676877788029623
Ni 2.669318088700665 8.440361923710611 6.30504519752492 0.03259156078277613 1.2774783167165096 -1.669744326945047
Ni 5.961177847368019 7.476277924450933 7.2839575604653675 0.5502322744650975 0.3976951516639086 0.941842653387507
Ni 2.881398818875533 1.5105147476654204 7.011847842307521 -0.712195832786509 0.5770974742870577 0.33607994995527285
Ni 3.443915198705548 0.973781601193049 10.393995140805433 0.713051753028901 -0.5115099181942353 1.0885531422045898
Ni 7.45548678360427 3.984660508418227 6.386024333745651 0.45410618346378573 0.6113779927364825 -2.6284652441451315
P 6.81979002540957 8.600229064066918 9.352639096245214 -0.7590896691245701 0.42340875437992886 -0.653559768310855
Ni 4.655227957263711 1.0247009448050612 1.0830178299490874 0.5241317207233038 -0.4359611371236427 -0.2909347208772022
P 4.3064655830613185 4.703420139226204 12.674210125507095 0.20114382806529876 -0.8336251784392997 0.3970819435599419
Ni 8.306481398258695 -0.07386632885415768 1.582519210905297 0.4893932888008539 1.2341896812312034 2.071721908034393
P 0.49709962978148187 8.505240637121851 3.46499384710238 -1.2887328065844061 -0.02882926552686648 -2.0098799350269316
P 9.181983489295733 2.0877023327082647 0.37757876599124524 0.4715886565192653 -0.12516721542866832 2.2708376499260696
P 7.392734331818079 5.206225545855423 3.2625386108579453 1.6941515521448178 0.34086220183526456 -0.5943866003848085
Ni 6.908353444400687 9.103718572262455 5.625465172773962 0.563403778850049 -0.8507554103616831 0.06011856255845131
Ni 0.5696458275049577 0.25465033683147564 12.782373054373272 -1.1941740600702142 -0.9888843281573421 0.2882299203515294
Ni 5.09726850449537 3.3127433456716266 0.9935299493818618 -0.4008876904592773 -1.293082856022986 0.403774267978453
Ni 1.1657552920875744 7.879204502397475 1.3122916965164066 -0.047260475648860545 0.18123243385335241 0.5859682944141265
Ni 5.357273322775661 5.184343540348954 3.326131398216818 3.130213969187545 -0.39885729029280986 1.3202488749148167
Ni 9.224628901801582 4.540261915658956 13.291725497884485 1.191840012620399 1.9115889751638173 1.4612075488497869
Ni 2.905721402942927 3.3454600408500776 2.039482416898487 0.12312293130512988 0.11511111674424693 0.30999225172928546
Ni 1.3555564982782473 0.2510680482240583 9.544283678818648 -0.6539786010158285 -1.0339313410946516 -1.3071339347994133
Ni 8.906373759610744 7.622647925796065 10.220777850828556 0.3947784922377459 1.287316900073486 -0.9127809601348603
Ni 0.615697880918763 6.010608807842497 3.0871294224841175 -0.585301864474721 -0.0358054397343835 -0.6093108257948087
Ni 7.706404144591423 5.9088255883130385 11.873195601503358 -0.4773661824329907 0.32921047652894914 -0.5384599644205179
Ni 4.682869358389331 7.925815855064825 10.403953440903265 0.3890145931707752 0.6898328917102765 -1.545099816789068
Ni 6.567828022841415 4.237694886414666 12.95456141861594 -1.4830228449526655 -0.2594135103404694 -3.3197533802446957
Ni 8.228188747378132 0.7766207563949831 10.917460414737507 0.7657475407607199 -0.5975670549953193 -0.26100373764572465
Ni 0.5650614225490397 6.51268388982659 12.024317335349684 2.2939228138803074 0.22559424779817921 0.6320846291562147
Ni 5.936956954073996 7.8398686623340925 0.8828737476449219 -0.4061288842535587 1.3540038598780746 0.9389344786017765
Ni 5.090695582689244 5.5040500872142815 1.0713825565521957 -0.45696293618629036 2.291772343196208 -0.8069522971338039
Ni 0.8194371942924112 0.21171741677545783 5.359389415323372 -0.3557504318010067 -3.0828123399751295 3.3927518840896083
Ni 3.032372638869682 1.2079477184211302 4.606718684980611 2.5437684780266836 -2.637154801499329 0.8654775470632061
Ni 3.103759561776719 3.9657275353395414 7.131199529629329 0.14389821617926832 0.26420604663310626 -0.8103674934629399
Ni -0.029873975831920422 5.434650756695875 9.496697019188503 1.5686840318669113 -1.8107037722109653 1.790392828567755
Ni 3.4212936239381926 6.5712762645202965 7.0672406554863185 0.7217469668100538 -2.0603272930442063 0.825825736999539
Ni 4.893877713135914 2.2765420988597853 12.195517450167493 -0.40863853804928973 0.8819696311809584 1.0045451746230507
Ni 7.010626628565483 2.122794894137313 2.1206510677423194 0.0011045459180884204 -1.109635931016818 -0.3105098147956523
Ni 4.861161017957462 7.472034645816598 5.122945424771761 0.08057657330248703 0.6545691834119759 -0.8148622960095
P 2.250472282413548 8.286596229756618 11.361325849120403 -0.9650473736387443 2.199270736321361 -4.602571106896248
Ni 4.912838420061883 -0.0224061752201224 12.338155400129878 -0.10486629908778713 -0.19292426836898388 0.6575974287153384
P 3.6333651094973 7.529138637372771 1.5090217422200063 0.163522418168099 -0.43232996812895863 0.8223766021086739
Ni 1.1434295450245735 6.827934531895079 5.224478115214095 -1.5341098934364676 0.5867745923655056 1.654258829714938
P 0.9511970048887378 3.8356188131181432 11.336740717965395 1.4767251848694116 2.8603111292799768 -0.7919835916391135
P 0.6941874421150354 1.2885515232419609 7.514557104932824 1.480591095582721 0.3009741073910752 1.4619922495346114
P 8.866723602611485 3.304090385319258 4.740020497485886 -0.6050533360700354 -0.3340778319235795 0.09718949926881972
Ni 0.43996697991644973 3.708431389477245 2.2454154775922386 0.1605221978891945 -0.5848974299474508 0.028279049450351295
Ni 4.682508818374648 0.3038603509892648 6.166398148186591 0.984335275334079 1.0012238235593014 -0.88290859805546
Ni 8.53459229216327 2.8972903133688246 12.060537739901584 -2.818423745017572 -1.9741999651268194 -1.6205503817188993
Ni 5.920797365723634 1.014578090546682 3.9325384402956987 1.441465333225853 -1.4007778828088198 0.5095021437355871
Ni 0.9165583540935582 7.670988021610738 7.622786595032482 1.2627479524848706 -1.742628930919915 -0.1787685456938921
Ni 2.073705984445994 5.6070258621769185 0.7750916969481009 0.11469665491464763 -0.783936810075237 0.5476524295530633
Ni 7.866493155725994 6.490043825827713 1.5876610661916082 0.4036865933606531 -0.2967037621504955 -0.19207169056070147
Ni 3.893665755481946 8.820029048402285 8.156738036622345 0.24667395128661387 -0.011222093968064544 1.8861275976679195
Ni 8.184526427138566 6.011644204807738 7.6581010272397965 -0.322048154452555 0.5485674851681649 -1.8551026100413148
Ni 8.403975116075012 8.893422052929475 7.897712223151151 -1.240715398164863 1.3591275542578851 0.6567944731980689
Ni 2.3672687579389953 7.0018997112870265 9.307839688267036 -0.5905109194794863 1.1931168224502937 1.0277295831593138
Ni 7.297209717158871 1.12305441188716 13.26497620217981 -1.1566781200072853 -0.24398946247591527 -0.15472076071606902
Ni 7.138877183018905 7.962674138104239 3.325982559903065 -0.036207560268808614 0.04914175183197343 0.8423178211172913
Ni 7.5013215885476905 4.1447217857055145 1.2805170276840088 0.41782688941677715 0.0787847715093869 2.8557271094537207
Ni 5.489767155863417 6.774500652796053 12.464190944646946 -0.261810035597104 -1.1419706385937816 -0.007153580325645745
Ni 9.0647802506768 2.5054387851040523 9.600001902472233 -1.342873811403184 1.2988323569122535 -1.1850253036914107
Ni 3.476040238475291 5.04525829622355 9.205144025161959 -0.48927218984195736 -1.0823061328536134 -1.9749784951640568
Ni 3.2369467410465558 3.409173932675421 4.6216838689746425 1.2938346465873458 1.1162796615855808 -0.21603565757546667
Ni 1.7937143068902541 1.4249743180281744 1.6750541168273738 -1.7480922680273312 -0.863449460889584 0.5829328500219122
Ni 6.8822743833386895 8.22910396433848 11.375357326922565 -0.2426100656298854 -0.004168786665708949 1.4920147640386305
Ni 2.705825076341158 7.453462212752594 13.009927422409032 1.497418194442389 -0.8337082250714093 3.078360989071995
Ni 2.4773536424219005 7.663278012065999 3.641363551053784 1.6275478960826553 1.0609996580663534 -1.7961371872507002
Ni 6.114638469001897 1.6998629676838002 10.347585320761674 0.5411711927040939 -0.5043666222812346 -0.25831616351123254
Ni 1.3008561068199544 4.537294393999651 5.184292694962268 -0.2572391283969699 -0.18097300954437864 0.15963850973266056
Ni 2.674116044280664 0.8707069088417684 13.248577178281234 2.1567557457772852 -1.1502953564093932 -1.706294615265255
P 7.354480111798742 4.190630547575023 10.481726544378054 1.66413623672965 -1.121994709692487 -0.26905334742307857
Ni 5.161943836359865 5.253447043163005 5.680426262396718 0.08766150517372644 -0.9662570776761293 -0.2308498397701637
P 1.5368156795056844 5.390369047200317 7.803323771768978 -0.14528121256972398 0.5072585991170488 0.44477102210578884
Ni 4.448009894979169 8.976420213232425 3.1412788348430496 -1.3684074368979142 -2.1468248598168187 -1.458764743736249
P 3.1928591684819794 6.037889668953435 4.888665598769818 0.20839562453170557 -0.7006703486454127 1.725083465836984
P 8.514411295956839 7.752553266470719 6.0428928550033305 -0.48636890015223344 -0.8226326839835381 0.21800229438353425
P 4.2842877498504945 2.032789315087467 3.0515986662679944 0.12201555717356405 0.7734407956399196 -0.6796320399178747
Ni 8.259426304034813 1.697699727595708 6.364782055649847 -1.1171342962763922 0.7892919037395633 0.7628362806511959
