# total energy = -340872.2167493531 ev
CRYSTAL
PRIMVEC
9.24820890889086 0.00000000000000 0.00000000000000
0.00000000000000 9.24820890889086 0.00000000000000
0.00000000000000 0.00000000000000 13.53568856144742
PRIMCOORD
 96 1
Ni 5.534479622331359 6.764565388287147 2.2037316473190565 -0.006766115079239961 0.03637828151871799 0.9421573564144483
Ni 5.438908631824118 5.615567917741412 7.074143631429742 -0.32026329463799036 0.30849869790289447 0.7677321752909164
Ni 6.993772997028336 3.1393137505973923 8.254942917831606 0.2973609361185201 1.529028108038186 1.053865361014417
Ni 4.15722710855849 3.4246579872057152 11.616801867497127 0.3876074284106034 0.911242926223779 -1.5346817067795375
Ni 8.539925549472944 8.807180289523094 4.5537708838507704 -0.17134705641884038 -0.2832471224249573 1.54979439405126
Ni 9.297594309710627 2.819649410856461 7.499367027262182 0.6873659182270226 2.4537582701151224 -0.32482494586674376
Ni 8.362119485655233 0.8938449366285217 7.4473495516276715 -0.40684982157998323 -2.558640510042509 -0.12830113307195967
Ni 1.2922152331734806 2.2568681562273594 4.15855607617373 0.5526578531874545 -1.1330741074351003 0.5747071196780102
Ni 0.5658673819304625 0.3946719378161178 10.674596197023002 0.25903427262417966 -0.34719945690720205 -0.3146487766646903
Ni 2.126366680801805 6.863169791305165 2.458094384198402 -0.11902793530014985 -0.12369988685452245 0.0025178813258472767
Ni -0.14003360431231762 3.41805476606945 2.3615042410732103 0.975399920517662 -0.21834116578019175 0.4540362494577987
Ni 3.536755526971369 1.7138503239626837 12.948631803383764 0.8582846288591929 -2.164044051908583 0.49097066059030287
Ni 3.3753095446523345 7.482587077080613 7.888003583966918 0.9459615606518871 1.1789965809988276 -1.5179114292997342
Ni 6.367031129824426 6.372654040820014 13.403701943716303 -0.8945798637458012 0.322509924580322 1.449927347950277
Ni 7.199536396273121 3.450007327730231 3.7709211004900833 -0.6959570023301433 1.1275521491756064 -0.3228590803896246
Ni 2.2105808708113788 7.123756572756928 5.0593020262642705 -0.0917197344035001 -0.6165903901753574 0.7212885391163965
Ni 3.5972665576360567 5.71444976702566 9.221729402672791 0.1943586868226653 -1.8479459443918755 0.8244897917969349
Ni 5.754771957717703 8.69752427690026 12.591398464732677 -0.19796491611668487 -0.6557297793789805 0.9059397688433107
Ni 2.250070722704733 3.2841869426136423 6.413358182538565 0.3957722236095829 0.6008621808068232 -0.5719025603496796
Ni 1.483745638960684 9.101328820979772 3.700291604496001 2.0098064014765193 -1.506727901879089 0.5901813040542094
Ni 4.894475823601671 2.413884246495594 4.521149676688375 0.8924067673538824 -2.8789048331217644 2.1666010140024814
Ni 4.640483015077298 7.342550698305632 10.683556786601333 -0.12854153121753992 0.4220902926788214 -0.6710635815225733
Ni 1.7605075377336368 6.085598885569941 13.283207030292765 0.5614973058559556 -1.3372685494012646 1.4206149721394048
Ni 6.361361977784466 5.977653791588857 9.539831719934849 -0.4353404728205083 1.7589284394108866 -3.0942565772563295
P 4.0388870278026685 5.819953333863923 3.7742911478038863 -0.6057321073046149 0.9022160401348205 -0.5120948441634277
P 4.6938451802821355 0.4896011026274808 11.074575681912094 0.32852759152931166 0.867910581984731 -0.4300843666278915
P 6.181151379659433 8.291056248664946 4.068110443024638 -1.2462147307165377 0.1389987219951219 0.8368506273551328
P 3.0657904900465343 5.298224878427935 7.019039103672983 -0.39719147255461273 0.25382238940593704 0.30439830258127576
P 0.03413421413423414 3.6839407712062 5.071308051024915 1.095759430145042 2.2500153138640795 0.0030112760224980397
P 7.256866043085042 6.911917100281714 11.63120317835622 0.7694129054274491 1.2496715789168866 -2.081667706393196
P 2.3635739902192836 4.8172532795010845 11.115723737656612 -0.2920775762323938 -0.5217873888608433 0.08387324177588781
P 1.3334345001263328 4.832216881459737 1.6187731878093314 0.6800776120957256 0.17595935837987114 -0.4118845557904132
Ni 8.994068094455388 1.8119553237014887 13.10460377087009 0.04957678248686301 0.6239931103973319 -0.47779015734428676
Ni 3.803547856577803 1.3727671324688233 2.608191889407756 -0.34062128946905207 1.0539250106077591 0.44424163196488003
Ni 7.500167922150698 4.538151583882928 6.1398424050805 0.1338238626624018 -1.7701361352012484 0.6326268748129298
Ni 1.6803440632110158 2.2412571796475045 1.153593830356272 -0.1863594706672726 -0.7201850216395725 0.8513223386087467
Ni 4.75049970784623 7.4555545625409705 5.616430775629386 0.20470686282620873 -0.0570923741376178 -0.37745697024016284
Ni 4.913388410749659 3.8166710649704654 2.8640842800349144 0.6940610708590111 1.7337401130707173 -0.985873052134844
Ni 6.332563055349828 2.207797159940208 10.374455751036653 -1.788141313529417 -0.26194347585117467 1.1994746463475214
Ni 4.310867602587597 4.328568674373049 5.345405540821175 -0.5167174305371037 1.4504914479838633 0.7425968136758694
Ni 3.074807493698998 8.589144517102085 12.005938752301963 -0.11777915049471328 -0.9529400488522493 0.4023308506637071
Ni 0.5171986827293443 4.294017366018583 12.259827980886943 -1.4851987695580615 0.29475512306455687 -0.578139542398327
Ni 6.464155819422553 0.10917325611959339 6.275361958641262 -0.30842182191837203 -0.45051615211968216 -2.733618221235402
Ni 8.460039521216553 5.210440879792873 10.271462148086881 0.8310196224956526 0.0077379920742060284 0.7362701001268933
Ni 6.685308238234208 0.9869226100232456 3.3962798582748595 0.1760506325420968 0.5254239571721662 -0.7056084093769784
Ni 1.4417587706712636 4.459578801286691 9.052803469016206 -0.06387391583582548 -0.9144123250906963 0.44020705688419026
Ni 8.588006987410543 5.957992099522049 0.7886632074590856 0.9642076513462685 0.15640817572082094 0.5898514315186164
Ni 8.205186629266867 8.933261121106723 12.31093913205177 -0.6114499836249986 -0.7423160492106571 -1.1155422691989239
Ni 0.7285692710146303 7.950962615520638 0.07524250258059431 -0.41684164268537244 1.5042205620762028 -0.15244404886675036
Ni 6.094421676836044 4.990111551571031 11.446631124926057 0.22285910825520328 -1.593132908937895 1.9614436939024156
Ni 2.660191793445405 9.228981848072033 1.12996465668238 0.10874095155184497 -1.411039669746144 -0.4342603523824521
Ni 3.7708276935804528 8.450587851746995 3.5972850540538053 1.0591397220394791 -0.5689758736211878 -0.3149112862974576
Ni 3.8610162265228385 5.4782875052109805 1.3573725639766272 -1.578145434390127 -0.6018217165066151 -0.1468261884593407
Ni 3.5132835728483407 0.9069061820217262 7.112625428555795 0.972850414622931 -0.9285953014592976 -2.683144380855566
Ni 0.19226101428827483 5.47345069196971 3.5841553719149304 0.3515919295479429 -0.11593721218996808 0.45511457012364204
Ni 8.938255153898856 2.7567893351376958 10.05650232993747 1.4926182019505843 1.4356497549853404 0.2910771599923374
P 3.1694629115276807 1.016433644541206 4.7873834144788 -0.3852060180579624 -0.09751063005366432 0.25301352035139646
P 7.9941979920080914 1.0621845338424758 9.523439269705115 -0.4826780815642074 -2.847796541752734 -0.39044232675623725
P 2.397274463357312 7.720192059479687 10.049260982388876 0.44069813758799586 0.20953719433531653 -0.42550806011111875
P 6.989278367515416 5.03547401609958 2.182521805086687 -0.2613984019809821 0.38357362466086203 0.6707681617693415
P 5.139969528170543 4.085340780978387 9.658674903253434 -0.028329700182628627 -0.3228210280628376 -0.9288225869787553
P 7.787602253964618 1.7103729974259385 1.388572321435039 -0.9095665669626206 -0.7981958910974124 0.5961413782923862
P 7.639529181677853 3.252502579010216 11.67459947367809 0.5357132549133161 1.3711384626758323 2.383135465591238
P 1.4860114501348929 0.5002069485645531 12.74781712070763 -0.6165777917698672 1.716041924460006 0.78806548753163
Ni 6.482911187019678 8.736903150287123 10.060400449977998 -0.37369878874931123 0.19341792017595075 1.172318911868336
Ni 7.5991330053148145 8.440072638256892 1.0085874641322317 0.16172753105120535 0.4812560044057002 0.2586614626657932
Ni 1.5248909202425416 9.110438306720978 8.446053454935916 0.0011163729926303356 0.586669434246209 0.01926836131130875
Ni 7.551384502896692 6.922811490335666 6.201835923627741 0.6956201878160149 1.3065927175839627 0.7073390189148399
Ni 2.5583690137391226 3.8872348986815406 13.410971035891519 1.0476196372150215 0.5453147825588223 0.13231462510672695
Ni 3.8167542988503347 1.3490362284973136 9.229647719110986 -0.7647756637657539 0.4654090100711146 2.7591467045238094
Ni 0.6096502523832766 5.259040217427435 6.787944860321431 1.102367936600495 0.25647628208901635 -1.8553165258243336
Ni 7.619303348869711 7.077534024803069 3.2374659162014563 2.1594482050077843 -0.48050909893734667 -1.5701277062919732
Ni 6.387321700094688 1.8730489915252582 13.286645514352237 -0.5235557936151757 -1.193599675623983 -1.0251641364249828
Ni 8.407787141076634 7.640407761520914 9.661612134391918 0.7319964124522038 -0.03462041828734682 0.43375384505967884
Ni 5.942917519056905 0.9503551921341773 8.377332789253494 -0.42726078113616733 -0.09998557395671812 -1.1444059875081516
Ni 2.4804343575552132 3.9609338752010106 3.5030226851022808 0.6849130858111558 1.809133856620684 -1.0189636640412258
Ni 1.7415857023767747 2.3760590721996184 11.601601511391292 0.06449895101433409 0.07668803688135825 -0.9693804537964594
Ni 7.670871361552929 3.74073402190341 0.5936425276427131 1.039672871564119 0.3241837127383191 -1.610088048734995
Ni 1.084639184989329 6.81469068038597 8.565099174028846 -0.47080138473127947 -0.8364369368564821 -0.19647187651092615
Ni 0.8380615903403877 7.176073690358967 11.52760104326252 -0.7751382379470005 -0.32792981004431265 -2.5280664939103947
Ni 1.3088250163117627 0.9361037022588475 6.226416737994801 -0.8602566649838991 -0.5918152401132065 -1.0157220171754766
Ni 8.204298801214932 1.91454570474434 5.0790645238078085 -0.045616769397850476 -1.6251531705982334 1.5165328037846528
Ni 4.538900688801748 3.0347535010643107 7.590692165075222 0.49561715822337865 1.0674659825169872 -0.03960887264087372
Ni 9.254775102622517 1.0420881759585747 2.7591143348487006 -2.390823578264115 0.10530158685299283 -1.760085950054098
Ni 3.872733707166604 5.962819664554446 12.368478713205137 0.6612309117028677 -0.5794022111608343 0.20038586685335166
Ni 5.384797361700461 9.063392668177304 1.6231050488460637 -0.416534910078231 0.515116661708887 -0.6088272012901709
Ni 6.345843483293354 5.690034495597451 4.588801249424926 -1.8897451398158485 -0.06412485550436699 -1.189066306530004
Ni 5.5356633930672725 4.115684154295036 0.13152340250616676 -0.8786382528148802 1.0823899508166714 -0.49007977334491726
P 6.453418648919466 2.3248609878713733 6.4331604473802635 -1.0598876559490973 -0.17205179579534885 -1.4496098167098583
P 4.22833658659315 2.868960860574344 1.0935405860308638 -1.0978376528303093 -0.7414215624208458 0.08658395583883152
P 5.723494515304747 7.868172649677709 7.5951183578424715 -0.11312673932436645 -0.6477663015575296 1.419895320364561
P 0.22936667793382856 7.9035747932486125 2.012932774853812 -0.5166958332705488 0.28678161794077706 3.5519666760212893
P 1.9291023855125222 2.015841336544786 8.181565778980962 0.3308948062099075 0.4427982146501342 0.8234428385896593
P 0.5882619197196327 8.07596140666597 6.405493505711842 -0.2101102932299672 -0.5364249362683601 0.11815144623246747
P 4.174854194672947 7.487081706593533 0.48225894960215676 -0.024364801997609653 0.48540087981200924 0.05980848751720023
P 8.264948555012735 5.062811721532075 8.120249229323322 -0.3599248748936705 0.2943388614627447 0.9973440288889212
