# total energy = -340897.15307785064 ev
CRYSTAL
PRIMVEC
9.03658301664358 0.00000000000000 0.00000000000000
0.00000000000000 9.03658301664358 0.00000000000000
0.00000000000000 0.00000000000000 13.22595267667354
PRIMCOORD
 96 1
Ni 6.395307244185786 1.9151230290531525 11.308374508013483 0.18695879481416833 0.423599016013864 0.1623888187842881
Ni 4.44167933509302 0.4003576756073881 5.994332369961475 0.022530319892032163 -0.31395406459051095 0.0049915396773204355
Ni 2.6809463261001376 1.7687574946711682 4.862521136979168 0.5136279929785025 -1.1048536791368262 -0.3909840581923202
Ni 3.257760453724786 4.515273266809194 4.869809141145314 0.775497163948316 -1.666567214768646 0.11621874798612888
Ni 5.085535871779837 4.429398618835372 2.561549569936934 0.5652976534386522 0.28243696781883615 -0.1609232899823551
Ni 7.417986375601698 6.015824978899804 2.7390949302022047 -0.7239432031304243 -0.5534631226975694 -0.9734047444645042
Ni 4.964165525895757 4.493549321346806 11.494834457379687 0.7174162006451839 -0.22854613133765153 -0.2570280408274283
Ni 5.612558427234037 7.902988820240549 12.500985678541563 -0.1361010887323527 -0.674482120285819 0.32122822965442094
Ni 1.8527706065529552 6.574457501586714 0.41861880247527194 0.3356575177058736 -0.19036859182666568 0.5352635689704072
Ni 2.89877315861713 1.579549520423469 0.48580760418157115 0.12791829581124423 -0.205433199469272 -0.3189826281533539
Ni 0.5209770814465736 -0.1820374456601766 4.495633157379929 0.19386657767759516 0.8178674013844108 0.5784781566846682
Ni 8.582693481573493 2.308648144276135 1.2660334071678045 0.2503560281238914 0.6308916372893779 0.5130695493718712
Ni 6.793820553208784 0.8098522402567979 4.835156556426255 -0.30177500602581575 -0.01655276215235859 -0.8636582344662804
Ni 0.8849507630376511 7.292188104061808 2.6300866298225127 0.14441809323848032 0.03656160117411768 -0.3497075680410364
Ni 7.501656097330586 3.820260633923302 3.851727823145068 0.5114880638173642 -0.6352967083356091 0.1863036777286727
Ni 7.6109897146972365 3.8368608368411086 12.456572680555482 0.38311853940131435 -0.4788934177107945 0.3052156562762485
Ni 8.064156277529102 8.984459960466069 6.671196833266622 0.10546845144816029 -0.17922363095343974 1.059742902841117
Ni 7.057137544402007 0.5220687006694755 0.3425099897182561 -0.9845851865613559 0.11383404980403622 0.1781190850353513
Ni 1.601372868298538 6.531434330061578 9.334890515158444 0.49509805249511507 0.844526655843152 -0.38800980605534463
Ni 0.1059982145920378 4.912512417633275 1.3807763231009207 0.23173892724333642 -0.7805936046346169 -0.05975295168891644
Ni 6.192942005132248 1.9888163631820084 6.9121076169831435 0.7354306349447334 0.5661121789201476 0.5008197854702406
Ni 3.5295808694937607 4.2922865454157355 0.30080435199029826 -0.672408782696558 0.012785838910758624 0.27918889319518375
Ni 5.820932993963319 5.50974018618951 4.804181860976411 1.0526695409341034 0.2797411661542279 -0.14835188107524774
Ni 5.119847777320887 2.9957266573134507 9.271868481860093 -0.05629816037109659 -0.2569581068214413 -0.2800175597440661
P 0.19053092999465995 5.651759124162422 12.335369511456365 -0.6793718442779526 -0.5990652368074005 0.5924209920180056
P 4.089550806460385 6.178944338110102 12.498327115831483 -0.8710730388731128 0.2531788422846672 0.13267843620404893
P 2.5315354632569114 8.54878822226614 1.3947559169571242 -0.7519772264495049 -0.28475327465683864 -0.23211662229772928
P 6.285801931742686 7.815632172659477 5.8885248272701265 0.0701090981122599 0.10011875710047273 -0.2292711824291342
P 4.850196141464962 0.9508744431280043 12.691412687832056 0.10847972747065834 0.25574454612931435 0.19732985363584724
P 3.9759519219314026 6.299799598764832 8.053732579072005 -0.1383554319841682 -0.42794135214295975 0.7540914445790303
P 4.752745630705234 0.9145112332525271 3.8105688986868587 -0.28683432555558347 1.3365818077468852 -0.17665149935088933
P 0.32593328191617477 5.432594877365715 3.685398669663456 -0.23591517010821306 0.4332357677726797 -0.43890993533932154
Ni 1.6917115882600553 1.1829338938243896 2.6154853190579015 -1.354078421869752 0.16801593516307836 0.12546263518190004
Ni 1.8999686794107131 6.362784582073003 4.886301808725765 -0.7303537346424583 1.237100170009779 -0.9811015988881296
Ni 5.796091427375921 5.646228735384144 9.208728069324819 1.014125105002002 -0.040301270722208016 -0.19110778398553538
Ni 8.690879452902822 2.3015634632268367 10.197248917110189 -0.1453164366830336 0.5238134181519366 -0.37715872227345365
Ni 2.379052162203531 5.26672839693222 7.000113091221538 -0.6083168373126555 -0.24944560049448009 1.0802425654563652
Ni 0.6828701763477011 -0.02433732525761313 8.886980532640832 -0.3854322751361556 -0.03025468511948338 0.050241155543739285
Ni 1.498075688356545 1.0990563306871681 11.456531996798626 -0.1502195304116058 0.22272952465587445 0.37646606708180325
Ni 4.1130188124361835 6.683718826289596 1.4772201585176747 0.14273530621941868 1.1062950395690432 0.3462311794566618
Ni 5.568107475599477 7.896473443918428 8.022426241027123 0.10852086512123892 -0.1779563342052419 -0.022677901213489976
Ni 5.116974143936094 2.9371605630781206 4.690808891021705 0.48761819917830207 -0.3651876659545066 0.645557723941985
Ni 0.7671977613168806 7.288085495392955 6.8878516209722696 -0.2446497217677335 0.6086752490933388 0.030197863739618958
Ni 4.898993689508594 4.692055939471709 6.97065925268572 0.5402409675803406 -0.23088866342789913 -0.09951814740199635
Ni 8.09385048917195 7.270418975684565 8.955517592526412 -0.9199828771999382 0.02297949161430881 0.29856164129484064
Ni 4.684365807363351 0.324661834692149 10.462257556635592 -0.30246149056987914 -0.6423204479516099 -0.25048689727480083
Ni 8.021982544803246 7.035449745271505 4.705529484681533 0.1609798542519034 0.5508285132881997 1.0895121636837495
Ni 7.080506147965124 6.010493394946889 6.893498581670874 0.5270620069962213 0.25774692127132387 0.7343376589908708
Ni 2.5069288478267615 5.172106336642428 2.555901705580032 -1.285880938957908 0.06018721101285763 0.20790505804853227
Ni 2.111587379426599 5.3365811832983825 11.421919173044639 0.9743195429692897 0.15323543441979418 1.3124651172043398
Ni 0.9623960864160842 3.3123414148698855 3.9779833457832936 0.5754447691749831 0.5725656478549751 -1.0564855722460837
Ni 3.538481903720238 2.721665168967657 2.752400394968769 0.39653147037311065 -0.3565467024500569 -0.031174625830591475
Ni 1.1736533231131285 3.3886915043922285 8.374726464736208 0.045767950263734085 0.1643405431940202 -0.3694878359917572
Ni 3.702866384546482 2.738030420728216 7.122638312409316 -0.4414406721809752 -0.5546491725858704 0.1599922935276535
Ni 4.077685773019406 6.932188711661395 5.824471719854779 0.35715322568580427 0.5273525416534466 0.2726945437200916
Ni 0.990048030307476 7.616203823071527 11.71404117611636 -1.3816501608404335 -0.03238407275766036 -0.988080344198808
P 0.11216387515318048 5.605347234023146 8.052356307485514 -0.13696677916675767 -1.0080614153064251 0.13430954404956869
P 8.511322549268197 1.6730781541737645 8.087908032210192 0.1744300662195383 -0.292410019871148 -1.0232964870886248
P 1.89093209643967 3.290499993828875 10.549416303049599 -0.07953219119837271 -0.5103117841210759 -0.4540239081626245
P 4.1518851557946395 6.065752099814817 3.6715112489535566 -0.8923144647503923 1.1093268844168314 -0.3147282237523741
P 6.80071546601569 3.9732138372911767 10.255509574841097 0.7997395814354484 -0.3391405911584675 0.6686796546714291
P 6.330289029709131 7.71386217523959 10.396683592306218 0.0530966227146634 0.19209251649630787 -1.2495574219365255
P 2.2554317071596626 8.452160040556778 5.678153175704245 0.8681399243867177 0.6922682406246465 0.7518944369277115
P 7.0156596285649195 3.9498723434769722 1.5982245227914265 0.30547945146059646 0.17151469234495623 -0.43527131014546977
Ni 5.449583653351276 2.898303256302636 0.4179853380090018 -0.18025515754174762 -0.3871423158487268 -0.6839214113218479
Ni 1.7089985714836606 1.1995250601592247 7.05703723833103 -0.7182942323747629 -0.17933444549969113 -0.6280197150582216
Ni 6.805712696398677 0.6414672641492731 9.045745162517385 0.2112832304921458 0.3753836326509019 0.3931214162502971
Ni 2.7021551863331754 1.5253390591801816 9.307222305417703 0.5805319538899034 0.3426979694924227 -0.38722022027451375
Ni 6.321586800308017 1.9799605118703862 2.4816779240307754 0.6698286806742076 -0.3629389791296459 0.8593133272340233
Ni 4.085104807638632 6.883815883017402 10.312063222048776 -0.28293087673611916 1.3026062221323889 0.45146823162030636
Ni 8.226417161357151 7.078825343532511 0.44814312635826375 -0.091353609313333 0.4239245176740828 -0.2263370395014747
Ni 7.691930388368869 3.8259807909439725 8.11662177460068 -0.2333427813953465 -0.10008379009747925 0.1617211032933021
Ni 3.0794596351231354 8.331548767642266 12.26053756787316 1.6139632154196848 0.204385474931048 1.055572059292879
Ni 0.07787456106955765 4.726358808429788 10.23301209787639 -0.8802379932018324 0.16877003972028354 -0.15370646051894174
Ni 8.727658345594966 2.2533532930763225 5.832169081229513 -0.4441680984144673 0.5632484842191074 0.49585627081737826
Ni 3.7084419562396156 2.457724653549432 11.491143916894314 -0.009721598163138096 0.34071873427886484 0.004521542019437374
Ni 1.0441048696402555 3.3595485243106147 12.686717279320302 0.13915710194985711 -0.0950994495090104 -0.4020997084895075
Ni 3.1323688284185924 8.32481651332884 7.880075660459173 -0.6421049895066941 0.06756781974764492 0.4948666532105993
Ni 5.625110240980816 7.8568299544244615 3.686959287542555 0.09287775926734326 -0.42475061311980394 0.4710536099514016
Ni 3.1403752409309367 8.274509855929043 3.570848232947623 0.08704983973165653 -0.07668340889566794 0.14698713951723716
Ni 3.3834322131030814 4.749971399733124 9.613998031435267 0.14184673296687828 -1.4943683518724715 -1.8392687283328517
Ni 7.163859589290025 5.939800206364419 11.385362580293581 0.22326739943721552 0.709424697799275 -0.13400975342096275
Ni 0.42409949004720954 0.16096955612148683 0.5752941743689192 1.3676160513448705 -0.45160372875690613 -0.27468432045661084
Ni 4.829077647061634 0.12944182179381478 1.7155121404891884 -0.5815241425998435 0.22807793345198138 -1.0301605611983098
Ni 6.011659114150154 5.568143621931361 0.43150948808346484 0.48932695433929274 0.2991648220964784 -0.07796690359378186
Ni 8.182038502386359 8.897374410374127 10.953442831343231 -0.5312364500888851 -1.0714033698981806 -0.3179022506049815
Ni 0.07169986392544393 4.929790364273909 5.867099089045784 -0.28103314549277403 -0.878101920695436 0.26516069723689173
Ni 7.959847000294353 8.748532852258077 2.6457596793274902 -0.10151923699242515 0.5721437298262082 -0.16893587587418646
P 8.550080453630999 1.6759427509755849 3.636435752151453 -0.49990987206146165 -0.6910940178108872 -0.5852118758640761
P 1.8081841061738289 3.3756155688331293 1.5745233729749748 -0.17509263950420167 -1.3486729345834645 -0.5917247372819293
P 4.710074885915969 1.0192994493847423 8.309191357713608 -0.27528621570666784 0.34429719565874256 -0.8915590746416064
P 8.481592191293464 1.4753396456014005 12.19878517448224 0.12384618262439961 1.363882038223735 2.3599716258802648
P 6.391945635320558 7.562327715398169 1.6066619803114892 -0.25214577303446256 0.10935364543517939 -1.3701601579229628
P 1.7816436619878755 3.2892258356299577 6.10511274426179 -0.09204806427719632 -0.13148235901341873 0.4513324773733905
P 6.83961795570603 3.9575715121683013 6.001144146205047 -0.08931086785169134 -0.49620388396478415 0.00666429939405304
P 2.3605813866107193 8.548453868696212 10.14425297261821 0.4596255706201181 -0.5281647531420969 0.5549049973504185
