# total energy = -340857.0088454239 ev
CRYSTAL
PRIMVEC
9.41285780849082 0.00000000000000 0.00000000000000

0.00000000000000 9.41285780849082 0.00000000000000

0.00000000000000 0.00000000000000 13.77666886897623

PRIMCOORD
 96 1
Ni 2.550903235343948 2.22189562364744 7.1040078805203795 0.2763624794899821 -1.0117339790620061 -0.7463187426121469
Ni 0.363188521499773 7.711427111741305 9.809098429782864 1.7191028227735166 1.4234820092745548 0.8032144273579265
Ni 1.3918510147548857 3.8994456922807457 1.7869858336636586 2.0164331627644176 1.6694136830785058 0.7100785293331899
Ni 2.6472250071658334 0.7548989428136273 4.766231508243794 -0.7421849229494315 0.2895902910341658 0.6486355915363603
Ni 2.179942517323767 0.09502279747307087 10.276664246638695 -0.5627666594866825 -0.37912381641962445 -0.823602504095975
Ni 2.5889405929059763 2.1984293696503756 10.812645536389374 -0.1130388075962505 1.9119525291508235 -0.5109674154272039
Ni 4.072792877844299 2.3540050800649284 3.6060158584553585 2.3743515487510205 -1.989393385037806 -1.4789088227842917
Ni 9.250928210811455 8.383119217227275 5.728462758986158 0.11673373994933445 -1.893438786617352 0.16185428643705674
Ni 9.446555630314458 3.2577617768239135 3.6026818242934007 -1.1510553745038692 -1.9224714264042764 0.09167628276007438
Ni 3.664481940866897 4.6952463252241134 9.815517998666138 -0.47377100888256474 -1.1110286975992865 -0.15954029359189945
Ni 4.813311798102244 2.173184085566891 11.102658502905923 1.6853655784220716 -0.806196907025018 -0.6427873602856994
Ni 5.746737822016763 4.799531374575689 7.4187634845245665 -0.7602708339168649 0.704953806512115 1.039064805666475
Ni 3.1844732675494876 -0.012705475188623186 7.461291716447606 -0.21210418373154438 -0.8938586693090607 -0.0007957564284179844
Ni 8.150979323093457 6.612918391236125 1.4906634286977591 1.1593034734452745 -0.9568368128034942 -1.6366804545115428
Ni 6.283778999533216 0.7524497172660798 6.0479991533654385 -1.160188961374021 -0.3215097654505818 1.1765550614368705
Ni 3.1521871659811236 7.473865411629827 13.50714191442294 -0.5156897606035378 0.11539033854756256 -0.5608401318879309
Ni 2.5831799240547113 3.4309960080962663 4.724033667622518 -0.6662869860695364 -0.4157265552443227 0.12972372445109917
Ni 6.468459265647297 2.0853338855851007 4.126098831719459 0.7811510197999837 2.5438818636760963 2.486466816091737
Ni 0.42974966144740306 3.803839297636468 10.968956390982497 0.10013058417501465 -0.0993890780232998 -0.7212836540203901
Ni 6.508840424751752 5.165493865210213 10.781579341165983 -2.254170987903666 1.292163686642826 0.7399331508007773
Ni 0.4519800072415736 6.430186586645266 13.206562073964513 0.9333940083995216 -0.3743348796714134 0.4217506499512156
Ni 6.358291180295656 8.446364207442388 4.577050013625342 -0.6053726670826671 2.494840127757097 0.8164250125109294
Ni 8.543909650752287 1.0132658820786191 6.591116330462759 0.24611782167282772 1.4551795974881518 1.0691474839844683
Ni 3.3239341657526595 5.186032720493644 0.5144107852742772 -1.808247597360989 -1.0150681856415615 0.7773748405870031
P 8.128510832002005 2.4751109059478935 8.250598418932661 0.6116790689166691 0.09036733414066374 1.1147760804568607
P 5.128557811987397 6.1005106620591505 9.236622549830813 0.43551402228389513 0.6121778629299586 -0.5178062927259083
P 0.831094142514966 2.1185895114862756 5.435005627873731 0.05093715316949937 0.3067549757389104 -0.34179139851775325
P 2.5504325924639426 6.337639370721023 7.040594400154225 0.17570507627721998 1.2102627381019608 1.0436423977348284
P 6.100011780606345 5.045592885100062 5.16964022898306 -0.963231146365612 0.024337291193783892 -1.1292835300444164
P 8.417513798898062 0.4928129835108338 12.275149460290656 0.018544338661090645 -0.2938557511787391 -2.1191037397524664
P 8.685526093345883 7.569264723406903 3.714685416877063 0.9463325708380607 2.7254549686983194 0.6162281217399322
P 6.009253007626122 7.747676026359313 12.043481150322606 -0.22638177669648107 -1.2355508232447883 -0.11686538043119228
Ni 3.86969164940681 5.208520037300298 5.710277118102752 -0.06748554444648378 0.37201060241361095 0.3350628215446681
Ni 8.697640441077219 4.373533678167688 1.034543646683659 0.2885338247451934 -0.47534940911327805 -0.07691120863575787
Ni 1.786758042509736 1.6730413098428547 2.6769724610394485 0.24567739170129946 -0.5548301782484252 0.5552114728472437
Ni 4.843630612432186 7.2783980107060255 7.348392019820414 -1.3727479732547971 0.4228582811930976 0.5384188267699372
Ni 8.074170405076593 7.560793151566807 11.566326455429547 0.14115921998155043 0.7980313404950902 -0.13385523012096948
Ni 7.777693629246052 5.539184311934425 12.840172239594946 -0.8672030143947452 -0.6027686538009167 0.04937032290301175
Ni 6.815417196787207 6.826514955897732 6.324454781080554 0.10549570514166992 0.26229211743984504 -0.6186207903418249
Ni 6.488885166639527 0.20351539417189354 10.885923691520441 -0.6907314922651459 -0.06887805391863622 1.5114623312402808
Ni 7.3781931269823495 8.504987484575848 2.161642039577641 0.05631744364480623 3.4365015183717333 0.6876528533398221
Ni 8.243394759011299 0.4074261283629916 9.672819077448528 1.7867179508193294 -0.017160570939686575 -1.5923518077974963
Ni 4.863143466237206 1.2813628922448406 0.9894984166383513 0.47439064474443454 2.3413321564022063 0.24830094536707562
Ni 3.8815895014133437 3.5025807901450725 12.761989044368462 0.5502980947060264 -0.7396896673314035 0.8728327018766968
Ni 6.557194274243497 4.053195308320878 0.721315749467969 -2.1496474168672783 -0.3366031694485945 -1.4303838786007108
Ni 0.7969311171411412 4.538559897612748 5.325908725716982 -1.2175299611873354 2.011503586673284 1.553959581172543
Ni 6.7881481483197 6.711800460325239 3.47308465956938 -0.7069196719892341 -4.614160354395743 -0.0010783206658433043
Ni 7.101003296374426 0.9982429613488498 0.16449345170489377 -1.6783328399450066 -1.0343396322766638 -3.2106745857374577
Ni 6.056194928477851 2.44373785156674 7.683054876363065 2.8801325348812785 0.14513131725542103 -1.4691113770778954
Ni 0.7821077489924941 1.7769686706056258 12.07413412109735 0.09635054830729213 -1.8604345637771895 -1.3806446023940546
Ni 7.939867752838279 4.658602070586901 9.188913481084676 -0.3395036309248411 -1.779317287479884 -3.799268233589573
Ni 4.271281806057735 8.750211250773813 11.268722019258515 -0.03347884848373589 0.8962441388221017 0.5924096791640959
Ni 0.756189445590602 8.891178206193 1.7633445005152322 0.4180634309076155 -0.46321457352295703 0.846748088974503
Ni 2.829307324582285 6.3841671258383474 2.3865462700742555 -1.141613255254363 1.0918616377525325 0.5437888328325989
Ni 7.131209156413166 4.33376435480724 2.9550536892621024 -0.5468355900787227 -1.0336132956336006 1.3390413250309714
Ni 4.917794517463422 5.089701535814159 2.393241635685211 -0.2635910387569267 -0.5517474255580433 0.7036299454943689
P 6.003388797341255 0.5957124602236734 2.9388805173336 -2.1847126360015277 -1.9239179290428157 -0.4025463091086228
P 0.7680383507376155 6.004311257386067 1.5377926654157303 1.9494628673914554 0.11107705588418934 -0.22687311451060285
P 3.4027480224383475 3.494683402618584 2.062353335040202 0.7728250164327917 0.11019079662449409 -1.0235201730636565
P 4.408238884139279 2.9195107389641017 8.622789397441176 -3.379024250090871 0.409360760927295 1.15982643582828
P 6.608343742442473 8.795496508687922 8.151489499975384 0.8545182198382252 -0.8792468329331568 -0.8859108752168936
P 2.388437313166117 7.70836793302127 11.422276789146325 -0.02175616073016898 -1.5659859162094578 -0.44942343327613565
P 2.6555836247147275 8.438485645631099 3.378232234818871 -0.21419834725641174 0.23564803248975544 -1.91208956894932
P 3.372702180978809 0.9047666963794764 12.72801615871816 0.5328493031019598 0.6664039712633749 -0.19592166043441098
Ni 5.029939302911085 8.125357524705969 2.4252585295262117 -1.1509900684835725 0.3881008231072542 -0.10586851510005638
Ni 7.204450601399591 2.6691475525164803 10.378253453573597 -0.23653814840419263 -0.41178633964965206 -0.7051610374269146
Ni 3.2561427653166954 9.304873297717663 1.403249985308614 -2.4033731327943513 -0.79999849152379 0.20002848351393296
Ni 4.748645466389515 3.0460477836823276 5.672805473282491 0.9279586963165631 -0.17651086000796698 1.0062215338842089
Ni 8.060013467246034 7.069121947682866 8.529411026190843 -0.8431542009756575 0.026279502521819254 -0.8628442232054172
Ni 7.653782771798255 3.960732808115036 6.192282258517145 0.10502442193220624 -0.31146497962007 -0.5969278787494235
Ni 2.4249592006545284 7.7129614075301225 5.422648428416312 -0.24196060497134458 -0.11975092950910345 0.1483660221426348
Ni 0.8987725886597289 1.6450757099129394 8.940478989159315 -0.5523259237693326 -0.0008412649543727447 -0.7622467266963131
Ni 2.35941747318499 4.351789977111443 7.484202611846264 1.1323318299524372 0.7030290786855763 1.1085236717892457
Ni 0.8642434031252597 8.568797246246968 12.50276741763338 -0.32592563513009026 1.9106785475344061 0.10610891324563661
Ni 7.173331694173641 1.905021185397469 1.9561075874505247 2.7506762051589533 3.253072076867062 1.726533310909633
Ni 8.434343988287052 8.67997250736182 0.1923677469160879 0.7173632359200613 -2.182116078918945 -0.5804648480973938
Ni 4.50418414165716 6.735031392882301 4.155622259582192 -0.4464363256233538 0.2569516790635381 1.1644420802234203
Ni 9.033274704524201 5.5498020153073435 3.4233508851534595 1.386800080472489 -0.4258826698417182 0.49177335899725627
Ni 4.94428229875012 5.770618241748232 12.932806053809108 2.349063206497877 0.7424443472584052 -0.6717338681167205
Ni 3.219366730673081 7.446963464608724 9.391995883806965 0.11457735572796397 -0.9666532846732835 -0.8940728422023957
Ni 8.183265424661823 2.609582989623009 12.558355989476569 -0.6787264973844699 1.9307429223844492 1.116846075612012
Ni 5.178389480122358 0.686361102769975 8.812783221670516 -1.8517051543239915 -0.23383874719515857 1.4891680386184547
Ni 0.2137772915275292 3.80490295054528 7.464268062020759 -0.45916277205108663 -0.6029128926882649 0.883108372771092
Ni 1.071813856351279 3.924097966335423 13.248485059143864 0.2310388158525182 0.635478228218796 -0.7894549116799887
Ni 0.7296094182994224 5.493927292593114 9.247106590625812 1.7628082340812674 0.04546301742880557 -1.4847755659777138
Ni 5.356301901621964 8.580073849651894 0.11728514698308176 0.23311523876557275 -0.7049460932026311 -0.6937299127718376
Ni 8.868709715101547 0.7082761178345419 4.2119412691751466 -0.027537800408952574 0.43713818815087946 -0.8616617728615418
Ni 1.7642613128454825 1.758886571155822 0.25964614661284613 1.222655455339359 -0.9335359332940245 1.094901967240753
P 9.417281643178129 2.3485644483720676 1.4449658876207643 -1.2048798765234927 -1.4212960573668296 0.21958429415867345
P 2.4547791335316647 4.598726883392626 11.652856972775803 -0.6906931828280427 -0.0066550434226724095 0.13092777206152936
P 6.085788952772584 6.518177979491057 1.32658696658455 -1.275961108741035 0.024923502714557073 -1.8418339179568664
P 8.794668177219112 6.230662244095818 6.532992876067865 1.5730621063299488 -1.3271448307037015 0.38774626798131284
P 0.3873927435326858 9.032634630207394 7.861504772031636 0.6544259729658923 -0.07316562555039657 1.2127374248946985
P 6.205802887173937 3.648103568642713 12.330324807685198 -0.9387928108175896 -0.15470044900109486 -0.007892258263883182
P 4.2515712822431135 8.964654972619428 5.482700577333468 1.5898493530906168 -0.158023856947373 1.326889520159786
P 8.678871203022608 5.601610383538328 10.786883486423644 0.8675354580334995 1.6970466143044258 1.9762583903177449
