# total energy = -340896.2306183323 ev
CRYSTAL
PRIMVEC
9.02187282051938 0.00000000000000 0.00000000000000

0.00000000000000 9.02187282051938 0.00000000000000

0.00000000000000 0.00000000000000 13.20442281771572

PRIMCOORD
 96 1
Ni 6.25955585756309 1.9506010966129552 11.405016869705289 0.3919600489523443 0.4781547397725572 0.1734173086843078
Ni 4.716436672487268 0.4029917253933086 6.2241955289070505 -0.2042281234175773 -0.6768529345108407 -0.7162306649775149
Ni 2.860790788178444 1.3965588597665008 4.937463536737995 -0.9849657098292263 0.4898249770216338 0.5070104876619849
Ni 3.472771492807998 4.244376194710423 4.941557662661378 -0.7373095971350011 -0.0482637201023943 -0.655931096756509
Ni 5.0239291666403965 4.519651580726919 2.9398061554375445 0.5733282370526126 0.11818795589735774 -1.033464171650246
Ni 7.1538129215818715 6.1224865425477315 2.7116475006569933 -0.06536284167652613 -0.22047646695563966 -0.5305011145847572
Ni 5.27443048966524 4.497818648301646 11.580212619608746 -0.833441601673584 -0.5144744001391979 -0.08445199709749326
Ni 5.693415289153705 7.881778824252461 12.279082982167147 -0.9378628428041524 0.3718537651207725 0.36912685310791266
Ni 2.104144351549201 6.340824888673361 0.4124529635066902 -1.7757853630672256 0.20442892657447373 -0.34249793766647463
Ni 2.5565912776349133 1.4889518601661773 0.4170469011889005 -0.034985000715617165 -0.30322639376036165 0.4538447022722829
Ni 0.4489302000281209 9.096303354455026 4.864878960484156 0.5109910695762877 0.2979134661878805 -0.2562492536798748
Ni 8.906934242220945 2.0840075312296937 1.2645020973360521 -0.27400632055297974 0.9305426549936554 -0.13786589394225932
Ni 6.780605105203254 0.6971643263924389 4.72859635278594 -0.16019798178055636 -0.047006964877157754 -0.14542725122928502
Ni 0.7763177283069553 7.200825901279432 2.450595999459376 -0.16737161671086012 0.6489037575960824 -0.14522799073428538
Ni 7.519090511678747 3.964508675386298 3.8118261071249986 0.6601600472361921 -0.485664417886041 0.050475897262364684
Ni 7.626351558622576 3.8684888820796135 12.764583344007598 -0.45081877096176554 -0.4484230170360793 -1.2677847435778296
Ni 7.835460528768432 9.075462828049083 6.80701212719035 0.6184636959386703 -0.07031967146116921 0.7722316058231669
Ni 7.079301273275951 0.5475663364766772 0.3325742030107722 -0.4780087011129961 0.3518986621550843 0.12408323833587019
Ni 1.8263969723572822 6.55724157587065 9.05602881162872 0.9133489168231882 0.20891035938459504 0.40368865024318223
Ni -0.0420771130323261 4.921170034275167 1.2830727205195982 0.817983615247301 -0.5017536101384197 0.9884773225269105
Ni 6.361241387052862 1.9761961500387808 6.8356132686674576 0.43715284343889876 1.2144616066746567 0.9869601145514357
Ni 3.5398400959689384 4.413626530370801 0.7072616065454824 0.48873971437725505 -0.7806146876805394 -0.6964552821228005
Ni 5.871263469690648 5.723124316623301 4.956597124790688 1.0241434084699523 -0.16726003083366034 -0.5705614729407529
Ni 5.30319222048002 3.056881195725263 9.084775205259566 0.031113433575352865 0.48864201245712613 0.6303488774120305
P 0.2047117092929305 5.614762601185306 12.373521241153933 0.5345775986469761 -0.056928594866243895 -0.13411336887836256
P 4.073898884335237 6.096521592332882 12.574479851319214 -0.4136588740820166 0.21704687244880036 -0.1840364789610508
P 2.286783146597639 8.47345129297735 1.4335647780400478 0.5956634102147031 -0.9260949036349471 -1.263473003576353
P 6.400197834248038 7.754335847624609 5.839523618630585 -0.22665199963873223 -0.41038534553706735 -1.3912339478741265
P 4.583851228304704 1.0660335240920011 12.575747424462085 0.08534339856351109 -0.13030247977270462 -0.18752520884059962
P 4.0829478228569505 6.242459408411895 8.087616463283686 -0.575134437023416 -0.1449791079482729 0.25093812587960657
P 4.677344897198548 1.046834978554406 3.7887454496772404 1.389289422553246 -0.3392897151418221 0.2267137061146031
P 0.16369105757754635 5.436968551885782 3.5497316774197936 0.46022438054638154 -0.3250121221768854 0.14424043001003545
Ni 1.5221343087034307 0.9866500644184582 2.691906740557928 -0.6501430293198223 0.5837535461509947 0.01698239349060946
Ni 1.7543392734809793 6.43121503328857 4.786523994321556 0.8193699540718663 0.13429745986471064 -0.3145649587016324
Ni 5.901134890872498 5.546854963844385 9.171660352251957 -0.04208124544076624 0.9883577662299108 -0.128895572122849
Ni 8.585809698111376 2.203682675288058 10.137893918290914 0.6112496946887344 1.4190728244632658 0.9149782248964952
Ni 2.469268569806726 5.285392065242391 6.796396089345383 -1.2259860623744885 -0.6261335537791024 1.6785236157995738
Ni 0.4835931379087573 9.063644174546145 9.06908797265582 0.04737797506333131 -0.18431595787468258 0.9433135815060787
Ni 1.5409449137061966 1.1240892762228398 11.320877980824573 -0.07318825125821589 0.6384103142639262 0.1433081480037532
Ni 4.189090157560807 6.859302902536169 1.5568279209519373 -0.36533524727596434 0.9953887049347631 0.7867490827130516
Ni 5.8533279863594725 7.874380888471996 7.950726683539098 -0.9928870215588319 0.39784504697821155 0.6956960353592727
Ni 5.414224410297306 3.014370130606302 4.878875494105878 -0.18540302029127426 -0.9839722355677055 -0.692125287288879
Ni 0.5536994056761401 7.502995490419786 6.965887309012272 0.7007497957330964 -0.6749544319365473 0.040459650676943223
Ni 5.074334370549486 4.499036601143552 6.992639868731554 0.07984098068804314 0.07813351107863319 0.19518298249617352
Ni 8.185238541217945 7.22279416179825 9.102522131447065 -1.3570768423764434 -0.6558997292979414 -0.029428332563446093
Ni 4.421809369093827 0.33582388163043464 10.39734764579741 0.5074791997682873 -0.24622426534370495 0.05117112355717639
Ni 8.383025060870528 7.0427536661458765 4.7375090610268185 -1.486313599888795 0.1857902284273639 0.49456403436851604
Ni 7.372854973793935 6.135216405213872 7.082549147521033 -0.2592481884071987 -0.914440093004838 -0.7443063401678085
Ni 2.4424555635389944 5.2043485809546945 2.637068188304301 -1.3175391892931372 -0.2536791789598534 0.2857804303697723
Ni 2.470531632013147 5.194018536480754 11.256189347735443 -1.2403664994658765 0.5383440076679439 1.5693743730657166
Ni 1.1493866078428667 3.262706204134424 3.618500001435661 -0.9534830658399127 0.1693084287222568 0.9546326060633237
Ni 3.5505671028506116 2.5922998505850083 2.7882991372155064 -0.002024229518880385 0.513141026039755 -0.6724056973727646
Ni 1.1230066514744792 3.365826211415774 8.01167755468451 -0.03671535314316257 0.7112836053848848 0.7769891751128103
Ni 3.5590837508710487 2.5600195893380553 7.088860849803976 0.040526756469452786 0.8515213419934303 -0.21589527534286043
Ni 4.096967813348221 6.848305239467406 5.973852990845301 -0.10329638349750596 1.3346614507957208 -0.11324295318725658
Ni 0.4737277198893211 7.354793184242119 11.074509577776595 1.5140306061880895 -0.9230764285235973 0.8184407573893775
P 0.2946110640222165 5.521169691689529 8.023904899029953 -0.5113224847737774 -0.0741873819466916 -0.46594714196277176
P 8.637468942353985 1.755457985720952 8.027734684077279 -1.0727984504734942 -0.3706522886135036 -1.0340192728227675
P 1.883162596662991 3.324767667834197 10.296016675912727 -0.5202424129712265 -0.8452529924862152 -0.17241972065772884
P 3.844238087716335 6.212732337196492 3.8470817820553624 1.0476746588226733 0.33178569345529313 -0.16092020465856158
P 6.930611785961522 3.931705145510971 10.34944150068245 0.1045809066368844 -0.2521863964644109 0.9762769238059767
P 6.14754930547228 7.729697112726502 10.136877153214744 0.7904049342980839 -0.048462980597393956 -0.268908337204782
P 2.2954261008387182 8.278632969509855 5.864757797140291 0.09333001631341345 1.183144284618614 -0.5957654830102062
P 6.940788458596113 3.9377137128643724 1.6234842245212107 -0.6795973300251973 0.30447106480074015 0.3819330037336454
Ni 5.3416885521571436 2.808238378518438 0.5788578004534605 -0.12739430498697416 -0.12100485652086257 -0.37292025871207385
Ni 1.51051413640436 1.0004174424684442 7.227731832838064 -0.20946880299122633 0.5307286572145311 -2.783066962784833
Ni 6.842486131444967 1.0201392566344134 9.090836099475803 -0.887977013717303 -1.0874791924141207 0.10487761194169679
Ni 2.6325825130969265 1.4923170187589985 9.195705447913046 0.6326749544420458 0.7497421664713992 0.3043741342115596
Ni 6.5174912038600095 1.986390866419177 2.638151715239952 -0.1307213124776781 -0.06813423377407621 -0.3992128738600157
Ni 4.042953860277929 6.823919117010583 10.439086438595874 0.29813380972880266 0.38459820927063443 -0.6733292376282984
Ni 8.058887211211356 7.034940724211875 0.47444135003594884 1.123978058671103 0.27480773340835246 -0.7713322339373491
Ni 7.565300544687941 3.869418134988623 8.30581948131577 0.9304467528457394 -0.3608808110490366 -1.189444772915345
Ni 3.0415530336630567 8.163865724310725 12.347957764283267 0.12599382509502172 0.9702836823370192 0.14234809808332904
Ni 0.02657663319767281 4.7778575832109285 10.215258282808763 0.6306772072857267 -0.24607128470560846 0.004137419207141261
Ni 8.636828389377872 2.3104114317306097 5.748783425346739 0.2036892201949718 0.009089106785461766 -0.2312493892014275
Ni 3.4143458438881362 2.8066234632688007 11.787258287421686 0.8546712004763217 0.21786808279851513 -0.48434209953019164
Ni 1.0246050837214011 3.450992691620143 12.495319231906375 0.15562373214631262 -0.22460411597076804 0.029493381473426627
Ni 3.1480833089017426 8.376105284353923 7.84605491411843 0.5862012363605388 -0.5486821563691582 1.3525920671322125
Ni 5.5216027415888735 7.831472860945303 3.565353050351347 -0.4074638010148982 0.2567326210741966 0.22908991965626352
Ni 3.057368376862025 8.502204001919226 3.5581030732864924 0.58665143652408 -1.8124025000696269 0.2662274479385092
Ni 3.436620848085656 4.5217807427320285 9.280398279790008 0.4324250989459262 -0.4310004506842577 -1.0718743959973283
Ni 7.212112264281091 6.085884804180239 11.236370097342121 0.2728166711202527 0.005791666981112606 0.7957381735855393
Ni 0.5260825505327508 8.874581805990768 -0.10413857673209909 0.5086395386249756 -0.7163692474379082 1.130969916607904
Ni 4.653409868386874 0.4827153096752949 1.5459340094215586 0.014291734032323774 -0.6019389588107698 -0.06764341018058674
Ni 5.924275994868707 5.640474938958871 0.4826458412539418 0.6497463081020358 -0.7124246609678634 -0.1376576345861952
Ni 7.8088008943400515 8.854210416975782 11.13708528823184 -0.5107900093090751 0.6069567237403353 0.06677154909859469
Ni 9.100724072177497 4.7673471012789275 5.811094794925925 0.21741608286276104 -0.10731527484891197 0.11298044355448929
Ni 7.776313130016329 8.60254527234645 2.677988697230462 0.3521837974956709 0.20564480125944584 -0.19867094104477398
P 8.54061011486732 1.5431642944403359 3.4428026353987953 -0.46421987485901983 0.1454776448512462 0.7724840881536051
P 1.7777149461726658 3.3198056377375442 1.526232945563266 0.4587750496943647 -0.34087968533676133 -0.7666962778272345
P 4.7508100082477185 1.2163198829102622 8.313346429878749 -0.2312360194649889 -1.649445724597011 -0.5390950269013555
P 8.582552801993392 1.6104674662967549 12.266381087307005 -0.6494555163344944 0.5057043672560516 0.6158992776456038
P 6.268559686720289 7.732746505767716 1.2732632381121605 -1.0206155978223521 0.18497210340144274 1.5348552562429243
P 1.7233942494236714 3.10928925541882 5.9118709196270744 0.8155302686108019 0.24417252502099882 -0.495745713381443
P 7.009877961287326 4.0023103228498895 5.993804862770297 -0.39197290446815075 0.2485698827577461 0.4546348022737461
P 2.277995842390112 8.436190957887938 10.197313777604686 0.6864899433799725 -0.2412206414815265 -0.1892313928984289
