# total energy = -340883.4895668973 ev
CRYSTAL
PRIMVEC
9.18586174715140 0.00000000000000 0.00000000000000

0.00000000000000 9.18586174715140 0.00000000000000

0.00000000000000 0.00000000000000 13.44443718809241

PRIMCOORD
 96 1
Ni 5.60722454040563 3.3869007122056796 9.337174933815964 -1.1800615319282324 -0.9362109090230263 -0.09806701677776658
Ni 4.4049789552447995 0.6874404982240526 6.088286282809019 0.863779333425177 -1.1494584623303945 1.3877714432468229
Ni 2.9005644479884194 2.0139542582410317 5.007609147737537 -0.741206361086246 -0.3415054918462183 -1.1878725433322188
Ni 3.762822918250315 2.700275918504566 2.5326357788341194 1.334980010477404 -0.34292834033567393 0.6490688224190371
Ni 5.667887971368359 3.3392903907823257 0.716084770902896 1.4453885795396593 0.07782420736833048 -0.06564926256869338
Ni 5.257353438269278 4.858163444425037 2.872417130429971 1.6022523547406597 -1.3063983421849694 -0.4972060999770534
Ni 4.57555122198419 4.668328425606778 11.449108349185671 0.616349477809145 0.16012367689919518 0.19012665101918869
Ni 5.554920243630677 7.99226005555178 12.926530201704924 0.8533630231878593 1.298871951900937 0.4472014859241524
Ni 2.3592140577814877 5.872016191061544 11.547830642529501 -0.008317775837075998 -1.2990341885104144 1.1017269605823863
Ni 0.6817673100104575 7.631797654823663 11.566370467289051 1.036885024406337 1.1764195643002706 0.5183074007320428
Ni 8.075897326738282 9.346798042579827 7.372808713031945 -0.37269631562672584 -0.5214114935786633 -0.4154799864511554
Ni 8.77878109572771 2.7261616769014427 1.5946848892088092 0.4903584809276007 -0.10156345996679927 -0.08148931492474353
Ni 1.5945278109729728 1.3178404693575285 2.670535772519567 -0.503843402787913 0.20053601927797077 -0.14657293479795402
Ni 1.788919017216658 6.772258199638231 0.6266604068171635 0.391085616767191 -0.8896716278109064 -0.9294057131757348
Ni 7.95321095727459 4.096572833024523 3.7926080749578635 0.22912848620368279 0.10718903368369281 0.596854859419643
Ni 7.968128796748163 4.017574422019151 13.048726964737616 -0.14735814970341074 0.2940182448985323 -0.7269261970181481
Ni 6.8436599029806455 1.096295855796183 9.575087834420389 -0.564787289461137 -0.7100967841656352 -0.3798920620442167
Ni 6.445333380140417 0.9455099352551146 0.7101663201807145 0.060802218889037224 -0.21829848546771435 -1.2124970267491182
Ni 2.064458126114001 6.937759870694486 9.402326576827209 1.2786422551176237 -0.42617911803621444 0.5935322228043133
Ni 0.3706440098860666 4.996548451610611 1.8413767178827485 -0.4700081994060228 -0.3566827138072889 -0.5975572848033064
Ni 6.375566760188579 1.9121473525232942 7.067054549097396 -0.3343333995778113 0.815594546189834 1.0608461632076247
Ni 3.6028511359644355 3.98219048257814 0.22443999718330984 -0.18386447215956075 1.5291152684353535 0.18752469461996737
Ni 5.570949572375372 5.79553470617425 5.310310849814286 2.3360742504373766 0.7389993261325982 -0.09501331755310734
Ni 6.292361224504083 2.402672369696188 11.626884168705342 0.0837274602266429 -1.0512927151912346 1.0823575549168392
P 0.4168773706338736 5.655569730768568 12.674917506894289 -0.8736994207523662 0.3329619731515814 0.2844190312458714
P 3.9032563726049814 6.412429623370505 13.199412759385668 -0.22873073654463186 -0.5724031541351818 -1.1759493095320714
P 1.9251361610304565 8.395693917522124 1.8908793268255337 1.628985914080762 2.3072735241556006 1.2059186022006523
P 6.737664244307274 7.994547335126239 5.986162464861085 0.03864136652128184 -0.42069598343445613 -0.008456615407785436
P 4.700083949658589 1.669227238681774 12.94529875442192 -0.25685037759898344 -0.9076328402750176 1.7990489615808565
P 3.985690295902913 6.327543074986709 8.344680234322317 0.03590751252988655 1.3781588598577232 0.5414460436320352
P 4.8747990400448895 1.403820135288957 4.136073875699558 0.6266212920487982 -0.6234020137805522 -1.744678357249776
P 0.3387516164942582 5.659859528203395 3.997017382020439 0.2604095557051515 -0.557161140374447 1.6251639692315107
Ni 0.6527179408286681 -0.127845149419578 4.395523947750865 -0.2919323089037811 1.2957475473393427 -0.7390944569495659
Ni 2.1416561082173904 6.753243465826473 4.850672374172144 -0.15332002371380046 -0.333095156295336 -0.7896798832066013
Ni 8.409344108074912 7.7483478686418215 9.607784909301042 -1.0081516610273864 -0.16612977388395905 -2.0382052643341866
Ni 8.713690079403982 2.7016078684575637 10.690895379148724 -0.3273903926010749 1.0243215859190293 -0.15723632804907114
Ni 3.6453541182576745 4.539450785327084 5.145495362630369 -1.0004108407397028 -1.0895484162383238 -0.158031827367173
Ni 1.6109153883257152 1.3777506596571842 7.26765907222527 -0.45191766045289916 1.3211611023164407 -0.052092092709548996
Ni 1.1996919155957728 1.2742811129636362 11.670578557266884 0.7511110217944678 -0.12269972772478224 1.3963321883326403
Ni 4.722690355412568 6.9118649264358645 1.7358651541233292 -0.08065653461080302 0.6665075867207747 0.7734459378462422
Ni 5.628030517257626 7.999755718735546 8.058555338350253 0.6307949638105137 0.2942013074436159 0.5002091484694353
Ni 6.962653556022923 0.7203975329920846 4.841314736812705 0.60331501322269 0.5957788527466449 0.013047320102261402
Ni 0.9846692638732428 8.240094605426775 7.7455415878787806 -0.19896661790832185 0.048546798560451875 0.10323416280100287
Ni 5.121026064114542 4.7771992590062755 7.441200209480584 0.6277456354612285 0.04749830269127949 -0.05084793588980275
Ni 0.3738370154285628 0.53674184336956 9.668983876003495 -0.055542770262310796 -0.18385984417387047 -1.5171105306649937
Ni 4.315922025628859 0.7092725358329444 10.904581487987384 0.7562959084295169 -0.8904797255344987 -0.5164466933742202
Ni 9.335866867103503 7.380812354370199 5.733380409850337 -2.103675063902222 -0.2195722099738154 1.1388935423303546
Ni 7.390889244704256 6.343792864413279 7.512361243245285 0.2501174297505241 0.5134855538633673 -0.6702048330667039
Ni 2.7381308547549312 5.41744463675784 2.52612943296027 -0.38448713761406683 -0.10422146641493664 -0.481709547003351
Ni 3.1954214241350996 4.40736727929845 9.259506635591242 0.883386309022827 0.3959236615857827 0.7505875451908299
Ni 1.501576075977233 3.521694047449033 3.888171350447653 -1.7085787833137411 0.9394178459960983 0.1828044063261626
Ni 0.7221051846904449 9.18751519992481 0.2699081756477741 -0.530214436582274 -0.12463859661870794 -0.1234142372933036
Ni 2.214738824259105 5.5787116255497375 7.013936384971853 0.9925301524400455 0.5098302164989671 0.928866295732497
Ni 5.817047994380596 3.2331661300445274 4.951828002292174 -0.33878372203968105 -0.0523322337448131 -0.08822689075889321
Ni 4.07661195545305 7.376972664160867 6.261249629360584 -0.8745910793287002 -0.25042261969576873 0.4817583979634155
Ni 0.25017510744757165 7.206326910527518 2.6536365426676385 0.9963798652034389 1.9120710570065589 0.17695411819297266
P 0.3800751341394638 6.2166880954503325 8.280133021013881 -1.2148351879639916 -1.04603712321925 -1.3951175991992488
P 8.627692041749063 2.072560056172924 8.361753995547398 -0.20468063757396365 0.10665373000551309 -0.12831913079408866
P 1.5832383868886006 3.770382882466294 10.87051296394823 0.22801108476978796 -0.1666357669861001 -1.5673514290984167
P 4.008296701656892 6.2598800173744324 3.928759999153274 1.1089191074554516 2.3274708250390814 0.21980900857496982
P 6.877078068008267 4.246881088754861 10.9029142540807 0.595343050760807 1.7631620178762604 -0.02974843490702619
P 6.157053481003021 8.165193088759587 10.738852007559858 1.3036007248351742 0.5935219383916681 -0.6770395966003501
P 2.193813431204426 8.914842079891848 6.024210304208093 0.6375883325832632 -0.8380317921474276 -0.3010952063499718
P 7.331916012302571 4.8990497150511905 1.6783901357722226 -0.9446541546943731 -0.7716798470847549 -0.286639435935958
Ni 2.6264950769702464 1.4965054802940976 0.5094974960206258 0.6448036193847798 0.9693501147791564 -0.08633738704566421
Ni 1.0782180798823955 3.855150014647407 8.459387764274467 -1.283505496747196 -0.46135206639292153 -0.541583597651164
Ni 8.135669729111767 0.27093423640466946 11.60904338802457 -1.175934397133736 -0.9425579342869767 0.057222729067894995
Ni 2.2681454244434343 1.965480465813665 9.548817188416404 1.3985752187305462 -0.03768517325559961 -0.04382342494285356
Ni 6.6260652099695685 2.4096260670370095 2.680161637041954 -0.9970936034410117 -0.7132209316169137 1.267595767495475
Ni 4.213435366142006 7.310246564446563 10.963548290285846 -0.5252313815453857 -0.29803173693329965 -0.7530046392727547
Ni 7.71197185613237 6.8063010032645 11.516787022762914 -1.6707948796967482 -1.2765650608736208 1.9449528953362443
Ni 7.752582550906179 4.235169115030228 8.664644007789914 0.2597163862928688 -0.8411891068294867 -0.3748951230502576
Ni 3.1548934021169948 8.626433578690024 12.940486281453815 -0.29860946381364056 -0.42168200149680923 -0.6333917780034124
Ni 9.268442641896593 5.461729676229572 10.294674255820405 0.09690307837665248 -1.1494998570912913 0.5277531195259749
Ni 8.707682525822875 2.493676702002028 6.090356776046299 0.037652520245451286 0.44504278770993677 -0.47137551206719464
Ni 3.2321281276673632 2.6065433852605175 11.72237946881822 0.04369872643953119 0.7402267707817961 -0.5851859077221471
Ni 1.3638616366990304 3.44538709393489 13.113596601793297 -2.273207178599511 0.3512954813534466 -0.681304285413975
Ni 3.316858516401498 8.85185462590768 8.178990253100293 -0.047865199112394986 0.24590853387549905 0.875728535367253
Ni 5.243041865670863 8.21071821956687 4.260340213383358 1.2866322153016359 -0.6777458786387554 -0.7393392259705203
Ni 3.101394943315217 8.95032706381205 3.976272950442133 -0.9504136828859696 -0.09882086422465561 -0.6846426057585887
Ni 3.8271606939109692 2.9072425694768973 7.023320661330351 0.5940227892874866 -0.7339831038649295 1.8538108878130846
Ni 6.020634248230837 5.859192728065788 9.699973299185789 -0.02276866115508337 1.035337991634191 -0.3397548277036987
Ni 8.2340319366752 0.3915785888024903 2.212107074869216 0.2535876476873117 -1.3393519142928545 -0.11252124452988363
Ni 4.368060976892405 0.15655739747533295 1.801366778467051 -0.12749097846583848 0.3877609232693322 0.3558764158559097
Ni 6.001839975100954 5.761896080464752 -0.06199629950190219 0.6915200496047123 -1.412305166722129 0.5413799662807903
Ni 8.389622062908805 7.090649353575116 0.6575662386575791 -0.9041055438480493 -0.39178135728263497 -1.3384527995173527
Ni 0.05706349174493882 5.079625385230679 6.193059303284156 -0.8285932724423473 -1.6791933881730887 -0.21287114380455596
Ni 7.538809176380943 6.847325061816824 4.018595889845174 -0.6406168349969418 0.3985179046755201 0.14325338350641778
P 8.726715631358124 1.7449279253207592 3.734770215067837 0.2609726272974731 1.4432483932682048 1.1302690338861374
P 2.032665858615211 3.563498904249666 1.7034776427834752 -0.6308101333191651 -1.493901439538382 0.07275270638269406
P 4.54591763199543 1.425085405228194 8.777133152130693 0.7904237033511613 0.46274894674044825 -1.1707988756793835
P 8.405265585460217 1.6872039701163686 13.124889700222367 0.2556589283940436 0.686352903581476 0.3666783915674201
P 6.704916647187024 8.02676215226529 1.6758355476209907 -1.2374786363951205 0.42507842877286794 -0.0460649126788626
P 1.9407061966879104 3.47618728836524 6.241069209693409 -1.816548918137833 0.7602813754398262 0.34451856764092925
P 7.032034369781479 4.379736207170059 6.331321219922349 0.9203052935363635 -0.4636578317079628 0.20355757971311392
P 2.3521685018232183 8.816094066135133 10.540250920878526 0.05662134803847023 0.4003999521895814 0.32306425442189524
