# total energy = -340897.0829718018 ev
CRYSTAL
PRIMVEC
9.02536010030355 0.00000000000000 0.00000000000000

0.00000000000000 9.02536010030355 0.00000000000000

0.00000000000000 0.00000000000000 13.20952680418076

PRIMCOORD
 96 1
Ni 6.49544341780555 2.015426105895755 11.3125461995003 -0.5898282915901649 -0.13541177597481194 0.37739732064682097
Ni 4.68084060129296 0.412889469943563 6.07693746622147 -0.7065491760236928 -0.37980310187483624 -0.47609708591258
Ni 2.6848912226673898 1.5917576482882525 4.6827900790920145 0.6953880172005508 0.10679488356906769 0.29165642953457516
Ni 3.7200549086051957 4.287831292219664 5.049922777990917 -1.610894346686374 1.139171992802722 -0.5105526964872884
Ni 5.032378380335444 4.638195774438642 2.601788413730562 -0.5334509412417007 -0.5057092523520581 0.41826140585103444
Ni 7.0381744269182756 5.917026134537909 2.576161806033175 1.5080409642635577 0.8161959272192588 0.16301925327943537
Ni 5.16544829084128 4.562265419237502 11.468392508958425 -0.2818145037434888 -0.562161936023148 -0.698557673177784
Ni 5.616066473948676 7.811214577124866 12.468459276761122 -0.2778082107975732 0.15754948841411576 -0.037714226721322144
Ni 2.083730031744112 6.345712692405941 0.28838282117727665 -1.0351549290891073 0.40982973014391355 0.8248546313355213
Ni 2.892952850915563 1.4820543952905278 0.29765006101093056 -0.33883360144101 0.21275878659640776 1.1709186890866994
Ni 0.44108379261239 9.015287878846499 4.587325234315534 0.04153154358488331 0.3377028302706765 0.3058998268274667
Ni 8.646899752346448 2.2011680184167894 1.3566975575952094 0.016760764398106618 0.32575131433575516 -0.06086623935775323
Ni 6.8314485519768615 0.8066162951512339 4.900575630398991 0.1636751416958794 -0.9408784897020247 -1.1487046148835056
Ni 0.8953400984086697 7.48687923366734 2.5174852318896854 -0.5180448910992755 -0.7240740722813336 0.05680106814944411
Ni 7.588586017544868 3.841220369032547 3.8979068512561676 -0.22455397945912295 0.10414561887167868 -0.20058512734835132
Ni 7.62523800523913 3.738376389772237 12.675941476885686 0.38736625893407484 0.10350875661862818 -0.2808860783919485
Ni 7.796927431958647 8.75614271197495 6.968382219176103 0.16819642660500067 0.14527452770150465 -0.26210211291622604
Ni 6.915357325577836 0.6311831490287186 0.2436197422885218 -0.0760912838376238 0.2165272524999045 0.4728541534952501
Ni 1.8250090568010617 6.544667732231678 9.145563537840358 0.5337507318703065 0.14409567690205505 0.017646766547485735
Ni 9.045576987613291 4.741572249949619 1.3704747699112132 -0.20117982350955677 0.19734219493102143 0.046663979715442214
Ni 6.379765376368131 2.0352096954120866 6.975343479483561 -0.5989071139629815 -0.3088619947795842 0.5292636426332304
Ni 3.441387887662559 4.3202233099085845 0.6922794222366823 -0.7330852746410085 0.12971344003845403 -0.32808587600620265
Ni 5.899182997460451 5.588782810122092 4.753342222161412 -0.1535586220871678 -0.4872312481525286 0.7986116384785924
Ni 5.346343584945221 3.010977485999993 9.244607840464548 0.1481888731348222 -0.013242466832202999 0.139874696842172
P 0.38127904844630006 5.450947509440789 12.390523486527806 -0.6685693543458098 -0.40990814879033277 0.4344907232257033
P 4.094426848905123 6.018164320724047 12.705491408653671 -0.3343711947942822 0.45645102954687844 -1.028919489702357
P 2.4920553770442404 8.258493376965363 1.3343209820989315 -0.19311864376797708 1.4236997817123158 -0.6212823963343881
P 6.231866799085225 7.653099292117286 5.663439687001721 -0.22043455797411066 0.8071315030241453 1.4684164078934
P 4.854019212442309 0.9677622961075296 12.566566746998545 0.02575782569039435 0.7950516890414758 0.2388148602535113
P 3.975192815556465 6.334710778345536 8.402104908162384 -0.3415486863793279 -0.28594523808241074 -0.43537261161002433
P 4.7144239665257475 1.0278711949117127 3.793696432464483 0.13042666405539474 -0.8476831991942626 -0.04369307001257637
P 0.05891935633235262 5.5836203040986705 3.560073179112224 0.8427996458497163 -0.6804031137559443 -0.26662159805313435
Ni 1.6006115266256256 1.0793879508237665 2.579094145555919 -0.6900383228528632 -0.15231909325311185 -0.5247814384921606
Ni 1.7263438193044656 6.5077179076514495 4.783143058942422 1.244799852646882 0.5734544782178317 -0.5751390650091063
Ni 5.990140577362637 5.507807278579881 9.184201104774399 -0.396940018665439 1.2535164065842732 0.4205476307820499
Ni 8.661809647365143 2.2666379811683726 10.096015193121097 -0.030478113984199123 0.6083921706352812 -0.20053139129228048
Ni 2.3515034429485127 5.337543858768933 7.0769248108545755 -0.1584210923857917 -0.4747236026038211 -0.4564448588992913
Ni 0.5505948054382634 0.15744379821012816 9.065222489118856 -0.04155828305776069 -0.9285675335451556 0.3794729722289271
Ni 1.6806935475099374 1.3319716808438669 11.409504741386707 -0.8287400824328567 -1.3576075180689329 -0.19152096026355403
Ni 4.228336117907776 6.779453451975225 1.6076124985178784 0.04611684896272058 0.11763234050420386 -0.11086956785907358
Ni 5.6421587902313926 7.924212086588587 7.914157835347166 -0.5768349646542904 -0.4868715508202648 0.36052059949614035
Ni 5.4032214048046745 2.862140271258284 4.654667056768616 0.19433966065927177 0.09325262610825875 0.40820402161503244
Ni 0.7363628915038222 7.369161460829058 6.767703335555831 0.08767924578553932 0.360565850911779 0.6996329085198337
Ni 4.860562598573396 4.762655491331987 7.175110801725571 0.6821566061119413 -1.0996482236764866 -0.26687048083914683
Ni 8.031415314816227 7.3141157890863076 9.082884216456682 0.3506239092077187 -0.10644367087723602 0.0314751877901458
Ni 4.501912835708437 0.40620619072967445 10.478866459310895 -0.056741161445786156 -0.03430802925325059 -0.39097994442726214
Ni 8.083780454585277 6.963904737990404 4.828359210912254 0.19507833859750917 0.8868655258206792 -0.12208343429702198
Ni 7.105864628274337 6.026810615777261 7.011577593001452 0.33348390709332243 -0.14898257268071116 -0.09230954546869909
Ni 2.0845603648807463 5.1302584114963095 2.6021449154577034 1.1364119135590816 0.9096593837867432 0.7129687063967914
Ni 2.4301594569242573 5.181784192768543 11.370866271916647 -0.3478242349753945 -0.4127348196058505 0.052351517018522746
Ni 0.9932769893386746 3.327126827773527 3.8637738415883685 -0.2997965421432063 -0.05280043163048326 0.019767926655546598
Ni 3.7567068962994585 2.639647092080998 2.53070738455457 -0.23542948872104616 -0.472883721181605 0.6711450854927861
Ni 1.0851461306191221 3.4683195624420913 8.130028205223775 0.19187165873475343 -0.16760275888505974 -0.1562693361501115
Ni 3.6638810668398447 2.6428691456655464 6.989874309374662 -0.00043683042710247354 0.1326781790937328 0.31569572987196604
Ni 4.096430478865263 6.808000666227121 6.168333678628443 0.05676070182981192 0.9934940590152115 -1.2804055176656335
Ni 0.792738901337223 7.185414152907981 11.188984505944944 -0.32085439125477 0.6270717493226555 0.5036336007699521
P 0.08008743610042036 5.687402920817785 8.116633668179437 0.29116226350697594 -0.41203008022934196 -1.5111820809957006
P 8.330398421525864 1.6413159010410707 7.955767453388746 0.5850072160524377 -0.17691966541061144 -0.1932842228115639
P 1.7136270868097068 3.2154289701758434 10.317459625445373 1.1251044589660624 0.522394683427539 0.10833240325951665
P 3.864668254782287 6.23961958348054 3.8538396276373534 -0.6030859279310194 -1.3583302551675702 -0.1269556747876588
P 7.039320647661238 4.008036101254426 10.366493504771686 -0.08933837865551711 -0.8067532937491204 0.23662350902914733
P 6.321975995130415 7.594380298780948 10.308225779444388 -0.6830714046167268 0.9682738509958422 -0.15252066774095668
P 2.4079209694387456 8.723362603798256 5.675050812874331 -0.3416751846548632 -1.4061229491708171 0.6253961613924455
P 6.86291998292734 3.9873138742792906 1.5509702405591437 0.35084579541053773 -0.9627187255055678 0.30044805968427607
Ni 5.2013692243608975 2.9148844761549273 0.5259808431531631 0.9757963846251322 -0.9604913788369458 -0.9809090232613493
Ni 1.3817014154401206 1.2000479910809922 6.973850684909655 0.1022031504333272 -0.15622819849953093 -0.4603454795052782
Ni 6.695066334284667 0.5988470885729187 9.223935252970406 0.44865235943806603 0.3878817651179126 0.23471009405651833
Ni 2.5873180537526714 1.525123414073345 9.180331030328869 1.068237056355057 0.2651568405821498 -0.725424415661641
Ni 6.316795438386631 1.98086800176344 2.5493194823194325 0.7661815429743449 -0.014366296024001066 -0.3599518714768639
Ni 4.114607554269411 6.933399020579272 10.595850470366479 0.35343309652173965 -0.6399357497695173 -0.8275779438039553
Ni 8.195749072988384 7.056947176094357 0.25788071391021694 0.45366652482320574 0.38606322385193514 0.03589439990376399
Ni 7.694020275177071 3.828268977173087 8.182297676174908 -0.20705093757835308 0.12504174559439757 -0.13844079260912284
Ni 3.067737976177096 8.35058815225033 12.331001236135375 0.09455411852850167 0.03949574410177714 0.10399083846136928
Ni 0.13155726013953384 4.8482790833673155 10.131178898921545 -0.12309002118466542 -0.15947575890255114 0.7851490852157833
Ni 8.593857710563837 2.4317840217568025 5.832442263995411 0.08346160815976594 0.3150336708079349 -0.19433734666642657
Ni 3.575252029864308 2.955236861523321 11.751829432756619 -0.18388966897054138 -0.7420818217126639 -0.9932415766847732
Ni 1.1495059740684659 3.2680648707503166 12.728277735502157 0.12318103823657496 0.8914891406356196 0.3951870405300742
Ni 3.0642993139482084 8.34254655632923 7.84153166450822 -0.08895065629879519 0.6244019157999763 0.44237141152536075
Ni 5.55090337344324 7.679850459693202 3.582727735702071 0.2316599943762849 1.3998975370863955 -0.34629622836664226
Ni 3.120112141306327 8.306427064885636 3.430394998962335 -0.06294986135965933 0.2454688752349192 1.4085917224262838
Ni 3.37216337507576 4.317362270731269 9.261608911437138 -0.1871392862560906 0.06155555211529398 -0.1827208454734208
Ni 7.137056273059211 5.938109375920277 11.455949244877145 1.8429916857103936 0.582664426851874 -0.8644699317342982
Ni 0.6271740840364036 0.07255216288546353 0.28298926593322554 0.20393733165003589 -0.28271207585709374 -0.11008949515993943
Ni 4.572599456644526 0.3025896406378869 1.6642285829320886 0.576052320851995 -0.38851579915748574 -0.49459103095170953
Ni 6.10082759462007 5.588205187070521 0.26271018414296743 -0.44801549718501554 -0.009628781339015676 1.4453225021884142
Ni 8.033455046217089 8.799311009719757 11.312533563996046 -0.11797661121750004 0.021068647744841133 -0.0319464709996095
Ni 0.17302698509831171 4.95920075998945 5.876508585078207 -0.26113820634105994 -0.7802336501920369 0.18355028335325163
Ni 7.93240711363276 8.703389481718126 2.402957923875319 0.15261554144760814 1.1484544465459126 0.7153307788710649
P 8.353701901512709 1.73554968668889 3.489652806301468 0.37884562305757336 -1.1631439302372872 1.0942710185249735
P 1.801272359525536 3.132115870346802 1.7833254308059987 -0.3200622343707778 -0.24518836788002288 -1.5266385247600869
P 4.713936597075985 1.202791700575958 8.282148845999263 -0.3131565083898801 -1.4549538546305911 -0.2063701094612446
P 8.588153682929567 1.7068309905935581 12.256750500463884 -0.22036488107843982 -0.8147733358401192 0.9312728482914607
P 6.4032222874780516 7.661637282848331 1.4047007407888743 -0.924403631975453 0.16680160314000303 -0.6270041293095137
P 1.889062038004258 3.2858177542259672 5.899823798033289 -0.8318254062263996 0.3989647624049516 0.7358993470510359
P 6.734335676431364 3.949371260079172 6.090226406551692 0.4157121570666195 1.0234173289372053 -0.5527367860545062
P 2.3798791753569737 8.44627502088726 10.164612443175331 -0.17543125379054303 0.952605805441282 0.26207794454650996
