# total energy = -340893.9973035944 ev
CRYSTAL
PRIMVEC
9.04468823688358 0.00000000000000 0.00000000000000

0.00000000000000 9.04468823688358 0.00000000000000

0.00000000000000 0.00000000000000 13.23781548577989

PRIMCOORD
 96 1
Ni 6.4439605926577785 2.006781189256562 11.496447433031182 -1.0656464128097451 -0.3405284726449297 0.3932545993940518
Ni 4.637130329381254 0.1879368664070839 6.139605924257685 1.2305721390832742 0.6863714155242372 -1.8236436202010853
Ni 2.9166316166760162 1.4836364134531805 4.961110162624676 -1.3017029935918292 -0.19487753544061276 -0.4537896806646313
Ni 3.2246665687772573 4.3837433844619635 4.743162115709411 0.024206936263506694 -0.30556712607839637 0.2059492198737421
Ni 4.901027202196179 4.447779778180634 2.5074146401550856 0.4278385080165083 0.526589695345493 0.8034442839805453
Ni 7.350102697842111 6.025055850414804 2.559995031573747 -0.9389828153412085 -0.4298359980625114 -0.3725088822062681
Ni 4.972037050654552 4.7057614247961235 11.103085795237487 -0.5491138445899382 -0.39213154153320207 1.0730902706823005
Ni 5.797518624880818 7.638248380199375 12.301028541352773 -0.07052844503786562 1.6928156069422136 0.7478760597969377
Ni 1.6399648073844677 6.430420694155398 0.6516896959740739 0.09233962737568613 0.9014801904100604 -1.0433750030060547
Ni 2.764590405036064 1.5312657424535367 0.48777099955568093 -0.18877553630793295 -0.5682531365225504 -0.004213523860715325
Ni 0.6399533083343356 0.22435530416248356 4.946905479526488 -0.23548785276280737 -0.13274502777592626 -0.4002269169468268
Ni 8.787810183710064 2.3035283702616307 1.2688169242479843 -0.10783515190812396 0.15518124529225533 0.2776027796549864
Ni 7.039309115785476 0.8250139638371062 4.890578778181516 -0.19928106382494712 -0.5804051985040521 -0.4870882948167612
Ni 0.7974620340989966 7.752229543143258 2.8962222773502844 0.41546970203851025 -0.32262562422257984 -1.5091087434064399
Ni 7.760885309921334 3.992660103670773 4.025169427109053 -1.1298604855938088 -1.2212248935404193 -0.3867993306870113
Ni 7.671351939664112 3.7166162143637327 12.532716374383579 0.6290473849917876 1.7587433199832743 0.39178135728263497
Ni 7.919954244431258 8.540736431278857 7.4661279603595 -0.2830329495316222 0.9419444690726939 -0.6900804889447083
Ni 6.837259822101663 0.746394819046032 0.3214210909011892 0.0005651284748506396 -0.465805731288901 0.37528310251729563
Ni 1.9568273753429717 6.4693128541822755 9.035881565269403 0.16805141638670412 0.613984062900762 1.0578701112984363
Ni 9.052647704116337 4.773090085084512 1.4297635360652536 0.01869783351981941 -0.641044923673296 -0.5760615768233757
Ni 6.4496587463361355 2.0178337984548977 6.949006042547257 -0.4365997991489062 0.21014860266707036 0.40717969411557614
Ni 3.3241762303157913 4.539384382076496 0.41403236861356074 0.30082061253234643 -0.45620728896718854 -0.30492872116344905
Ni 6.129829520589533 5.712145811277636 4.629846641830174 -1.0922208208641642 -0.3792112339271082 0.13898715203089612
Ni 5.1474949605060365 2.74932297105342 9.499827046698849 0.04127880414412891 0.5951566457816136 -0.7454867336291549
P 0.2879494126194538 5.443003019203272 12.302060540296742 0.025225350225692042 0.5462198108715948 0.3777577893100333
P 4.135819431323192 6.260950368010378 12.511576224236878 -1.189070934515694 -0.7059161704253842 -0.6453396943939079
P 2.5055867086338224 8.377787325454623 1.4429615453469324 -1.5943575253736153 1.1870001680295945 -0.19197090331677907
P 6.503546999694304 7.85192009844936 5.871580151198047 -0.600913602870049 0.2864617727075131 0.06099428029518528
P 4.794082806810646 0.9914968294107596 12.82148614023895 -0.09201438282578346 0.4577823467637922 -1.7118906212957938
P 3.9938992259786064 6.172592807242342 8.204599632386103 0.306098315991518 1.0163390819341853 -0.6349784057642419
P 4.910913046593708 0.9514740833365901 3.8122529403386602 0.15247721609753093 -0.128411690507895 1.1974434748501053
P 0.1852840593057158 5.594221164200794 3.5188758102233626 0.9755503300525972 0.14590419086570355 0.7638184420588071
Ni 1.5704925559504122 1.1194701252759403 2.678963435689449 -0.28980009305212673 -0.6662034252167947 -0.5681289522398603
Ni 1.799902031978714 6.63722749392622 4.681328103610866 0.696443969268891 -0.7826867397182198 0.6976248769508695
Ni 5.892578299737208 5.309069273696762 8.998498059264033 -0.09190485383111269 0.9046668156681581 -0.342268595264488
Ni 8.749695866883725 2.395069661338844 10.250940479671865 -0.5823142426013067 0.6821836026951348 -0.729919218208201
Ni 2.358067841183041 5.199990331853941 6.966956131102918 -1.5071176811183398 0.32176764709765876 -1.047665917071925
Ni 0.5991138268996017 0.0034867273698513785 9.277762762102602 -0.780697734312649 -0.2435441474083806 -0.7502646146337724
Ni 1.2884701276252866 1.0053623366947602 11.34946762900775 1.5201194926946464 -0.2987431611780274 0.7899984428882846
Ni 3.994441907281307 6.798666136791271 1.51929057504061 0.778142314880647 0.32813215586310585 0.22559270513628243
Ni 5.614861143080174 7.976691574628607 8.132320814148247 0.051110959743202296 -0.7021163370633198 -0.07556497902050857
Ni 5.044077993588058 2.8037719950910476 4.818869775311496 1.2951217408298858 0.8231091093993245 0.4959154061900878
Ni 0.8122157297817504 7.419186027675899 6.7911843705647055 0.02187674546843329 0.39061844732278533 0.015581142267708651
Ni 4.639581439931785 4.626285748015619 6.773710937086584 1.5585595418383997 0.3347517180621525 -0.05682317963663117
Ni 8.28470843735309 6.972631673060327 9.256648841552197 -0.9972787228686244 0.6292836693723097 0.4232115507674582
Ni 4.516700303623611 0.7046065498004097 10.48644155332298 0.04509226435294815 -1.7556428266810797 0.760103197990749
Ni 8.182331609598622 7.323619850270322 4.550220823222589 -0.09570468719317711 0.10969508793499817 0.6511714705843367
Ni 7.178036546132506 6.019656171452933 6.754237723008011 0.431710846487721 0.6662185947254461 1.9034475770036057
Ni 2.2824542463400905 5.170604139312704 2.6944253304722268 0.11569809959596848 0.7197744164647152 -0.6888646142597362
Ni 2.4273139754076385 5.2121283036576775 11.315896459153853 -0.07519036928990921 0.09017064474882536 0.04697816852175135
Ni 1.011946869834194 3.363692473840773 3.6483686137361047 0.4680557036653423 -0.19293918076731933 0.45543621512911886
Ni 3.568391861219441 2.326999336603432 2.8239172295161317 -0.05223324627310359 1.780967164378481 -0.782259422372814
Ni 0.9939208058961556 3.2695010890687053 8.222868093972682 0.45037474144581147 0.2695595976355358 -0.28241691321417817
Ni 3.5863998357807225 2.558742342233346 6.8547395868616485 0.3140360827813559 0.5520467019660169 1.131140123637181
Ni 4.130799629273212 6.9607288631544275 5.92912517206758 0.3510805371291631 -0.9063223489937102 -0.16351187664513775
Ni 0.8448697682340834 7.518523840135243 11.421150402281475 -0.4011995652727413 -1.3065225264676597 0.6176350293897879
P 9.319646905045033 5.703318195420373 7.895152804429003 -0.6667747243392323 -1.7391263170832951 -0.007906913551902511
P 8.284581811715794 1.5626779451915234 8.139310549327032 1.6910657141306424 0.6685372155562939 -0.7653801301189722
P 1.9311133262833415 3.126206091090611 10.242362497213843 -0.1661752824099138 1.1051920363128516 1.1495870174884588
P 4.107798986727085 6.225920289921055 3.7495587783753352 -0.830876154939253 -0.9044891524397132 -0.10404997383407887
P 6.9203443295451255 3.8167770934655074 10.382471955945086 0.0029138312126853042 1.0916191827244233 -0.7438234869941189
P 6.32022925564204 7.816383517810848 10.207732194350843 0.8332767939609454 -0.08063956532993853 -0.2782409274596176
P 2.489405761124966 8.45593343304351 5.88333553268338 -0.38467174282104716 0.7696563888968228 -0.3428486361376741
P 6.867577617545869 3.8568360182931904 1.3964175789519773 0.9105132471466061 0.9274102800122609 1.2127968173777242
Ni 5.149430523819001 2.876880211253197 0.6941961134769365 -0.7177435020776155 -0.5980275395715056 -1.0220708422116398
Ni 1.4669399187067584 1.0776565309028587 7.202497001382898 -0.15433535235219226 -0.821802474772759 -0.9170361358667884
Ni 6.784610691051326 0.8445685801110846 9.450013425455124 -0.7263613256536136 -0.5644191074884408 -1.0627636919453116
Ni 2.668119758792653 1.4704402131091774 9.198481546122233 0.6584579769434208 -0.15414843315236676 -0.12618537228053753
Ni 6.4783213638071055 2.091502785296505 2.7118463047577546 0.6871885121088939 0.200170665518752 -0.3356780865311638
Ni 4.145723365097478 7.017909383082316 10.314575289226537 0.5423729263216788 0.2103064684011733 -0.14555349239450419
Ni 8.1282986412264 6.94171692818315 0.2296084591726254 -0.2452055942712035 0.4900080395667174 0.07087194442021343
Ni 7.7217670326849985 3.9294920000364226 8.203951128229376 -0.07650446011564244 -0.242893144087943 -0.403982270224201
Ni 3.3038709049064106 8.403474240449118 12.417865112417699 -0.5111743892316875 -0.45775637862186325 0.41061700193189926
Ni 0.24521235556294343 4.924181604444738 10.091464534184915 -0.2046472132328669 -0.6410428667907669 0.4101572886866614
Ni 8.797379464014352 2.324267840713172 6.042017354530711 -0.9588183620098971 0.49645970872933204 -0.5742044690099789
Ni 3.622849929945447 2.735330838132123 11.736660789327415 0.09962973327919616 0.01584185212826304 -0.3776834844286721
Ni 1.209672802473159 3.2282573100634595 12.446154184258644 -0.14941040424674915 0.9276951582425313 0.4678268754839879
Ni 3.2513574441817483 8.431521819110362 7.962996107486119 -0.8553797965075719 -0.6490361694088888 1.006023044720158
Ni 5.604088919221567 7.882301206712215 3.690014881374187 0.3186699820089415 0.4853391733361383 0.29732494067426213
Ni 3.1375752643821886 8.466624254706712 3.6357395153534235 0.7327368901626541 -0.5427881594822266 -0.15322180757303935
Ni 3.3732074860147905 4.236930002704693 8.865418132340439 -0.20934590426011687 -1.0463801083809656 1.355004533228447
Ni 7.121651958781914 5.969711402227722 11.277745059105163 0.9906424484990293 -0.6424289485050162 -0.19559384478134703
Ni 0.46265480439785917 -0.07537843294511384 0.433795012720241 0.7427361674672112 0.10427108870594945 -0.2600971666710553
Ni 4.725750186112262 0.39527006704152523 1.7481863127690218 -0.10384479980180825 -1.2711821992951526 -0.654319529295015
Ni 5.905141371894728 5.580771712582198 0.31845714651960605 0.599484069512374 -0.4447825920700146 0.7662100822194352
Ni 7.963576776480008 8.979014896028243 11.342836063488749 -0.05905155474651765 -1.0295427251086529 0.39274500674748486
Ni 0.058804945960637414 4.889024900718117 5.814339936326863 0.6604688367258625 -0.046659608840068034 0.05303388779752802
Ni 7.922758097828545 8.987733975624966 2.3190273482667596 0.23838625735652494 -0.04086691341769091 0.682989900646514
P 8.673847110142937 1.6623413664324893 3.460364816635021 -1.275509365915597 0.06170724720180986 1.8009963151152142
P 1.849503103045549 3.3156109104215 1.499341610353336 0.021320872964963284 -0.45620343231244664 0.17013272439576504
P 4.693352112341036 1.141032662369911 8.022262332554053 0.2703175588474828 -0.2222325304147979 2.2698367194653812
P 8.539225968319675 1.7568131365442858 12.380812642006978 -0.03347396338772945 -1.7570165671001545 0.7784346493100851
P 6.377916278119115 7.668104896536287 1.6469825810972243 -0.6555220342435485 0.25169942952566327 -2.3037814518419424
P 1.7127926382068888 3.2172227902418804 6.025258451434479 0.08725064288855297 0.17758763801191352 -0.6628077692716843
P 6.596110340558271 4.068599307295344 6.089898125867985 1.1312969609300196 -1.0500904673530174 -0.6482201012654966
P 2.394237550008037 8.341074935326928 10.239543267846315 0.8093002285406902 1.2144988876704954 -0.22612775170414603
