# total energy = -340886.7847322837 ev
CRYSTAL
PRIMVEC
9.10131666307904 0.00000000000000 0.00000000000000

0.00000000000000 9.10131666307904 0.00000000000000

0.00000000000000 0.00000000000000 13.32069691160767

PRIMCOORD
 96 1
Ni 6.568620483969654 2.1350141730348438 11.290116914040064 0.3049567461879071 -1.0982333456068312 0.5584623756843737
Ni 4.608287882161446 0.503612257711386 5.8602012967885155 0.9787151009338242 -0.5938111874973129 0.15498918388610727
Ni 2.896266503600061 1.6165030599023145 4.6425689016051095 -0.4263051020911174 0.7191972038050065 -0.2701226692278574
Ni 3.7056010902373004 4.607304939958952 5.015882158927494 -0.8065350070907272 -0.3079094010583278 0.0034689323852069285
Ni 4.026022045617122 3.194962616041417 2.9405835449575277 -0.07189498636808908 -1.044407815145943 -0.6809268474698983
Ni 5.337767516162698 5.042502600113384 2.1962633039619464 0.11654707785982509 -0.2104530212813666 0.9157145888418875
Ni 4.993018741271138 4.581448099243333 11.00886347503464 0.7713923977513231 0.1013225476005868 2.221277836720071
Ni 5.777797975479395 8.067079466405733 12.18039224039438 -1.2087406450304794 0.37443103892964547 0.6455430686539656
Ni 2.1846072476773664 7.065461362063856 0.27396237420525377 -1.2771037069859104 -1.71139542682693 0.6037780689020376
Ni 2.912394036774322 1.7357758151216682 0.21977040423939365 -1.5324818709147414 2.077065945955126 1.5231724205883572
Ni 8.031220278648064 8.934198312706283 6.6033228943760545 1.5093964498501875 0.7875589802088565 0.6105434126503292
Ni 9.049703122816075 2.734253965205577 1.069813360166608 -1.270838957023121 -1.2332761682779987 0.9414256204547464
Ni 6.901482939264383 0.572445515836069 4.743926625052333 -0.468426970961832 1.2952608375109114 -1.3485055557676646
Ni 1.1083492451627366 7.353199489210736 2.680669963194593 -0.1123626074648323 -0.060726114235463154 -0.5743546214345979
Ni 7.650302871231383 3.9931935963171443 3.673475262585772 0.864739126235285 -0.10092119839711007 -0.4321211945522622
Ni 7.51675015012579 4.013107277234347 12.400862535887216 1.7459132580981416 0.31738443042829856 0.5630965320222754
Ni 8.129132243596542 7.655745458611862 8.684628377361264 1.1942277961262853 -1.4494866608684327 0.9111233699267792
Ni 7.065943731848414 0.901786671703528 0.05782248519340689 0.4502405298607924 -0.6825749245962824 0.47451508613744076
Ni 1.8121267608320961 6.742473835377521 8.980120826327823 -0.31769013459417544 1.0355195115173779 2.072296549590941
Ni 0.30885591226213893 4.929646273160314 1.7883031542649706 0.9183360856251346 0.7983501572870896 -0.24901314094275181
Ni 6.414553395045335 2.1130253919123745 6.904130512289436 0.9831533392108358 -0.6016440532781703 -0.11303366538992791
Ni 3.792700690958339 4.52491071996652 -0.0028305094905165186 -0.34200891384519805 0.2918047821869813 0.3728187001372031
Ni 6.012102272340672 5.719322015747663 4.739956630712258 0.7876715945273208 -0.17039060604284204 0.12046852440141832
Ni 5.477381714183673 2.8502593477333056 9.3890930424407 -0.9749126964685983 0.7691804777016689 -1.5609326700562665
P 0.3446914365964146 5.771390648529801 12.710462935854578 0.37025736716793006 -1.4750431691812982 -0.3857901726962066
P 4.007346143769727 6.656166049208492 12.55690188013821 0.528445003386677 -1.673457514130576 0.15541238746645494
P 2.5231125193197483 8.867585775853902 1.4336266631282162 1.0150134211442259 -0.09855295527524961 0.48034737654850174
P 6.521958033301236 7.765088677322684 5.924793341335768 -1.9685628214457 -0.8400567929972566 -2.0909157073540245
P 4.6581266923545925 1.338721773214036 12.264112522228508 1.7597391082376401 0.6558354517189092 1.4367429880495193
P 4.262474253217183 6.3153581444436 8.238237917941762 -1.1667604439439518 -0.8455792654773825 -0.32817586461684767
P 4.998534139185135 1.287299333916871 3.5684815631209887 -0.13332429731816395 -0.9081426900319004 0.1483786205481251
P 0.21202245334139774 5.81497685415708 4.029391353055672 0.07787640076250459 -0.5319535307605677 -1.1044297042255302
Ni 0.6838902285705568 -0.09947830155078648 4.5243218647766925 0.3128042672567839 0.2873025234412536 0.07667826668934537
Ni 2.2415177809384588 6.423554597251511 4.734295611731225 -1.6353429666470418 0.6733197245466017 0.034776484249236884
Ni 6.119379492162917 5.715408449571064 9.198673474394127 0.6196132361620813 0.4750138801507303 0.40705628116383447
Ni 8.801819661453669 2.0423809717664283 9.965826188569318 0.36978582684815026 0.9131979930676208 0.04897308746459308
Ni 2.322237358659973 5.388580167241649 7.35033348458513 0.4828408323943168 -1.5945740122597958 -2.7729614989197144
Ni 0.8888755438474293 9.178950921127408 8.72811992929497 -0.4381753711661422 -1.1902029912376082 0.8828576902128665
Ni 1.5083885189446111 0.7730594687068478 11.193341703546137 -0.47542988464222635 1.684958315681324 -0.036863962905884895
Ni 4.372427260146219 7.384826564707665 1.5416838657907739 0.02798517235901632 -0.2953369637099559 -0.7890579333518862
Ni 5.908383667344125 7.883660631156925 8.007150936530316 -2.2234463051262994 0.6220465281939224 -1.4856353428748479
Ni 5.307305409202059 3.0057098367944697 4.947053451461155 -0.01695179736299016 -1.0497744787744954 -0.5264228307503257
Ni 0.692741259051352 7.414369438682638 6.6042284753866864 0.6736179725133108 -0.8611030721445945 0.10136548502338026
Ni 5.290877532577036 4.688870940132614 7.01783599208966 -1.6042531872207726 -1.0509412453890867 0.41366144518517795
Ni 0.7080360217484999 7.572013345066035 11.496706791449343 1.1644803896605236 -0.5270486372597827 -1.0598349483342908
Ni 4.601716731511437 0.7215787809828684 10.259561173283084 -0.03709844751419417 -1.9088715762326545 -0.4334198587590278
Ni 7.942673568573353 7.491876251612666 4.26138391547775 1.8130733008844064 -0.25545195458956005 1.6063563496067046
Ni 7.1769888967802205 5.955300954879856 6.933329356493536 2.2154149501813913 0.8060884064716117 -0.11209701250827145
Ni 3.0041171063737613 5.306677418350465 2.5915152851650056 -1.593460981701275 0.6573665436514549 -1.0419400703317412
Ni 2.1267410761638486 5.276015082422652 11.486823671655928 1.9963533612954074 1.427065355750439 -0.24011532423248966
Ni 1.515915307847046 3.6298963380118456 3.6956806550454577 -0.9276259955674927 0.2444499470521016 0.2979296641377966
Ni 1.4873826800246366 1.375227154456678 2.471055718249307 0.8447482849356548 0.04745510815816988 -0.11386593148323615
Ni 1.0229151853959246 3.206230046103344 7.9076316790544245 -0.3378704661967923 0.6079836223429529 0.8015447529649872
Ni 3.615589068175537 2.8695086325321557 6.909018829483507 0.7266976259471098 0.39881178176685506 0.325249177888356
Ni 4.0682794590076945 6.813573321357955 6.130264666923875 1.5065726072481473 0.28719916509416993 -0.3306130133034306
Ni 0.7885125943143977 0.12981663060444487 0.16591154246437884 0.022849393794347743 1.381571227973382 -0.12878810001070723
P 0.18434989994617115 5.559293564391547 8.09839800726688 -0.7427443949973274 0.4355767572010305 -0.5908402777944469
P 8.71015119975437 1.4522242936520795 7.726003982930162 -1.5256010846345078 2.039603430233294 0.8570864947860337
P 1.6137817662120753 3.410509099205091 10.186203650631919 -0.326190972976335 0.07691352262860301 -0.31193189195415955
P 4.265768929858878 6.499923745595318 3.8295937882919655 -0.625955119219709 -0.6487482058548247 -0.9355077123084147
P 7.114171608987472 4.055137157707676 10.315654408305434 -0.18837701531793366 0.5414987512468417 -0.4286486626226295
P 6.323139770213347 7.881849469135663 10.067343185058611 1.1760794073520326 0.13105632721959365 1.3813557695284662
P 2.5965237397393826 8.527251139556878 5.662441516831646 -1.2399972890519162 0.13549533682755374 0.037021828639987854
P 7.063504578975557 4.081121416856951 1.2826522016150776 2.0509944456790548 0.536175025041083 1.756090198631143
Ni 5.684254642542004 2.8855906591229683 0.3563647853827055 -1.8994320280863095 -0.14351743580108187 -0.7956566696153266
Ni 1.5173442145673388 1.0765037380652533 6.739606920620245 1.1148547562135962 -0.05741119092961726 -0.9092377228682922
Ni 6.917719688238921 0.7186900230655373 9.061776929536714 -0.21044942173694078 0.6399699454415624 -0.011711632009973378
Ni 2.86896255353077 1.7569818830088175 8.958115662835313 -0.843274785713922 -0.07122315711204508 0.5875436093210462
Ni 6.816349222948333 1.7304515448581563 2.2911063049226366 -0.18392797840764452 1.1603591684032983 0.8949722140882136
Ni 4.0960202722780945 6.942074811700729 10.361917311171172 0.16823679292463284 0.7276293937327598 0.01496099218520649
Ni 8.534750624509243 7.432699490495822 0.26189857893297197 -0.38605962430750934 -0.5010648116015112 0.2736975310633093
Ni 7.480090046499422 3.880792335198562 8.14179672577035 1.5085559562267632 -0.23591259900505174 0.39324740030520017
Ni 3.2571974195660207 8.866657441551546 12.50601641852574 0.7667389581397117 -1.840396671289708 -1.0802654482745009
Ni 0.08509731104929083 5.288820635005148 10.36339536500159 -0.44952679162321935 -1.302962577030543 -1.1146092158616931
Ni 8.984455783467158 2.223943138410525 5.345023085827778 -0.7777257961685186 0.5774785117755603 1.4387754450985157
Ni 3.250034683331177 2.759819563787123 11.395763177911505 0.6119860586341267 0.8326802980275273 -0.4564991091759944
Ni 1.0783057987698266 3.5601620495348762 12.557474352957993 0.16616294111473964 -0.2866744029389514 -0.1784715832787636
Ni 3.3643927275380583 8.451327955730868 7.661038784398629 -0.32507459998370464 0.6219506260460063 2.229048481804426
Ni 5.940975482410169 7.725015579937653 3.392528537952794 -1.231553529159937 1.8258691670974943 -1.1304652090573435
Ni 3.3701265570526093 8.552825839455114 3.6604476378760444 0.39198755975617006 0.20103147085715056 -1.43203761215405
Ni 3.3863997112939073 4.5872183340246435 9.404798274520559 -0.28258532047124235 -0.654955105996485 -0.7207761182563522
Ni 7.4786338358290605 6.4535616383776615 11.370200309724964 -0.46484593847879296 -0.2434302475383356 0.1106962755060029
Ni 8.38542532158029 8.965206498668307 2.2250489483883316 -0.22990264536554597 -0.36531236445782894 0.0202320107761587
Ni 4.824935624644582 0.7628159367725188 1.2656664142769716 0.11086571120433164 -1.0633650729747364 0.6243731194445699
Ni 6.276085962927269 5.797493224796043 13.493466503176661 -0.8304552653517504 1.2841166479686337 -0.8744044172391908
Ni 7.945795320197942 -0.17209406689173534 11.48056287590504 0.20644390012197353 0.6237557975755451 -1.320797805439751
Ni 0.21699086212233978 4.656852508018026 5.966220714644236 -0.7302123239685876 0.7174989901669773 -0.37893869699201194
Ni 7.542215634223749 6.27951715931931 2.3238892476391655 0.07656796636372619 -0.6058076977375566 -0.14977987177102592
P 8.696062361518615 1.7049132502266793 3.388359224777213 -0.7181746760777631 -0.13364388544111178 -0.8654104412706967
P 2.270560082495495 3.475838350404215 1.551394970698752 -0.557161140374447 -0.27827178069755304 -0.8338437222080091
P 4.745617649693291 1.2889648748710976 7.982360770130738 0.3766149339548417 -0.985837056690586 0.11117090114957627
P 8.825164538762913 1.8209004301210283 12.301277748931158 -0.8810959703267537 -0.5402772201349146 -0.03632094591822132
P 6.6469282127683815 7.919474312331145 1.0607448082169273 -1.4648099214890644 0.8299996658715706 0.9089721279117313
P 1.866825674137576 3.2236954728310008 5.8414853491476855 0.38271898997005055 0.13193847271423081 -0.5134966096069608
P 6.977187691489838 3.9731798009163537 5.773776103634188 1.4740460953753516 0.2345218893051122 0.7401609505408672
P 2.5203366177293707 8.532802942737634 9.93763941078112 0.7464257005036564 0.28827080089179385 0.9901583097737592
