# total energy = -340876.7044140448 ev
CRYSTAL
PRIMVEC
9.15480787098965 0.00000000000000 0.00000000000000
0.00000000000000 9.15480787098965 0.00000000000000
0.00000000000000 0.00000000000000 13.39898670135448
PRIMCOORD
 96 1
Ni 4.952806077781109 7.589427412156829 10.09463605454113 0.13094576978365838 -0.3928666199270137 0.23437122265986088
Ni 5.443860826168559 1.1827279601348175 13.112650353732015 0.9364068270839162 0.9284088964801043 2.207764889835301
Ni 6.188714317812694 6.189776275545183 6.588107466193535 -0.8848739493119471 -0.8551681947173981 -1.7564038732168203
Ni 6.657815836523359 2.378904333278475 8.064555540999367 -0.5771491534605996 -0.06776476624979942 0.7608477894662574
Ni 1.119330914466869 5.855882116757974 11.992186989510758 0.8338671192467767 1.3992694165840933 0.17317382521493402
Ni 4.777720374041108 1.5070095704813988 6.784041414280053 2.4121385376918068 0.8497277404281172 -1.1865119155392665
Ni 7.819469428553105 4.679947024187867 0.31568433011744457 0.33012630347499916 0.20604846445576774 0.7849791352968223
Ni 7.481272509987711 8.57328547726712 10.081933758387445 -0.6854843849335936 0.11145655071079513 -0.5468854694800518
Ni 2.485530382505132 8.362550951024447 10.111665828454708 -0.2532433769740155 -0.3548965684411436 1.0644454505231087
Ni 6.547784198706308 2.894054536423765 1.5349079324985113 -1.0319055689138743 0.607632152540805 -1.074163449141821
Ni 8.15632974514485 4.982312024089817 4.6907844859440715 0.5093005692477421 1.2595420439530631 -0.213966947971896
Ni 1.776902466270105 8.132774424061294 5.986439749678578 0.02370300004389466 -1.309055063081526 0.46493361309659287
Ni 4.6143528245906325 3.089042792839886 3.068890313904311 0.0065761105556209325 0.6475585564220977 0.06844173771216601
Ni 0.5977348109815352 8.828375048457259 8.719819165696048 -0.4093553616106563 2.1222291727553255 -0.339145476254474
Ni 8.983384258168408 8.721364497292978 1.382788895685178 -1.0270713807500247 -0.6588703818904911 -2.527507536083131
Ni 4.337950860286415 5.070381277422043 4.799450226401749 -0.8617432768317546 1.1666244325867199 0.06325453708427171
Ni 3.528043302719328 6.412155717613072 6.559018063650589 -0.34307412188491887 0.7630293704986085 -0.4538619286634635
Ni 1.6708348603338088 7.824980622992399 -0.11099655458432861 1.0024340418173188 -0.02573931374763309 0.4290682666585514
Ni 7.387600514135805 1.5439309113014472 4.848208734015827 -2.688064700975319 -0.7898549753318849 -1.8218980982648882
Ni 3.6983227322390166 5.591070139430742 2.5048195630426577 0.23526570944967223 -1.0418115151736766 -0.28570406860588216
Ni 5.901308274245968 3.55961823564478 5.381154053026728 0.8588975798528434 -0.5854931545499207 0.340807180227613
Ni 1.2392588997737464 3.8024952929113036 -0.25782045042808205 -1.165343251881451 -1.3666526589903367 1.1222009121660221
Ni 6.137575560108556 7.910587232962217 12.440664556671857 -1.5800513931635884 0.22577885300515954 -1.022753470100961
Ni 6.986867101858099 6.259526757991984 8.78086525665966 0.01456812762216201 -0.974158077690761 0.29265556022305084
P 7.782685409853637 0.4055186304395306 7.818013814074954 -0.1072276002311121 -0.10957681718957904 0.4737442694096873
P 0.5294069857039466 5.750061690638723 0.9650852157461471 1.9331577024735287 0.9178563177752385 -1.6682615717519333
P 2.52770658313939 3.5884650357747017 2.9187551239929626 -1.0703253063426534 0.21811876535674046 0.5510835667217993
P 2.366801677051323 2.3423766492040903 11.772778282651425 -0.2896872216233463 -0.7049990579277535 0.1878550813761926
P 6.752531480491676 8.853642318644054 0.9837692634723155 -0.15459426244053376 -0.456180292383995 -0.5112196406473261
P 3.3456245977403327 8.051113536356153 8.193976146761564 1.020769606901713 -0.011094053030632507 -1.1197187691741168
P 7.058741499769877 4.389437500696024 7.414061571290842 -0.2886942615824576 0.7530012968386451 -0.04752992726016331
P 4.318780692253392 2.9137556833230325 8.82008445429742 0.38555594519821346 -0.46553473701570147 0.17518391366642733
Ni 4.018210034727025 7.521828309599121 0.8054198706665192 -0.057244840555082055 1.547745481942031 -0.5456279429238667
Ni 3.768036595453663 5.768151591323179 8.765497080405106 -1.0787536396156647 1.085870453166104 1.8257385550569007
Ni 9.386699326313027 4.156209611102283 2.431982994806013 0.09348711071656803 -0.7996915018063324 -1.5402188345476828
Ni 6.183413683958292 5.1305283662362555 3.1809460797787166 -1.0011276643010694 -0.4803286074954244 -1.3393629700364482
Ni 6.579523918176457 3.3019927826279223 12.27416880931456 -0.4201629937491215 -1.1202059932231805 -0.7845795858655584
Ni 5.361321076891704 5.558259307420067 12.13573071763425 -0.3194058317337015 -0.14324952685167588 0.2129462200168655
Ni 1.0291102812455502 1.0488388925689334 12.952506212191963 0.35030226420224186 0.5706468335657076 0.24023076676443142
Ni 3.5343875846901422 2.9676042642066243 5.292144600908929 -0.8884986905487279 -0.9611446961502286 -0.9251505374438067
Ni 8.435853498990262 1.8709772736757135 2.261319978829503 0.2118560722764803 -0.7880660017522622 0.8670315218138874
Ni 9.152070751089365 6.695121679281033 9.923477763449728 -0.17252127923259963 -0.004209410095657267 1.155171967775404
Ni 1.436279523574457 6.823609410104088 8.12801300840037 2.723801492255296 -1.4328169135222355 -0.3068189962076264
Ni 8.210571982774105 6.159949910955121 2.381817393196387 -0.44298539096027584 1.4861881300545243 0.3401417787294723
Ni 1.473704378836634 5.526071002356022 3.8569517530486648 0.8731923992089606 -0.06575802023241577 1.4019053115450437
Ni 6.91688774921033 8.27385917074559 5.560726528186494 -0.0014914969438619475 2.243077963314298 1.055472557600537
Ni 6.931370655527543 9.07105985475497 3.1361799839503117 1.7888378253758097 -0.6094028712879828 0.5102953290608437
Ni 8.283984388436384 7.170292835721351 13.0782685566619 0.9134209077117044 -1.0906470486191409 -0.3159045034486624
Ni 0.565062216572244 2.8360954467308 4.235795103825052 1.2691484566945754 -0.6777577057132973 0.7654153542322817
Ni 2.787227081420257 1.0178224029338416 7.359541027497212 -2.264776017113022 -1.0605011211633801 0.21771844459452827
Ni 4.658753643578292 0.736599516716449 9.102480986905373 0.014686398367581156 -0.4219861630007894 0.4169714833950174
Ni 0.09192342751651575 4.796451111288273 8.056194454817627 -0.8348158563132912 0.90381860873525 -0.2487398326767071
Ni 5.409200722934068 4.54852975479243 9.932267294647678 0.6587215150174527 -0.7728723247309592 0.06732125095447761
Ni 2.44484641558118 1.828032069166205 9.509461640188682 -0.6911032737822678 -1.3789145070768252 1.6434211156694856
Ni 1.6187623122097234 1.8011535527646028 1.7931064764985916 0.5648435966203692 -0.08796283846422916 1.0823431567391362
Ni -0.19652260224340573 0.5182335424927219 5.953451314391952 1.7105837295589121 -0.4410670908916404 0.8076958601680476
P 5.73649426512538 0.7227537850387298 11.114740751119019 1.3272250491223336 -1.4961041036166558 -1.3696117416186606
P 7.021701146445326 6.433980779977317 10.908624825531867 0.0506252783560354 -0.1294252193740739 0.4480070125445833
P 0.41324162650097196 0.11457150712343821 3.1561447893210937 1.7579925578601787 1.382459029894974 3.457786910113071
P 0.44099076514705415 6.268342838133246 6.177951010001603 2.387262086165101 -2.325248620576782 -2.4368584090359904
P 7.6336725994078325 2.8240111001197254 10.20583401490231 0.47148812638565896 -0.11991496589079348 0.6216845168688131
P 1.7064928376445176 5.107485714402865 9.944607975883835 -0.29098022940315693 1.4198166446078258 -0.9500390731553703
P 1.1336032601991912 2.4736657512869855 6.578929771134746 0.5957148322779289 -0.9173361836057106 -0.9777709918529999
P 8.479000109276623 2.4616912623723755 0.08309544612480416 -0.6132027046500472 0.09244015750929241 0.42861292428868764
Ni 8.455884218978921 4.662479650450041 11.424204389174172 -3.317200531915855 1.650671626584312 -0.2554792082830697
Ni 8.210205790452559 3.1431660179646386 6.021558508795808 1.2677191804472168 0.4265907516523363 3.000013562210343
Ni 4.3913874748082655 4.29896968765766 7.191852408652473 1.5043151786725382 -0.9391280826698213 -0.7273342310898442
Ni 3.0707697959946545 4.440658651672511 11.624894260036791 0.7485486603839302 0.00393713027087709 -1.6501370942370805
Ni 2.3040637775621606 3.7490495235814145 8.31684465641047 -0.23382126369366182 -0.4405811523941573 2.2667238848680125
Ni -0.0844567660801578 2.5006083513448587 8.408882519027468 0.48450407902935266 -1.5047391535838344 0.47758395487075167
Ni 8.993765810484287 7.478645080080606 4.270511966869383 0.2139813461495992 0.31350746397139556 0.5151976514584676
Ni 5.970390455705946 8.160669124155191 7.809010060368899 -0.2915119335369109 1.5988466714932208 0.327346683847333
Ni 0.7262985267113117 3.3176932784142807 10.663048015374732 1.8151011299477127 -1.2077674824839328 -1.0594246002697496
Ni 3.7634775010503945 0.10451037308891467 12.036712313887747 -1.561805559579523 -0.6086958179186291 0.1122790466120905
Ni 5.1225728380506315 0.9359417998357722 2.139281810269707 0.5644471325128989 0.27157714228619684 -0.5614266005190202
Ni 8.514859492364181 7.441934299845448 7.312590594470775 -2.8130678800222975 1.2265285651415199 0.8540631345786774
Ni 4.488309427513907 8.452780739053805 5.8561347894598414 -0.6698106829520787 0.3122630500413332 -0.6982020896105782
Ni 3.4765383526936415 2.7247546713642166 0.5097067542854833 0.909735488440317 0.42007249091784427 -0.08940831266150409
Ni 9.39640342283404 1.0028451369825402 10.609934565576648 -0.28379193918483386 1.086406271064916 -0.914861753923289
Ni 1.990337660884192 4.435074218768908 6.368726223758317 -1.0204615887429909 2.258387854198491 -3.3577550562994496
Ni 3.037876570711631 5.533468087251286 0.2411339818159564 -0.2706194063586178 -0.22204946786971436 0.09553062350915806
Ni 2.1574586816305317 0.9484106483844719 5.0047898242672195 -0.7894569685625179 0.9875972339148025 -0.5965344999657469
Ni 1.88297922701444 7.336324434311086 2.2570455989562372 -0.5918255245258517 -0.09432426190588271 0.3941303171307857
Ni 7.771763723863477 0.437889116183545 12.35184277811885 0.30192053046474454 1.1328326808482554 0.7992410445324751
Ni 6.176291243304187 6.4937616764699815 0.9485974064684612 0.08342998359088212 -0.5805160130503034 0.5180590321666626
Ni 4.361762515995055 2.3785839149971206 11.026508542203706 0.7197191377467476 0.8896934821877773 0.1799293987712127
Ni 5.158725174995429 7.54641812399105 2.934364987179738 0.5166657513635619 -0.48200830919069243 0.4498695196746188
Ni 3.351941415287031 9.165519164098203 3.2199638716396257 -1.4663379280978166 -1.2194379768433257 -0.14390335838559087
P 0.5187727606862009 8.354119372820811 11.608520885859589 -0.8094856050786188 -0.8702587705019335 -0.8293674316042104
P 6.834759966295216 6.762601769334238 4.289792908079674 0.11191292152192339 -0.3813226238431562 -0.9270652379680163
P 3.493584605261688 7.024237028272044 4.2293235700225 -1.506486218181928 0.36845219563839127 0.586139786994984
P 3.656109912372604 7.061671038342259 11.84132765428355 -0.29724420803499774 -0.6547355337865112 0.870101676098779
P 3.3029723470880623 0.4599641048072452 0.9748460720770016 -0.8870521879101884 0.39556679246699616 -0.6983085332814554
P 5.159137141357172 4.446462799969042 0.8398575120656705 -0.349284878681321 0.6287157126839817 -0.2886819202872835
P 7.20195931672719 3.2948337227416644 3.5941043975265363 1.291667720843014 -0.8393235143756577 -0.11076132441598342
P 4.707576234848641 1.151949495508732 4.453890095730833 0.7236531826938312 0.6592244227958001 0.8179347642872365
