# total energy = -340875.7527930388 ev
CRYSTAL
PRIMVEC
9.20395669484127 0.00000000000000 0.00000000000000

0.00000000000000 9.20395669484127 0.00000000000000

0.00000000000000 0.00000000000000 13.47092097309912

PRIMCOORD
 96 1
Ni 6.580000491566603 8.322861681203133 5.011653679013195 -0.2112860587056232 -1.4051564714924898 0.6113615376762503
Ni 5.28146950255794 6.611091456388065 6.84617799113446 0.43422821359293606 -1.2525915807771588 -1.9799934318801446
Ni 0.7943253702192944 6.911674265487926 4.883113984694929 -0.7995423778229779 -1.4489901808479884 0.4487086665972982
Ni 8.3073161987924 3.1035004766366754 5.711171855231175 -1.2235131753539639 0.16356124182583442 2.1500513371739163
Ni 1.8024383996096884 0.11201214975642465 9.284104482868003 0.717426485057829 0.5883936160261674 0.466653424001177
Ni 6.855999533041204 4.308215537751563 10.655511478495924 -0.41639169963214745 -0.8808072354417412 0.19058842114695565
Ni 0.2521617147158375 8.033489291035343 11.284145384266155 -0.49078476983174185 2.084847646783074 1.2280110632243173
Ni 2.8974699119450102 4.619566975874844 2.0876690093838546 1.3222219394807875 -0.8372879720028678 -2.4285727719884305
Ni 3.217242970201992 1.010244665699645 5.483809280721065 2.6035198870537033 -1.0235841935323726 -0.20096950727096358
Ni 5.000297837569525 1.0126837141536675 12.065660687925796 0.10620841493797838 0.05582430605847161 -0.005050417939713882
Ni 7.361664899320413 4.361064655574191 7.6921246713885845 2.4827448871554596 1.8755953306780278 0.44564931094568416
Ni 1.3871282736064716 2.1910478480086826 5.746694525073815 -2.5019777672431425 0.46341049158384706 -1.0102993034980083
Ni 8.627540250914466 8.199022447433807 6.416266708650258 -1.8037664216611842 0.34530635364954726 -0.6027797095445103
Ni 3.937986390343824 7.7855347048037835 4.3337160194372775 0.44980909875032854 1.2528836580962812 -1.168636320810426
Ni 1.1077513801219594 6.314015354688138 1.4349759615048898 0.27404283021786996 -1.9718672032285847 -1.078326065159943
Ni 7.657286775904358 0.755633778177712 12.489685119877196 0.4147284529971116 -0.05941330896131058 -0.6794757168456684
Ni 8.042941754289235 3.057858056698951 0.8917372838903768 1.0479937327249886 -0.45464534379670735 0.893181697846694
Ni 7.549517650062288 5.951296635727501 5.925682945377694 0.42493470410615203 -0.020724377031544953 -1.1606571592596915
Ni 1.3947123337050167 -0.21894739714591063 6.8231561349154175 1.9250121905482591 0.643342461458221 1.0675613704442712
Ni 6.690595232032765 9.240588176865673 7.803744732601079 0.2737587233185479 -0.808028560917118 -0.9851166335847937
Ni 3.3832823442041193 6.717903370761385 10.726745499288024 -1.2700167182321418 -0.427080032583929 -0.975949879483861
Ni 1.1649723772489677 1.7175042896711274 2.0251235234619327 -0.13887145238863824 0.33549810930987384 -0.09777622501022516
Ni 5.604482353478378 3.567186597637408 6.208275701238944 0.12167205779121626 1.003560185001962 -1.4088375198885028
Ni 7.278866107273675 0.5153368836961398 3.2281717480672976 1.1757636758838268 1.222595548635701 0.055534028511562424
P 2.1100898472479996 7.29789988917148 8.560136916788645 -1.0151198648151032 -0.056978217157256705 -0.8341656243238021
P 2.024925638398682 1.8122498171643595 7.813821224100942 -0.9752885917507784 -1.5601960490005582 2.4436890588045785
P 7.329966473374552 6.6483122561920895 3.680848096386138 1.5676581617055583 0.7006132701552321 0.31098855420428373
P 3.866370405359868 4.996984413254626 5.856010835991812 0.049946764231772044 0.522200822249178 -0.17436038932386747
P 0.5803996517017409 4.105139443074015 2.0272385926496095 -1.1334042370810093 0.527981176376381 0.25746332859263404
P 1.8747722931952056 7.484813836357468 2.9171682194970807 0.1987133642469352 1.178823288645757 2.447982801083926
P 1.880451134312684 7.081450445800745 12.668255680559142 -0.31000227903161454 -0.3134233888980215 -0.18160370114984206
P 8.81067137200761 0.7972025269993979 4.923406144759737 -0.8150983232797059 0.1468632123448632 0.537540537930042
Ni 6.139489932857297 1.2036197902996848 9.72685344378115 -1.3124982844351203 -0.7492953087419677 1.5469021601051294
Ni 8.830910872197782 8.21904105266965 8.959617158127436 0.25591758137206894 0.5145301930777977 -0.34483069956470935
Ni 3.030945688096832 5.3025005430011145 8.148586606987195 -0.6425536470083385 0.6444534351342127 -1.3171800061815058
Ni 8.618686044828543 2.6912092483425885 3.580516687735373 -0.11821109582580931 -0.7283030227610167 -1.9125636803722608
Ni 5.492194085029044 3.6572381073512013 8.597626472120433 -2.5453597337732035 0.9876877367460796 2.055209769311983
Ni 3.4097161070718642 5.394153541133774 13.118871263033242 -0.1851813911987714 0.4549369068951971 1.130352337628563
Ni 5.873357532675948 7.918246552571892 2.6772643339550815 -0.5495907842263568 0.1486241609000279 -1.3139208758142595
Ni 1.5021040973334443 3.653326425868335 0.22315636642147452 1.1144894024543774 -0.8260437665476161 -0.3375637335896509
Ni 1.4869543850492146 -0.16540614179972543 4.500782554977024 0.18144994918079718 0.8520977833221904 -1.9828599547946626
Ni 1.9961724785105086 8.749750384395632 0.8307168935489516 1.0991021213650296 0.044843381566935674 0.7207627485199135
Ni 5.510463938543136 6.025314853339759 11.719525657661226 -0.5371314754170814 0.34125069552293485 -0.7840879909411206
Ni 6.225381254264606 1.3420841108367145 5.509606129803835 0.4599433589708531 0.6272802657890358 0.60199937973506
Ni 4.231528172774527 8.13177834175423 8.241252960722829 -1.9183337500868187 2.1831404064184015 0.7534882637773926
Ni 6.333187195932396 1.3087197687769745 0.9618290936894792 -0.8391533073463806 -1.868343019990989 0.9195797282242485
Ni 5.405511223368732 5.912722854328226 4.12789438455658 -1.4242991058592116 -0.9781502295692897 0.818577540077558
Ni 5.34178302904552 3.3564159953841526 1.5247872479558524 -0.17063794616695774 0.6778196692994842 0.7099142358411838
Ni 5.540800178937317 6.641381677000093 9.146553194808856 0.5447460545395457 -2.0189027073508323 1.8522684830266294
Ni 3.381303493571611 1.9126189620364886 0.7165896746048502 0.08697502062966311 -0.780385859499185 -0.10345553478318958
Ni 6.634018511855875 4.5478405434137255 13.04421613163601 -0.23822839162242196 2.9993342767551314 1.3498890663787526
Ni -0.28398991644736515 7.92221345779334 2.7141077715454647 -0.3480502349432716 0.27929122310100285 0.024736583514731594
Ni 2.74415960968595 5.679927184337327 4.001106203146994 0.9225910042467466 1.1858115470381319 1.9059718860873562
Ni 4.082221591562635 3.6235240149471104 11.708224119560494 1.2256867859665148 0.25519587271469596 0.06810980829404399
Ni 1.2857466935270125 2.6615080809420966 9.896532982551452 0.5755054472095895 -1.5284763492997742 0.6135911983377175
Ni 2.6606705209069417 9.2988492210693 11.921441133432916 -0.47109449049166613 0.2854780686380051 -1.457601319555767
P 2.9436645692685515 1.6177518098798267 3.258966345491706 -1.086428382552103 0.40127644125726375 0.4887458850248421
P 4.3161401442380285 8.7065378089555 10.357225056525415 1.0685977821285855 1.2966487189973734 1.0834394751271081
P 4.352412936529735 -0.11997725365118307 1.271949962838033 0.425620417319267 0.45977289483125977 -0.3132148724316412
P 7.489213327531138 6.780987288134478 12.37042761561886 0.24940806238832527 0.06289355420042718 0.0231952071695407
P 0.4213212299478283 4.744280585505045 5.293990564885684 0.1779249667466742 0.25465285572703245 1.1956095069651602
P 4.756650702947333 8.767366757003176 6.210175397846152 0.3671710149331225 0.3929990317398199 -0.4001060750982464
P 5.097924203425433 5.468365041831067 1.2604937982692719 0.05390857709299748 -0.024587716641693142 -0.13266686623982313
P 6.406064122947299 2.6564551088618766 12.769799250271772 -0.6116919244324756 -3.121574548344992 -1.2869075804502095
Ni 7.362999473002802 6.413307636657924 1.194960708090084 -1.1428306726012318 0.19789189678690436 0.8417251818386149
Ni 3.2615876322830477 3.0128138939291937 6.883465059424782 1.9281826178564407 3.1684730126687435 -0.8362842133287016
Ni 1.7176331450611515 3.6828066983145002 3.784197482350389 -0.9589723710892581 -1.4888340523178036 1.1476468630429524
Ni 4.04363860620693 7.698253585975503 12.75137108870708 -0.821442777440495 0.21855353890131393 0.6877816656082025
Ni 9.124857628711416 1.3378042710966376 7.705447398321404 -1.5433512095290773 -0.3877737787851386 -0.008805256996455802
Ni 4.087007648906377 3.2345372043344747 4.307057680032635 -0.2739317585613024 0.5551235411191279 -0.14501716027505993
Ni 6.734783426854507 8.09979459315903 10.73791358002052 -0.0013117768328880634 0.8966693992849782 0.45387966927527634
Ni 0.8406185098766396 1.3271092737246601 12.909614711612766 0.20747079872459107 -1.5017093656185752 1.4212808878581782
Ni 6.035291942110174 8.221590548600837 13.409291063442796 2.1339050664313572 0.27967226058950545 0.7846268941637261
Ni 0.8448992700123595 6.288225868770511 10.202188092040036 1.915066906410089 -0.7606505858537866 -2.235721780059543
Ni 4.764906651865288 1.4816713140582376 7.764638962520134 -0.33394721988298615 -1.4208602553809917 -1.5544817722246003
Ni 0.6601583769395593 3.667749025594573 7.833407243384563 -0.029405963965942906 0.7979673200263742 -0.7738683700956415
Ni 2.923314621601217 7.385650409777705 6.278985096514517 -0.6276314784808674 -1.8641894028339312 1.083538719709134
Ni 8.900050992901994 5.246236757342855 -0.17117518169022067 0.5776363775096632 0.10699234429185445 -0.9615259907490471
Ni 7.8855540993315625 6.123880022751553 9.681644530191292 -0.7820228808819758 -0.22371477138727922 -0.2146338921319336
Ni 9.080476150804639 7.913202784448103 0.15925881929994598 -1.1384173740248844 0.7434977282235841 0.007481138868393568
Ni 0.4892482691945304 6.092825873755812 7.432446085456142 -0.013036521468984002 0.49257914272800324 -0.16232351276399143
Ni 3.6462946031556065 7.018973989552051 1.886589252856033 1.1066681066377457 0.009508967931699754 -0.9533154299137968
Ni 7.212459561629254 4.644859448145234 3.019332135873113 -0.07353226486119595 -1.1628032590684168 -0.9267387078665329
Ni 3.7850074305162535 2.2417708518959185 9.674829000454674 -1.4304252733616074 -0.11792544626459045 0.9257709446366249
Ni 8.964165753395276 3.0518938929321338 12.036132554906194 -1.724148098506908 1.1394967231319921 -1.5446740421055591
Ni 1.62594333110277 4.6796319955388075 11.569459750043837 0.43985532997172627 -0.5361613981943283 -0.045959497449249875
Ni 4.956597452438587 0.9328301881646175 3.4412405782411932 -0.9271732243007903 -0.4384641060511545 -0.9129064299691311
Ni 7.900418488966454 2.527249968493702 9.384665070033883 1.404664619457736 1.1784993296474349 0.15835861457897243
P 9.07176000406517 4.205223265296806 10.005000688686577 0.021051678463976646 2.1552611635096297 0.20240906793096752
P 8.44377405682763 0.7558160165150315 10.347095182078256 -0.06682554226498169 -1.6044005114319142 0.8370501449604487
P 2.4227298392715193 2.2872568045743287 11.794626260549682 0.037982649891360395 0.2558155085765658 -0.15497992791472665
P 8.542017087764368 0.6634220998897341 1.409287719107997 -0.36631072381535623 -0.3954894022618414 -1.0150129069235938
P 4.147459234740412 4.892188165339536 9.810857954120255 1.457474821280232 -1.3709841964861549 2.178546873510448
P 7.269238768847609 7.121975465963239 7.860039811711203 0.5065746856761469 -1.028423781012861 -0.9398405353558136
P 6.137014068577554 2.7307954649491935 3.6872466868964637 1.4532237593133617 0.660065944860489 0.04850180425512937
P 6.783886534410014 2.3142243969150287 7.622829924216344 0.769046780337282 -1.870166703463289 -2.1502873644441225
