# total energy = -340867.34716771863 ev
CRYSTAL
PRIMVEC
9.34230071437519 0.00000000000000 0.00000000000000

0.00000000000000 9.34230071437519 0.00000000000000

0.00000000000000 0.00000000000000 13.67340142971366

PRIMCOORD
 96 1
Ni 1.8705808653620273 6.099307933340192 9.293510649376328 0.005285159658339284 -0.03022743142597375 0.7675048897714588
Ni 5.266834192282895 6.217076977418932 7.131390207849081 -0.1327889936399842 -0.390909753310959 0.5485168344358876
Ni 5.915703695415438 2.9146203506845265 3.2892737060538164 2.6707776317600973 -0.3179678137355943 1.5632482055633208
Ni 8.815572553112471 4.454530478686013 13.090490759012143 1.5146386720857334 0.2641898486831902 -0.07799312884602697
Ni 2.053447061522367 3.9491120045737023 7.794973834765854 -0.8406540602616231 0.5680353640847895 0.2820474456899013
Ni 8.253530393758114 1.6852296171847954 4.084176450151963 -0.14665880964354097 1.3014690232041521 1.8797234939137886
Ni 2.7298950366619255 4.204287609045119 1.8215431283820733 0.7277862310255983 -1.0989892499362492 -0.022226415498368172
Ni 8.98188419222795 3.2299323455045745 6.360332752352122 -1.0293087547209758 -1.3835733460050754 -1.1908689069563814
Ni 1.1995794515978384 8.608790066864747 0.4454792063108844 0.3122892752935783 0.03290652092003365 1.3669681333482264
Ni 9.23796599987846 7.289825353147108 10.820487296128997 -0.7981992335315221 -1.0770682814934418 -1.0929268457922532
Ni 3.6067540488931153 8.393337925460346 1.6199558956177842 -0.9142164070298062 -0.13028936714658207 -0.12212740016107998
Ni 6.833687515835951 8.19951321044356 5.587320887524585 -0.2825840349196617 0.05722761416390144 -0.09634257788749213
Ni 3.5830993432285614 6.5316602727753805 11.02230715218359 -2.2701627353462324 1.3452564527027475 2.4472497795726436
Ni 7.152932619299277 7.804427308960942 2.9332591750413 -0.3422788796771331 -0.5865100258502092 2.480875180936573
Ni 5.2798199904162795 8.142665309981945 9.79764829404685 -0.20932096455945243 -0.3172265646941956 -0.647411232210956
Ni 4.978670923632355 5.585668234510344 9.847652024931115 2.597571382779752 0.097899895072283 -2.308971994903946
Ni 4.773840978255046 1.161219964449869 7.242827974665234 0.7336367762691043 1.068579270185824 1.2578577142721048
Ni 7.6457950411157105 8.613592009483856 8.102707355164462 -1.2341423729330359 0.6074287782807474 -0.09419930629224421
Ni 1.5803809751337332 1.4952912993072096 0.46426563902054147 0.4560969886415694 1.6574531682825198 0.02198601735278794
Ni 1.8318009746773656 1.8263450710011808 9.176096612728573 2.17955885971473 0.8412798667710801 1.4267465389584395
Ni 0.6384500350331441 1.0567823836346837 7.524773942123136 -1.1802821325794706 0.0015179793064231922 -3.0293493350599827
Ni 4.942525561777631 5.651204474730267 0.9437452149189368 -1.017120697295216 0.7693056904256235 -0.9256393041547673
Ni 0.19015505925650275 8.197186977540529 6.50759544010503 -0.6746032192447156 0.07667209604175827 -1.6782107125448453
Ni 4.462873153314152 7.291058536854739 3.773298311298896 0.5604920045198928 0.7058765754367005 0.6434877287868337
P 9.258472350168228 1.81308834614415 10.340085635140122 0.4198490620531285 -0.10870881276232891 -0.12377470595651587
P 1.7056051752631494 8.004922426759913 7.985772578548538 0.17640518766803814 -0.1777403615396939 1.0985557619432564
P 6.056006369060885 6.070860627357346 5.10745267191227 -0.4455379821788005 -0.11283594755682502 -1.0847916182796287
P 0.6796131466558105 3.6415074079263463 0.9468917018335583 1.2510846572143293 -0.24562931207218344 0.6318884539850085
P 3.788387061345824 3.297047434562298 13.621005455804823 -0.5354144927259746 0.4054506272396114 0.8100962420794241
P 4.096253242416011 4.3832300388629974 8.41212248970984 -0.06498514662213326 0.26451149368866705 -1.1067341839889906
P 2.8695717761527417 6.222430115786148 2.7366214932490025 0.3830576042563919 1.059599178174401 -0.35236634582012216
P 1.7129762506064878 0.38555675465092554 2.5308376989584422 0.9002440040101141 -0.37609197157183616 -0.14543573586971725
Ni 3.1803434127765127 9.024214157222458 6.7635202971018415 -1.17587037666502 -0.9946227733030161 -0.7746001060553434
Ni 7.442796186698216 3.00590397195165 10.30964935331368 1.2279776388832206 -0.4400378782961777 -2.412881072284786
Ni 3.0186655548654655 8.892814696254073 12.466710004719317 0.5435633470853541 0.2724068372763438 0.1125577541947739
Ni 3.382436064014914 0.7704305871122464 4.296824967081668 0.7354964551856624 0.044736680785742305 -0.29355596055013317
Ni 6.054810554556515 1.8095756410375654 5.217305050280052 -0.5273422572408014 -1.4852805306385906 1.4131564589788306
Ni 5.4978132376424655 8.307743765389791 12.485278761819975 0.18443448573041787 -0.4299277864453692 -1.4415504367404914
Ni 3.6109767688616694 1.786537527226827 1.9913254322504665 -0.2922228435610064 -0.07834665553070377 0.6445243975814642
Ni 5.3567631799317885 3.3413579673296674 1.3186489439500793 0.07335640140496398 -0.7758229227188509 -3.061730836714482
Ni 4.178082455257965 3.426391589351299 6.352772028302231 0.4079474255195361 0.4756060052087745 -0.01651265294304253
Ni 4.876709052533246 5.1033812972169255 3.3220072596507615 -0.43133520831585714 -0.9186680150432565 0.7151166059777297
Ni 0.4957071524147185 4.058678508536534 10.104151433428072 -0.6966128907465874 -0.579451319231215 -0.870245657875811
Ni 5.071879058867448 3.1725986454005586 9.967157802731434 0.6254537541032582 -0.8666990781751331 -0.5457937790777697
Ni 6.301437953781856 1.157894105359592 9.503820788411941 0.01783240019573058 -2.0114009996571487 -1.2730912433924075
Ni 7.207566394467646 6.0957485167295316 13.461081147756822 -1.0777411391907503 0.407891118360304 1.4251568258738163
Ni 2.153120068921706 7.632968062096188 4.7932514766591705 -0.5704925673760304 -0.06570788372077072 0.10542808512852811
Ni 5.993282161386392 7.9106492692318655 1.0973616014563885 -0.6500918643669127 0.23365774153260402 -1.6141275089116913
Ni 0.7864087241967989 9.080183881407427 11.862072559027295 0.04790659387329169 0.37666918423154483 0.08917202828098192
Ni 4.789311828405323 4.600653405739445 11.886725956649014 0.8549923312611661 -0.44153168923288477 2.3749192483290327
Ni 0.36310253464114844 -0.12935162862965313 9.429560707690614 -0.3575980265327067 -0.9975548593481466 0.6643092935178753
Ni 1.807791261581827 1.7868084539504732 11.623157229125054 -0.09005700198909651 -2.084080429599746 -1.6765461803582287
Ni 7.026540631567937 6.051923783604562 11.206296292901937 -0.6715636610874435 1.1540329690749545 -0.9515817350521417
Ni 1.2095943980719308 0.7328409055514646 4.882840404558384 -1.5014149743066079 -0.40128749700085725 0.23782344287451945
Ni 8.708734000987732 5.751849081414406 1.8876408408810015 -1.7906252562935354 -2.0675073557324133 -1.6241576394541837
Ni 2.8376024227624947 6.328072853406518 7.146799398813976 0.06612491665353129 -0.2528955067162935 -1.0316541150247007
P 8.394113336428024 7.888339854884728 1.0938451594294778 -0.986027061214205 -0.7109753301158466 -1.5520009147842753
P 1.2138264603413 5.6245041789998975 11.414172762575143 0.8178139224386561 0.012278560257036917 0.6997424375145046
P 7.247448676648523 8.378838674594869 10.588066733753612 0.7250197240240546 0.34258509806364223 0.08832253579649305
P 6.589591880131581 4.7950106319027075 2.1868691306172834 2.589103197407741 1.440721513081293 -0.6223334633067218
P 9.04477656131712 7.956174301105235 4.306355982373523 0.1460042067786776 0.36453126331743024 1.6906581942795786
P 2.614723152209863 1.9792131392433203 6.962455250664643 -0.15488016911206873 -1.3848339578850537 -0.1400968401553071
P 9.068291132469444 4.6018865894470755 7.861850695152786 -0.1478893396165324 0.9850405289312197 2.134362979904382
P 5.300718717340295 -0.10950577900753146 4.047313599594618 1.6464485896418999 0.6611064703098614 -0.4014782728554247
Ni 3.008744031399527 5.264498617079049 4.82930902088623 1.1797118618982971 0.13002197241780833 0.9105469285980189
Ni 4.7908252811374155 0.7952129084852174 0.10646112317179761 0.2768982973887941 0.3987145940673585 -0.04920088720468301
Ni 9.14486997225315 6.7511669727336585 8.35072955990154 0.7950609450128566 0.2845892382751486 -0.24565296622126723
Ni 8.77727846207021 0.050144799626577245 2.5746605636232487 1.28345741711808 1.1357778795195086 -0.32730194665232665
Ni 9.013040765447258 1.819179526275781 12.530715041835599 -1.5804599414559168 0.5899689309330872 0.865207067010639
Ni 1.3386209146332084 2.5102388598906007 3.000491042859216 -0.2683138981538928 -0.06560195427052572 -0.10473542993687769
Ni 6.085425274328531 0.8448027754433608 2.0951482896719997 0.5547802988470961 -0.5839818601117168 1.0380427921598638
Ni 1.8192262377798576 5.987751519303684 0.6437461853653856 0.9992170775419178 0.35859021524264695 0.19136360875008335
Ni 8.43847058069947 2.3904331942341073 1.846538454213635 -0.5614268576293363 0.41973336241087067 -0.6496774025373134
Ni 6.685032825261551 2.8360983123312185 7.808934034874284 0.19204983618383054 0.08619494793052897 -0.7290910658799508
Ni 0.7240600770150847 7.335593284841678 2.573812282709212 2.145450090956479 1.8365474727469469 -0.26013727588037133
Ni 7.839068560384389 8.92652171759598 12.672152805030116 -0.056661971468418545 -0.4632356565688796 0.4005557610411553
Ni 2.922925656109403 4.03891020001118 10.406593474644847 -0.48971261981348563 0.1551236525814425 -0.9317652145468469
Ni 7.645832410318972 5.743011264843052 6.5290360204763385 -0.5392968584995164 0.17492603201935036 0.5161368754432853
Ni 1.9244392295627202 3.6830152504491007 12.513993257606142 -0.6842170881853958 2.6972689931824063 2.163832193008093
Ni 6.21641367406104 1.4479071495715785 11.781085087488806 1.1526430307059634 0.1109256179079896 1.4040719801790593
Ni 8.209388022405422 5.707164856614421 4.255422692558127 -1.9360445371030206 1.0178892000301245 -0.4219439969089443
Ni 4.027727465935165 2.1323241073066597 11.943853191905008 -0.31221419908126874 -0.5499150003349949 -1.6407515392571226
Ni 2.7253173092623864 8.420318490215177 9.996062881454236 -0.2738422841712897 1.365023865137662 -0.5458506004576341
Ni 7.226166915391077 5.6446088103546055 8.835710816750115 -0.5602158680403707 -1.008729130797411 0.4785584029688791
Ni 9.484584056802985 6.888461425516552 13.112860898314581 -1.214621529291289 -0.526857604294899 -1.183070493957885
Ni 1.7850988129012575 3.3106311399478674 5.384298677355053 0.3950147766182681 -0.5519189181389011 -0.9305303136984813
Ni 0.5449382750215511 5.595197381342036 5.921444539266492 1.6638025075393152 0.11277526952221868 0.9645840608490807
Ni 1.0976456074011762 5.327858101208988 3.5932329369230094 0.2554576110165149 -0.6293356056561679 -0.8185896242624161
P 6.9222525275657985 1.9735330203475663 0.3165199543154774 -0.4995188072706301 -0.9339146567896819 -0.9121399841167516
P 4.003904598855933 3.0261674224202193 4.039191403265723 -1.6904813023820822 0.37487866799002534 0.8051625522232326
P 5.403811006838065 8.395701527566638 7.448790206901368 0.04561856917006337 0.16003883049487275 0.2109523295152883
P 9.109640155878335 3.7766905007249623 4.04710806897668 -0.1876185398853543 -2.0293480710538727 1.0005946746157348
P 3.881744673393963 6.993851921014906 13.134450955498936 0.04257438302710087 -0.1903127988880658 0.9641194625078363
P 4.16702117109255 0.9085471623668935 9.81345546702648 -0.5114808647285126 0.24397994939421858 0.2904035309640805
P 7.8426560038974955 1.1993458940774537 6.476324890815775 0.09260727921477599 0.2636542878946943 0.3838484755888034
P 7.161462139943723 4.069104516246504 11.9169576420876 -2.0664413763617446 1.0610055716036242 1.943763760124149
