# total energy = -340864.1699102109 ev
CRYSTAL
PRIMVEC
9.33318310810375 0.00000000000000 0.00000000000000

0.00000000000000 9.33318310810375 0.00000000000000

0.00000000000000 0.00000000000000 13.66005689131841

PRIMCOORD
 96 1
Ni 3.942961861363766 3.269582034452944 12.310948224070712 0.5383332090346664 0.4601490472237559 0.8894281443415327
Ni 6.146087729799646 2.4858839833936797 13.285116009036622 -0.000969563002120911 -0.007840579090341335 0.21259526443535
Ni 5.636551932070372 7.482926209994405 12.170796480168422 -0.2787721173727392 2.3830791584320052 0.8766183941713741
Ni 8.164631236223366 -0.35824023321503484 9.970188704530786 0.14058766374879658 0.04549875576274745 0.6344940099286557
Ni 4.488430413997567 8.177641693453733 2.579523809356566 -0.5228477118045576 0.6137323519012721 -0.22007306086963388
Ni 7.781700067138222 2.847927488718739 6.405815282159417 -0.35384035926248736 0.7106310594025503 0.4213518718509001
Ni 8.129463802332392 0.3525665912133565 12.330646840304865 -1.0905871419154831 1.8824455208306419 0.2552470376676056
Ni 2.178439599157316 8.491171313066136 1.3312385703395078 -1.5591616941987727 0.4067266657385576 1.2258029998294049
Ni 6.9515134310972835 7.980226204689956 0.476722192614123 0.49392537234325257 2.660482934702308 0.5408459481541911
Ni 2.185056825969604 2.8750590519674297 3.9328941567623343 0.05206663878825226 -4.215041582911431 -0.9294864458149992
Ni 1.207835223495963 3.2978895787712372 6.452369199422736 -0.9229309040846685 -0.2735121545253806 -0.004260317938250727
Ni 7.283569419147474 4.251311564360062 4.46648343395653 1.153092459538556 0.1898885668664536 0.0711182561030646
Ni 4.563347874677731 5.967077278093461 10.922622306030158 -0.5435612902028252 -0.0835672804996948 -0.06319900125598793
Ni 0.9460114382137098 9.208015773636797 4.108111602859896 1.4796097055060582 0.15933974754531913 -1.337387077257
Ni 1.1008489457113957 6.87547598844607 -0.16101140811309997 1.9571332394525198 -1.5434887635482064 -0.2389333881092466
Ni 5.233097093365733 4.162254331295389 7.149346113145277 -0.41365244632411335 -0.23925066223934924 -0.3716380495655406
Ni 5.953021504356782 0.6547433269125474 11.158982367882277 -0.8833487709166722 -1.9457252547258943 0.5520852685134363
Ni 6.104881726448093 8.228918201361648 4.531491854147827 -1.465257036328812 2.744609687249899 -0.8208959037980894
Ni 7.95445728617271 5.928605897387887 -0.04504100828409177 -0.73594357002541 -1.3970207297592327 1.1938246471505956
Ni 1.8102081934422045 9.553632876719787 6.686747826504405 0.31546150237397286 -0.3793205058114628 0.32051423430653186
Ni 1.6718344209189564 7.46033990691156 5.42858901309423 1.4278855376588893 0.807170840902513 -0.5914889671220394
Ni 2.7881764505632125 5.813863744453798 6.6745362897467215 0.065298564097494 -1.1939771135680597 1.4462732961374576
Ni 3.706384336345602 0.8256040431427244 0.92410272422335 2.1626482000023204 0.17414930175432589 -1.4906603068932651
Ni 4.875272186798296 9.101962814161437 9.107105398045176 0.4994437310583206 -0.11475039097071851 0.5596936769883135
P 7.006140551735255 5.500744784897447 6.402960261451549 -0.27581072075157015 -0.9334618855229795 1.2095559418429234
P -0.07703142665052144 2.7252801297056535 4.397977870060628 -0.0974167847882774 1.062438447395409 -0.2753828891855322
P 8.132627751400609 3.1965498767573806 0.8984598036778473 0.5939348575593706 4.531423283106829 -1.0927862064493308
P 6.468194544673675 7.655319434888303 9.819176868782547 -0.7265096783060198 0.10609682906077857 -0.05286496631983153
P 0.8644982170423692 7.595372399887842 7.468786437609896 2.681657769007711 -1.2113695980128945 1.4009295778953357
P 5.682573857897442 6.383962567267611 0.8111534757612496 -0.5946339405089243 -0.9144660611467671 0.6843947514138407
P 6.056013179777937 4.410339671066094 11.571679857803007 -0.8944968171136917 -2.88856883857409 1.6755611907371402
P 6.955050707489184 0.4055296053060098 6.109542718084279 -0.5442390329961401 0.6167590545427378 -0.9499632256121123
Ni 0.5067143764805373 1.9102039170908005 2.1647636859724844 0.5238244738955301 0.39802091043444354 2.2765390711862215
Ni 6.2470914372221875 7.613572106917407 6.74928388649461 0.31696096973763477 0.5730695840745873 0.10516737526797372
Ni 8.019416240493621 1.3125162050567856 1.071803146610519 -2.795651998538695 -5.200946516725475 -0.1359951592821077
Ni 4.858052463993399 5.995403488777939 5.597577492796135 -0.07222717289652723 0.2050040823516534 -1.2331455562374054
Ni 3.602394010333594 0.02316962702610038 4.889590222979862 -0.44351632376308137 -0.4822067983547438 -0.30622507137736943
Ni 8.653260703826371 7.557871670223845 12.268493440821437 -0.1097231129594562 1.0745737972063623 -1.0921832827580091
Ni 6.669147309829351 3.2925696644087488 2.4034869097835188 -1.2609762052964282 0.15508894268876516 -0.7689732467868692
Ni 9.588818976976947 5.777520329493219 6.070283616725734 -2.130541292165447 -0.45835133189338484 0.2390110354247174
Ni 0.16327750496785817 6.93806431426159 10.14735958584952 -0.0050254782390494095 0.7374414947271751 0.24841150280301091
Ni 8.857153421656054 4.5384842749204175 10.001047007788145 -0.2964934459119023 -1.3251563395187629 -0.13468132556669063
Ni 7.56107295202443 1.1020062604148142 8.169752353785993 -3.65271715316849 0.16872478830464488 -0.7138896755491642
Ni 2.105715436503792 8.73339541385501 9.64880894461963 0.013405731882944654 2.109214762773529 -2.9873071703872682
Ni 5.7264678179795165 6.189048371572513 3.1095207443786177 -0.8435725194599988 -0.8109783875740615 -0.9906943847828872
Ni 3.92202753168822 2.4693549161375974 10.086285102331537 -0.6467640855452603 0.02458051755284154 -0.42532962555172554
Ni 4.9814931435693115 1.4844241044298945 6.7972032484443 0.573365003827819 -0.5634801406139393 0.6211839230833108
Ni 3.4954730648306707 6.070330282641194 1.4471735040727658 1.2202748709223241 -0.2411900453539072 1.3088033520820364
Ni 7.299519829051848 5.917891403198174 8.70204338521208 0.44195977790923885 0.33406240530461173 -1.0502041101127462
Ni 4.981455810836944 6.543671996339365 8.25201316292301 -0.071504950018522 -1.8707038069136814 1.7222670794341113
Ni 3.849938025484957 8.080156596056908 7.185503797762322 -1.572030579741641 1.3027412050483564 -1.412409039289845
Ni 1.2711235380433898 6.534852138317344 2.4005777566137163 1.066191743790254 0.4047952530437996 -0.513156966879355
Ni 1.0641788693425946 -0.122554960500474 11.494445901079388 -0.5418941869130474 -0.45130110991482275 1.2174523138718647
Ni 5.520661797615955 3.0069929281571395 4.958723910097862 -1.4591637789468805 -0.24690689323302636 1.7641112691634069
Ni 8.165489889067839 9.12874904963572 3.1111876508788643 1.2240554210106789 -1.467946153125201 -0.39972812293353743
Ni 5.417959450870655 4.426738073758886 9.523613626622407 0.4703295873011835 -1.8263224525848287 -0.8992214762828707
P 0.19638323871379193 5.515771209675703 11.867283232650443 0.7187066373218333 0.10158480012303797 0.11311079848476649
P 8.825271268213493 2.878083003289265 8.467008635359038 0.5237614818680786 1.878972988901009 0.07782832113338854
P 2.508274289631591 0.9577899152759207 2.6526875649337276 -0.3198382912854298 -0.5855558894670561 1.5221889736291656
P 5.62002286481429 0.2205925823363506 13.373099926045708 -0.35267282131694744 0.26346042671633335 -0.7991263733314817
P 3.2134616045202384 4.426756740125071 8.806105576733898 0.09019198490506403 0.9651849276578731 0.5045897940356342
P 3.2230841162881774 0.7584881902092339 8.201839837256582 -0.8366053441135464 1.1911851526452193 -0.1992520103592246
P 6.244888806012455 0.26386121915125543 2.5332984201380886 -0.6539660026103382 -0.16592639962390132 0.03438233413461175
P 0.02541332424143755 7.010387150042154 4.064850432591465 0.03632454546264712 0.4260770452407114 -0.057197532256914395
Ni 9.251573739127556 1.0679308089456128 5.716228382809191 -1.3883748811587766 0.040298442508730596 0.6029661145237035
Ni 2.7768366331063294 6.67760317371078 9.599290808406266 0.4729073753306888 -2.461791424832244 -0.6696350766061628
Ni 0.18030309756443913 4.711316159419643 3.2691928407180035 -2.774142149491377 -1.4157419603178198 -0.9301063387871853
Ni 0.3063608016793725 0.9718456890126004 8.571822148119768 2.6659066768210407 -2.204634057515803 0.053857155029771765
Ni 0.7636886398281435 0.9049734321578131 -0.04832908868743323 0.252572576159236 -1.2693418036523043 0.9559058163487925
Ni 3.1105072618314513 5.634237302663535 12.726720064501976 -0.3400044818206596 0.06385308990021907 0.45069510089970766
Ni 8.164836566251392 3.938649930775223 12.448832937799935 -1.0085969760949212 -0.26469095668932474 -0.5989657351150588
Ni 8.405315361802048 8.347094965673623 7.044750996868901 -0.7562755967145427 0.6682474522300168 0.2512060348290125
Ni 2.0290620037685 4.385382739477859 11.040249345858012 -0.614937685063283 -0.6331287541500129 -0.9337580766071596
Ni 7.234262212871991 1.7271521971057424 4.076106251400519 0.3413342563756767 -0.6594648209413804 0.9931963252691347
Ni 1.8108148503431902 2.6912326777857287 8.828439883873257 0.5540112818915555 0.7144566037962277 -0.10106003796781951
Ni 0.7503169884121137 3.252203647535482 13.531120048977792 0.08334873673098549 1.295652159412059 -0.2231208465570222
Ni 2.553866889036425 2.83718499497975 1.3244822790991475 0.848887503915009 1.241710929308913 0.1366757302889001
Ni 3.6804100878003303 7.7947478571009565 13.466945082036618 0.7061210873473388 1.1992105940528572 -0.7374790328333298
Ni 3.543660289135105 0.6812215673447919 11.720779324335682 0.6359070882260984 -1.5549761953625154 0.09151430326091335
Ni 4.707284224323862 1.5901130697646622 3.276992581828059 -0.6873888010451581 -0.4109075365891246 -1.0895484162383238
Ni 7.235876853546921 2.3791030356371383 10.963233785618746 0.7802778731664111 1.509379223459007 -1.4624848729003135
Ni 0.36542025096777564 2.060160169831326 10.90004253617548 0.09382726766480615 0.45396760100339234 0.22214125625257228
Ni 8.035898641834242 6.680393795455314 2.2247592535250234 0.4467505144296628 0.1994597554946565 0.2747200587905527
Ni 1.907170632585873 4.82694496474748 4.512094699727548 1.859335931396372 4.776604966118632 1.5214328121894314
Ni 7.410734038777129 6.534310813698003 4.58482072901769 1.3017310186162871 -0.32715796487529464 0.8698792756753277
Ni 7.1083015738612145 6.116893533087605 11.225042637808054 2.03747249993322 -0.4960077087935781 -1.3170324248600478
Ni 4.293777547429047 4.004019545152184 3.371342663024253 -0.3811341619814339 1.2696796466076972 -1.1122823675007294
Ni 0.9640524811307095 5.678103263196333 8.510611400128639 0.485226559017674 -1.388943352067737 -1.8480626724753981
P 4.703578950636305 3.400293263657591 1.2121378209014142 0.07001962372224715 -0.3749763699101542 0.07955867356093396
P 3.2426744675984636 6.790628020955927 3.991318016282166 1.1397044682674242 -0.1651848934721865 -0.511819479014854
P 1.7784473713798403 4.970143992929337 0.8500000504271248 -0.35043570445631256 -0.4119935705644518 0.08424682306522266
P 3.2263507303704073 3.674903509776 5.773437061890433 2.0673510326602074 -0.135649860127547 0.4059717898504041
P 5.77358172622836 1.8960734778893844 9.254702222100024 0.8268462078442534 0.42674938871738766 -0.46120294240956694
P 2.139622890677336 2.023144765688118 12.429231386669938 -0.2116285296467065 0.8010726984245752 -1.0058003871863903
P 9.176702944362853 8.242105989070762 0.7343908447837804 -0.6470836736682082 1.22150642933658 1.0839354409269204
P 2.874387062784799 7.805406352192117 11.404303218821108 0.6788969615240631 -0.5373291932501842 1.556814534122835
