# total energy = -340896.30654476007 ev
CRYSTAL
PRIMVEC
9.04433932793175 0.00000000000000 0.00000000000000

0.00000000000000 9.04433932793175 0.00000000000000

0.00000000000000 0.00000000000000 13.23730482226350

PRIMCOORD
 96 1
Ni 6.402026402733875 2.0432337839296486 11.435059127660914 0.022906472284528294 0.02341117983508871 0.5790389142841448
Ni 4.66939331291086 0.492194743853644 5.9906346890246045 -0.46803873438447785 -1.1677917134219435 0.027679982413771682
Ni 2.8002449683896473 1.5758675598320333 4.728749501696692 -0.483242952928742 0.005857487222041525 1.1709904228648993
Ni 3.3189920830358557 4.449407852461391 5.088062101877198 0.6400923299520396 -0.4970803730324665 -1.2242837349714013
Ni 5.162291706348148 4.557315862518646 2.7482364007060296 -0.802937776657772 -0.636797975471484 -0.1471275217498434
Ni 7.267063173659706 6.17991552259088 2.4834109157605537 0.24785511607890862 -0.7090452029726693 0.7042410967158065
Ni 5.227772721586981 4.539498514449517 11.629024928892067 0.6898750578021215 -0.2436248800476449 -0.33349984793292237
Ni 5.505886149569598 7.730477021561276 12.242242878962886 0.7752796486208712 0.5592622458778497 0.1958483839943143
Ni 1.8070589564528992 6.798485008119825 0.2683717703149711 0.03840791035423708 -1.0311398943924437 0.6256545572601546
Ni 2.6436241478246076 1.5919664834681002 0.3271518346987701 0.5505438921682454 -0.2812614594534963 -0.004383216669360194
Ni 0.6422493742165571 0.03330035221103068 4.750285882012535 -0.6208571358715114 0.5136763297179346 -0.21716154364979376
Ni 8.747250669926599 2.426406255146283 1.4189989243750678 -0.8767371791374257 0.3961879709907628 -0.07886833236212869
Ni 7.003755328818799 0.450904622462781 4.965127826803672 0.06704100070989745 0.7457937233466124 -1.2756867720337255
Ni 0.6865548782704901 7.6496477628334505 2.637307581382232 0.21193346248163497 -0.16517100951511554 -0.7627221236708348
Ni 7.597281039320626 3.8492345527053455 3.6812278136203935 0.9275012970641704 0.03707633602700711 -0.21584925259627344
Ni 7.680660801680682 3.974797112727546 12.667610809916434 -0.3222967801282514 -0.1684694777607292 -0.591052136694937
Ni 7.87283491933189 8.56641815353361 7.144239239523461 -0.25757414313888544 0.8879009090637289 0.12173042183297744
Ni 6.7097781300172725 0.6088766672925554 0.268214398814259 0.004905664831733487 -0.07142318893799313 -0.036641562482433665
Ni 1.7425185524826896 6.455243294124109 9.16911030173496 1.303216087802246 0.24424065925477287 0.5393953317505936
Ni 0.21335415100566868 4.9183206585487635 1.3307198435129568 -1.2851461176744126 -0.2150828067438941 -0.1469763408839598
Ni 6.531649871021577 1.8710205227193402 6.949227912689875 -0.0674786024679483 0.2990084990242722 0.14798627020571287
Ni 3.479863742987946 4.471340374830752 0.8265304971165308 0.3680228214104565 -0.5501158034918914 -1.5319491383397228
Ni 6.118016065644116 5.510091767261041 4.701652661689019 -0.3720178015024625 1.6091603947144026 0.7548442635846548
Ni 5.289229005916798 2.8440919244501255 9.361355869665227 -0.27517025895409386 0.24601189222258274 -0.7108390616482984
P 0.12732077954739762 5.695138945684597 12.530379243559823 0.9508515417543365 -1.463539796527389 -0.5166927479467553
P 4.047106604003026 6.0051246247309775 12.576908750603703 -1.1427820787514835 1.1735910937125402 0.21013986091632197
P 2.368802859282176 8.586559896756935 1.3207122822751434 0.31163081577397295 0.20009533219612635 0.3548343477446405
P 6.408420750492694 7.62915329038439 5.833494723393997 -0.6380511311522947 0.11114544722827956 -0.2447044862650689
P 4.60380376560257 1.0469636523525083 12.51641387952249 0.4318828532892111 -0.7580504292267783 -0.6735999747911818
P 3.9374801695127077 6.151688140193036 8.143192826517916 -0.5157774352213376 0.0852598377107693 0.5489703770335383
P 4.8650675898020435 1.16646650516338 3.783486729462431 -0.16258962194118448 -1.099358717460526 -0.2766797536200848
P 0.0968766296309006 5.608539398597327 3.5172711295939982 0.901537526010557 -0.38006689705918417 0.10200414704864368
Ni 1.5060723948322985 1.2480012223426737 2.520740521050162 -0.4062677238242681 -0.9226007744387594 0.46335161332145364
Ni 1.9277104403321867 6.5907365385015915 4.514304603392984 -0.29281342595715376 0.07530658315279934 1.9433189592772466
Ni 5.915223893864401 5.484442021512792 9.131026398562629 0.36107621488929426 0.6839152406742608 0.6958276758411306
Ni 8.72174563360429 2.2650371565425163 10.381303176628244 -0.3171489173787248 0.3592959830604199 -0.32623416750944456
Ni 2.2517781553905643 5.276431266060038 6.95315858247203 -0.24950139343308 0.043666587650015125 0.9532943468678744
Ni 0.5736381132078117 0.21425587161607082 9.336469466138823 -0.389456051583568 -0.5520158487280815 -0.4539596305835924
Ni 1.3698013372903775 0.8703141428031599 11.613987810668851 0.35827885464981524 0.24186958791943505 -0.7644571040840705
Ni 4.038261240342311 6.647960072122601 1.676385440393204 0.5722504306074014 1.5092236717177492 -0.21451947804125637
Ni 5.5698929375316455 7.842246964423363 8.047037030714991 0.2892282797090567 0.30380926284702514 0.19119622993428362
Ni 5.135357664444661 2.7628737591400805 5.189804585955405 -0.13855649225138073 0.7630041736876279 -0.8831009165719244
Ni 0.7662427414011969 7.428160942089831 7.084036500595868 1.0298273462286072 -0.5384152272255115 -0.9353357055069246
Ni 5.137464995459943 4.702378017686554 7.003037208292561 -0.056108927178425944 -0.9031241537713866 -0.4588107880283066
Ni 8.383758680638099 7.102130605442113 9.154602277350346 -0.8612748218357683 0.5080774954739186 0.2382569308675123
Ni 4.8166622868243865 0.33684374850124726 10.305705163648227 -0.4686964225731348 -0.6534708081414746 0.2395566235155423
Ni 8.247216292922538 7.185347569697985 4.679333946039176 -0.4547245337740749 0.06626401333455685 0.36224195306262125
Ni 7.267922385876237 6.06139850274424 7.030371914419126 0.3072905365274063 -0.6639372548904372 0.05110941708130552
Ni 2.1764297661702985 5.458023506939223 2.4824178473250256 -0.060064312281748175 -0.6802665881780802 1.0808979396521772
Ni 2.2089803426681667 5.077808534615283 11.494745434824676 0.022874847715644474 0.6187825127306699 0.4234707179661159
Ni 1.1370000483059046 3.3395227328414014 3.789046284720347 -0.32655144163954725 0.5845755278316577 0.01711274842088666
Ni 3.474156765002352 2.617712116241837 2.7077041949335388 1.0647167019066244 0.9052352865771183 -0.3018683370705705
Ni 1.1882995398024054 3.184394228231391 8.17763638319389 -0.5473549529173025 0.306036352405331 0.012373433963688368
Ni 3.54084067734433 2.845484752674819 7.187220652330024 0.08941268353687827 -0.1239971063799671 -0.1988887134825349
Ni 4.284818969130411 6.968156810037025 6.017440301312568 -0.5389916685542717 0.019553496651895357 -0.45215214506120843
Ni 0.6565747029509201 7.349764610585659 11.350273875001394 1.1926565949844234 0.7597951798320269 -0.6620775759738791
P 0.1789775224391931 5.433196796051019 8.040378588253827 0.24328883686446492 -0.08728638122249484 -0.8545986953671734
P 8.535459380721106 1.5188701346890594 7.880657368237977 0.41329454876406246 0.38522890087609785 0.11956143920611667
P 1.7579481950237736 3.1216807807637013 10.345284096077323 0.5615831807015426 0.04117030359072264 0.826565443379041
P 4.058086431696388 6.165923929970097 3.948674348043247 -0.44731718556641026 -0.017115319524047944 -1.5574714509805434
P 6.872865653054103 3.9248000060645247 10.327943384679891 1.6765256115329386 0.17174454896757518 0.19638471611375855
P 6.403328787567355 7.686684331535526 10.108813518711305 -0.5416607307460025 0.8286457229468374 -0.44881562448880774
P 2.375369049484302 8.393445167837104 5.734003375323105 1.0931857558805946 0.3633076753229743 0.9114311309751851
P 6.75100222773255 3.957956553283525 1.4557198456418068 0.7918432094065072 -0.4635207919094662 0.15167786012468717
Ni 5.023307347069812 2.641589171522296 0.5930725891118457 0.7491014475636067 1.0472889933484804 0.27656456819845915
Ni 1.4857768978439085 0.910077579750333 7.0929849697225675 -0.12752260303472232 0.7297497825098723 -0.7705745298357181
Ni 6.9631462461637765 0.8176634270419242 9.164662295755063 -0.5188632732355127 -0.6236249284246357 0.3150218437333929
Ni 2.912747502720566 1.5662805603633643 9.185060898209436 -0.5377606243606481 -0.4875940308085861 0.6844762553840534
Ni 6.529596806041023 1.9629652742273491 2.5639335713921643 -0.4753828334543748 -0.020862445271306006 0.11679158977046337
Ni 4.0427020108509115 6.777149412132476 10.387921823997274 -0.14793741924564843 0.274414868845308 -0.4120431928554646
Ni 8.059763320292694 7.214922558624917 0.3638501451177054 0.39567297902755727 0.7182399820980597 0.07057112535034298
Ni 7.7412940511504535 3.6903707360382025 8.081969886137431 -0.2432458994416714 0.43613597213861016 0.11113901947037634
Ni 3.1923803796755745 8.30603163022891 12.297509217598027 -0.28316279024126717 0.3909884290676944 -0.03335029332567159
Ni 9.103217769066104 4.682399072567413 10.113591643069133 -0.45646517061426545 0.20173955266776866 0.7058482933019262
Ni 8.675275819198609 2.401163504658495 5.7467775998981505 0.14152920172645947 -0.1252155521681005 -0.12402667406632188
Ni 3.7765451991867676 2.7852132767699036 11.410424156762081 -1.3229652454047152 -0.80652086602334 0.17779872558145507
Ni 0.9605721250650303 3.185986031916755 12.52871146742584 0.4833887344779868 0.5299933217104034 0.13623015811104924
Ni 3.1699956403501446 8.355296145423099 7.947121503139305 -0.01910998135657354 -0.2589936491942314 0.2319307315391683
Ni 5.6344242971627345 7.803193508097218 3.4978520290664705 -1.0093737063599455 0.29914013950612994 1.1751029023713762
Ni 3.088361435440516 8.542070792618839 3.469431097811428 0.6215317933410328 -0.4511149620459457 -0.014725479135632704
Ni 3.4384949358467276 4.393459570656498 9.50250453929531 0.04404299715282737 0.1443782411394804 -0.9269752493573712
Ni 7.4538197321772035 6.341094690073098 11.337274446382224 -0.7971548514274077 -1.78158885712288 0.15743430299249017
Ni 0.33195528320613815 0.10720436047361113 0.5269973607927368 0.4139944030445644 -0.16885540034523822 0.2690718593658398
Ni 4.669791263832201 0.38876729939712357 1.5967898295215353 -0.8557734324015649 -0.5408392632859718 0.28764010928633044
Ni 6.168058394002744 5.760004945863177 0.3546529566651682 -1.2912715138458601 -0.784376725826133 -0.4550322948224808
Ni 7.919992103510796 8.91047385805025 11.295921014617512 -0.29947258314488423 0.02034359665335851 0.13323713692099634
Ni 9.122029994438588 4.931335462544437 5.759975099544077 -0.1129771011203796 -0.3961514613258726 -0.4338309781545174
Ni 7.599912942004949 -0.2766211120275872 2.467141958549005 1.0142140651713822 0.6214546602461942 0.3869934489756883
P 8.57921589339037 1.5878332204896268 3.5734500420464865 -0.6166459260036412 0.0720201990920437 -0.04423994365498187
P 1.7713247725843035 3.3275480278446867 1.530033562466586 -0.0014452170869588012 -0.0973656198353678 -0.27793188085963105
P 4.809725278718283 1.1501143400319143 8.110668478603502 0.0016339360589971862 -0.8239346906244132 -0.028964762663466245
P 8.425416906631202 1.646151119144323 12.542345808651328 -0.5522297645111005 0.12421205060425058 -0.39099125728117173
P 6.079830865873624 7.694064512258577 1.329449113866402 0.19575659561145642 0.46618831143930034 -0.3650467695012681
P 1.7436310061946199 3.146100496391443 5.97510736762101 0.22824634070904565 0.1058255776772629 -0.14149269206156923
P 6.890221739828043 3.8846883620611785 5.810580890229967 0.8154587919429183 -0.34440595332246493 1.3462879792910556
P 2.400250026407235 8.477828851839634 10.158387350303444 0.44055878379665414 -0.1030878670311257 0.3771060146586473
