# total energy = -340857.3289398712 ev
CRYSTAL
PRIMVEC
9.45429123143887 0.00000000000000 0.00000000000000
0.00000000000000 9.45429123143887 0.00000000000000
0.00000000000000 0.00000000000000 13.83731087161144
PRIMCOORD
 96 1
Ni 1.4299048057246158 6.086190452384331 3.8081109368072013 1.33066878469656 0.5936957449653711 2.8958882550536384
Ni 2.8412035665306496 6.795706637854269 9.194076881031545 -0.01105702914510999 -1.0577803797981074 1.167022696466403
Ni 0.28115170924227495 2.404906940055685 6.113725129833965 2.1458329282171946 0.015521749784682947 -0.835939171284457
Ni 7.175797503637683 8.101958770057474 6.4572779967368685 0.5870376162189052 0.09917799045375822 0.33208754096642806
Ni 2.640082431595183 4.715847680697859 1.8132139122043136 -1.0853893997646276 -0.17127763663348566 -0.253246462297809
Ni 7.607801881945455 2.863402242073755 5.330118501166135 -0.4369191301615378 -0.8674508687394932 1.3439400478841692
Ni 2.2393244854296444 7.491939544304588 13.431932620569516 -1.7591366987669512 0.1955485933657084 1.5831853108068799
Ni 4.2664663153167375 4.115859457820287 13.62820086787454 -0.7401933464406993 1.3039645359324963 -0.5967360744535916
Ni 7.983562682397207 3.5711410208136654 3.284576729906813 -1.0929528139341822 0.8795342822665884 -2.1646513464752783
Ni 1.6419267383181748 0.6912098415797696 2.984444585817716 -0.7478917435262217 0.9303331100860106 2.4762533658938453
Ni 4.2090504053621896 2.38934517687683 1.48308330240045 -1.8691169220425357 -1.2293467513166054 -0.36834626618814625
Ni 5.859807451583798 2.186673538198148 2.958569136459145 2.141675968626028 1.252939708145197 1.2693955397083752
Ni 6.3074208645260095 4.777848921844233 4.283810212371177 -0.8430968653751609 0.9542703376278985 -0.8499318860191232
Ni 6.816080635211761 3.6875800702126784 7.705348421405036 -0.3306184126200693 1.013451475973745 -0.7730271051412687
Ni 3.1533180791816426 9.371792972877357 9.502565673039104 -0.8712627862864155 -1.0063205213559185 -0.9659745134387042
Ni 0.595723392154619 8.367652713323183 9.589117817358535 1.7642426525349488 0.12005431968213519 -1.2204720745347948
Ni 7.7492758942227224 6.081595666901389 10.593845188391084 -0.007613036460567534 -0.8907147243634402 -4.039333421310418
Ni 1.0966032266800547 2.3510458435611916 9.751830894630515 1.973791159724175 1.8145228888467395 -1.2943509241021323
Ni 8.125906489457254 6.727352113077161 12.545403742512885 1.5423186544995051 1.545517878163093 3.0602640223609683
Ni 3.9744894427453072 1.4361730007352966 4.0486451205519085 -0.856219518800048 -0.6231683005031913 -0.16163882799214097
Ni 6.614297699898093 1.1312059321688814 8.080228081924668 1.3807829277441317 -1.3319836468532413 -0.4400052252860293
Ni 2.267554998705501 0.5572604996026537 5.652002132828494 -0.23165433794933005 1.4345840327249875 1.0679601485445864
Ni 4.877667327459268 0.8507935484919689 6.305759745576723 -0.8462971174800136 0.31734792076340834 0.18643634665179504
Ni 3.9319451327180617 6.423727553849383 4.525492147057509 1.773764218872139 -1.7811957354495196 0.36450272407233997
P 3.6296347199555696 6.139512654285146 0.3133152076228728 1.5146029337517914 -0.6241676883019831 0.04464180707909086
P 2.7453370546025893 4.146255003761975 9.923178575979803 -1.0636720626921938 1.1963363578288557 1.2437644694038321
P 9.302077030179376 1.2209838806174875 10.792396647000905 -2.6468805134275253 -1.8472926270785928 0.9280782526135629
P 8.211032926676216 0.7918649519586748 5.826144502632017 -0.09660920128531748 -0.44810291469249924 -0.19732882519458275
P 5.0653728232994775 8.28096631806989 5.780149376347006 -0.9597545006709213 -1.187710820943374 -1.0252273855627505
P 1.4980040646415609 4.219771571489056 13.654547140930747 -0.007648003463561021 -0.010646166859936503 -0.4428966879012114
P 4.768007004791263 7.431554986939251 10.166230437449013 -0.8497526801287818 -0.7585713347272548 -1.322361293272129
P 0.5604541591420322 6.836851712796174 11.020822720111859 -0.13702720009104788 -0.6263518404374955 1.2683670984438606
Ni 8.219267614239266 3.0197856714427935 10.404938052149882 -1.0275604045713014 0.6151945382690953 1.2352680018970468
Ni 4.703056024816334 7.979242071356663 8.00423354449578 0.72979709080804 0.8156235996555566 -0.7375343115512976
Ni 3.0955807233291113 8.00890963688233 11.56069961463738 1.3621609417675702 0.501246331484698 -2.1191253370190215
Ni 8.938654079635524 2.025241517372543 8.163280247672523 -1.546349630035769 0.415731183230013 0.45500735512181634
Ni 7.83761679042152 7.243698222441168 1.6559663606271662 0.4288492086692098 -0.25168194602416655 -0.849455203493021
Ni 1.322154249862278 4.6225432816625505 8.283055716406784 -0.4277006968870634 0.49855721468830916 -0.3933906107512838
Ni 8.457307755987266 4.2070744585187025 13.316765173325761 -0.9318711439970919 -0.197159389496254 1.9470069496517952
Ni 5.8562242752503915 2.4128579988852215 10.082833190075382 -0.12469387533667557 0.1742644871759515 -0.11292156529209585
Ni 8.805291849136786 5.015898517883349 5.838155234067265 0.3883885295510021 -0.5410549788412037 -0.00460253176901788
Ni 2.592338261453496 8.115364954861615 4.571224444049463 -1.0413772558497354 0.9173459537977234 -0.6728628395148413
Ni 0.30557308862702576 4.692401038727288 2.729755437412388 -1.1183581413811643 0.32091584062032474 -1.9063087006014845
Ni 8.796196821082072 1.5322569613590522 3.6232303831528014 0.40715526863554397 1.5135089293566644 2.542239442976667
Ni 8.910659923637597 9.440109680489996 2.2931742367747967 0.3207420340466218 -2.77448796286657 -2.9029636738431814
Ni 2.1152841859724294 2.9223592014804005 11.928480993386243 0.6780477261498903 0.27929996485175124 0.2541558614859558
Ni 4.861018320801939 4.575054377381027 2.1526844162028254 1.4966784880628867 0.9952894603527374 0.9717247856589201
Ni 6.200161931801765 5.949074868312076 13.687563416370113 -1.1116601605356986 0.3729336284485126 1.0799186064580433
Ni 4.747075204257858 4.814966468770225 9.49355762446267 -0.6765986524081895 -1.3242081166728807 -1.399624743040983
Ni 7.5650873946781 6.756036432326642 4.1286246416866845 0.8388756282049618 0.8078979488765248 0.3639273111848442
Ni 2.506247486540585 7.962810513395028 7.255566194080545 -0.4463203688707797 0.2680791564352673 -1.0913816127923204
Ni 0.47199508430427095 7.071913752842266 6.456378893651626 1.387386034882946 -0.18182070225665461 -1.1637905626823504
Ni 0.48636938851880973 6.151689781244055 0.4632555375955629 -0.07459155936364573 -0.21930404391409328 0.6977362057177532
Ni 2.706186835086406 5.575611460601795 11.982349653313632 -0.8756444602938791 -0.727914014852714 -0.23621547495745127
Ni 1.0446140798267605 2.970112825913205 1.572956739189339 1.1981836954502396 -0.6482738373215674 0.2160204880668151
Ni 8.197097301569514 8.696558046998263 10.78139563385697 -1.4850308765216296 0.4638555495410656 1.950712937748473
P 5.070572683413919 0.24087075650847856 2.3043690628866327 -1.9094526455471053 -1.019341873316251 1.3165452008109844
P 7.86610256955754 8.44595315235555 8.70344738893534 -0.5746834655289265 1.5364169443030895 -0.42516584628035164
P 2.2400808287190173 1.413993233774426 7.722146805862016 -1.2200756104273245 -1.4738180385249458 0.44398272187653864
P 3.8545428513418254 3.7279498932829767 3.983070157363247 0.4201036012660958 -0.07836825279725858 -0.6361752542858204
P 5.073021344813264 2.5437810222757324 7.800894432864225 -1.958640934346298 0.5295369508992751 0.2924897240691479
P 6.818009310599662 4.734274094085216 11.928176565212272 0.721067681354842 -1.6858782563924317 0.07351401002875081
P 2.698396499205861 5.7625417045703955 6.362990351425375 -0.9781749121596379 1.0015215573053784 0.45534545518752545
P 8.59999191752753 4.167205712877614 8.632655547908227 1.9427520310301831 1.4594895377174155 0.3075844136187412
Ni 6.420758906438593 9.235859175194747 4.267191459445424 0.33906654338742254 0.31542113605434063 0.15831104917048863
Ni 0.3895461023296919 0.008221451555487333 7.409575650950065 0.09465490577242408 -0.39525748875669353 -1.0301502767856645
Ni 0.22285276849738409 8.76004361185003 13.397228754165734 -2.213655287177807 -2.3318003056523713 -0.2559463777274753
Ni 4.116738706894183 1.0764750408916088 11.499926485907126 0.24176494402077076 -1.059191915433653 -2.1388924923436194
Ni 4.726663389735897 5.122420015900455 6.771177479550783 0.22958845655923685 -0.2841331245743365 0.09216736346387998
Ni 5.671922324212362 7.438087902101213 2.757776065425444 -0.8593464944648039 0.16125881894490293 -0.3264912778255732
Ni 6.219079968327213 6.202421507378768 8.435432417200367 0.4766511586438372 0.2965219851569926 -0.3761778464174231
Ni 8.516879244316527 6.583930516829756 8.114364690861418 0.5305214262997314 -1.7421684463437288 0.37353963746362767
Ni 9.447777110586017 8.697172575920877 4.578489121343893 0.18141986727381015 -0.24718817191887107 0.39829113337669464
Ni 5.375776109258263 3.1158034520287288 5.433510628823459 -1.9126642105058675 -1.2799915700566666 1.297655562995333
Ni 1.1813231293809772 1.127405307139781 13.779276658210403 0.8696892711517087 2.5754336703404483 0.9924460773666713
Ni 4.99521252891899 5.745164717497046 11.487098903719355 -0.06069294700468258 -0.036405792322543755 1.1109425656433833
Ni 3.4519980441551423 2.171962661219838 9.585796524889075 1.1101396101261136 0.9872174819778804 -1.551834050189108
Ni 6.462754867581043 3.0337402051317297 0.3242604404492156 -0.08558688203288485 -1.0830862055527475 -0.5097471698668576
Ni 2.6628767274786695 9.272570187602701 1.399643510716792 1.7688369567738504 -0.8408222104083714 -0.6556271923628451
Ni 6.546179532398913 1.242000769770947 12.47801639171706 0.001181679012926997 -0.8391350525139354 -0.6549900729994784
Ni 5.621842944164736 9.349452482967495 9.93913269224002 0.9149067482286114 0.6730199339179957 -0.13671506816726778
Ni 5.911579149741397 7.871775144227839 11.95758130144488 0.7833423710243476 0.633853033910547 -0.5693749088318194
Ni 2.8374123957926667 3.2747584485816366 6.873946569423486 0.977829098784445 0.2670298892351466 -0.5717212975768089
Ni 0.3899403462692777 4.653213002046637 11.665835113576708 0.7692550396933461 0.8388537738280907 -1.3439559887237693
Ni 3.076067066463281 7.037311047353439 2.2466118530227552 -0.011358362435612697 0.5491647524325317 0.07077398538976842
Ni 6.755384086239557 0.7377514258913532 1.2417577944892355 1.631017085578178 -0.04230853096022391 -1.084854096086448
Ni 4.520815109241847 8.151546526967008 13.826905486000461 1.0590006253584536 -0.4176983342587129 1.322421199975787
Ni 1.5572541070728385 0.431899435676371 11.594310564988014 1.1076037310781377 -0.4045674533037097 -0.4046864953800773
P 0.8264411854323733 3.843197702001227 4.581893611575185 -0.1652165180410703 -0.0043503065488957335 0.12831193170523708
P 0.8675427706351397 7.668800968233408 2.611473746674639 -0.7251266819155641 1.4556146281430415 -0.7800637002730759
P 7.01946134572423 8.537054701560558 13.61596890602715 1.243390116783549 -0.2906254171668995 0.6102438791320393
P 8.8444042514885 1.993758727952381 0.9555461486410536 -2.338189754118483 -1.4392328443509084 -0.3581546703671251
P 6.946578215502 4.670958706473557 1.476621294421867 1.5416645658552741 1.3866784672929602 1.9645480438593521
P 6.853585808073557 5.786101798034373 6.131257167281636 -0.8599350199784223 0.5913488419997494 0.7668142914623375
P 4.562026364221572 2.1073047642695415 13.153720250435567 2.001605610833282 1.4762431030266705 1.1061461726960047
P 3.28095100926338 0.3544063931054103 13.27862939924645 -2.096715344754937 -1.0378121642062965 0.12478849193301089
