# total energy = -340857.0802581634 ev
CRYSTAL
PRIMVEC
9.36014840704697 0.00000000000000 0.00000000000000

0.00000000000000 9.36014840704697 0.00000000000000

0.00000000000000 0.00000000000000 13.69952333201263

PRIMCOORD
 96 1
Ni 4.947914833298631 2.3544049215284684 1.1786476676733482 0.5302591737772804 0.2742773148261793 0.03161479869180362
Ni 0.9389258436537348 6.974499278286294 9.26750817857803 -1.2222687614239014 1.751282749940171 -0.2979900850620868
Ni 4.318276372403023 6.074717575137189 12.065814392735831 -0.5238614977810526 -0.3313450063734487 0.017421537910557096
Ni 1.730607193218916 8.311390550403766 13.093579276647226 -0.2660991498907611 -0.7233950439364379 1.101783781962251
Ni 2.7541300578867216 2.717110671063238 8.731090243394462 1.1304143012147498 2.5361305018654514 -0.5406068355601916
Ni 5.146986468940063 8.034891767403582 13.392366444958174 0.23038421298765482 -0.5626812988617277 0.11495736477520202
Ni 3.857644750568053 3.24199035134483 5.037122663402272 0.7710800087172269 -1.0675657413196453 1.5681669830211766
Ni 7.215410777164382 0.4850775213461939 8.2338932019322 0.6811415345838656 0.4218992597139379 -1.1922130796891017
Ni 3.4732983379900744 0.3211710271351411 0.6372220531091076 1.3078844398121927 -0.09377250316747077 0.5257268331245656
Ni 6.628463953007562 7.421895650318885 1.2440919530823082 2.7573217354999286 1.7922633061175908 -1.1296509406861641
Ni 3.07656844911185 8.426745018978385 4.828355786073922 0.9325154624493103 0.21323778311535532 -0.25100857410622573
Ni 3.918429554115893 8.48601347848946 11.573330185980426 -0.27285112390261396 0.7872129097233475 0.7700286846345771
Ni 8.717658430476208 4.852909327291459 6.368223747734913 0.24519453852760997 0.41386173412144206 -1.1437215598466173
Ni 7.009159907719256 0.2552643503964517 13.939539190624723 -3.133139884585088 0.2345699689342283 1.0678207947532448
Ni 0.6481294340106009 2.818265794552844 12.260826532026986 0.1016177102435024 -0.45582470881678916 0.7637047992990783
Ni 7.640876321554135 4.45352115627471 4.402478395155665 0.8668461452759587 1.0180894889663887 -0.8545794120934637
Ni 2.5547869779424124 3.317639070512314 10.883298175739055 0.7873070120990505 0.9583848740169043 1.5413292940030423
Ni 5.282034689695873 9.389820045439853 9.408709760875626 1.0422390896293985 -0.9391044285207374 0.5710139870971391
Ni 0.30720100568531805 5.297170049618395 11.210964209831674 0.2998209676232385 0.5411904759778035 0.14636904631726405
Ni 5.526465604362995 8.129270143469624 4.5200072261978175 -0.6266696287882305 -0.36362726344592217 -0.05469841998414451
Ni 2.287489220794944 5.352451085921681 9.358336250365397 1.1060865231026629 -2.008797500596031 -0.2950322879853435
Ni 4.6442060989720595 7.651322247140737 2.2860945586870556 1.3650693736636168 0.9608713878841839 -0.3973243985880512
Ni 5.3072977301602435 0.9835082303642924 12.372354571945868 -0.5032849591812816 0.3028790377232719 1.311958095660934
Ni 5.0399906128644005 1.5801334479409561 7.190948029386082 -0.12530579788906163 0.48191163571182816 0.05502726407847297
P 6.823145679061075 5.058168021008827 9.73352469377319 0.9693323741673435 -1.7572999026685283 -0.1384647038685228
P 4.856681467086622 6.771983108042829 6.022392473690757 0.39193228103820243 -0.04484029624314213 -2.6417509055104436
P 5.995296716174543 3.839869828803756 2.630184845133444 -1.269343346314201 -0.5895912358786943 0.5460133512877435
P 2.710034398891669 8.528031184545242 2.508067669357822 -0.3684966757230815 2.2637509182826174 1.3503963450324743
P 2.994320825339927 4.83437623350878 1.4663692685752647 1.569823287677677 1.2136486238550583 -0.2810904810932707
P 2.935333170280105 0.7007802686204868 9.048945905975145 -1.0249975289401316 -3.301562568268282 -1.7044565336152515
P 2.262712908046079 6.247758638147493 11.426279446963237 0.4320317201622495 1.2515754808078188 -1.3471498130707185
P 1.4985691150004146 3.6649848165635595 7.199564981980191 1.0095624253319837 0.7885789368329387 -0.3813611903905754
Ni 6.403932713785883 3.1128015834718266 5.941620009302747 0.7176442574955899 -0.20954979274080685 0.06931668411795158
Ni 0.7820450768130253 8.0675774055294 3.2844330081368422 0.7444217826997502 0.3698691305905759 -1.42320407302282
Ni 3.520080359568778 1.3769995079047352 3.005196381736945 -0.11760405836942973 -0.6265585571316629 0.8627200389227272
Ni 0.4263182539067238 1.058604700777646 8.115857986862956 0.4355358766607661 -2.3844037907807 2.3897727684020973
Ni 6.657414891931718 5.2124232662303225 7.468432436010161 -0.34959469661225595 -1.649694350272707 0.24380614282051558
Ni 5.369411674777346 5.649748118611316 0.624017691796367 -1.32692577271436 -1.1111006884878025 -0.03728099583864547
Ni 4.52050237804686 4.655363395835169 9.778569471813476 0.11812136432548043 -2.6335624561623803 0.29644382362088945
Ni 8.742659386786075 7.626237049495493 11.983425430723443 0.657334404861939 0.7186485303903881 0.25030049229560764
Ni 5.5052835885901645 6.677024402777533 9.911810247918055 1.6286488424563177 1.5882390711807035 0.5242674749702197
Ni 8.881648230007798 5.069287877278434 8.596614863719207 -0.26059056136770603 0.1260619593287958 0.8713646019716026
Ni 6.628960040871442 5.949591111658975 2.7338353841798497 -0.016275854341888097 0.03540306208964225 1.1968590631015452
Ni 9.310895274341089 6.336970212310483 1.7332093144671914 -1.4320805495768434 2.4733691023675144 0.08331428394862425
Ni 8.14380645389614 8.804951174222303 4.037756469660901 0.3855281772840715 0.8607819413597498 0.15110861788477847
Ni 7.839133624286934 3.7304496942989442 11.395387213266089 -0.09806547411586981 -0.5973752506994873 -1.251002124802852
Ni 1.868313696113252 5.569962213862042 13.395942021637461 -0.7807339868672231 -1.1958010541506758 -1.1623438029334952
Ni 6.850664515283843 6.096002552542146 11.893377995310557 0.06238293311259579 -3.0817080511673574 1.8266456402522024
Ni 7.277562162374985 1.0462961056644016 11.078928084822968 -0.033762184052109595 -1.010724306850569 0.5700703922369473
Ni 3.7149399284414186 3.597610468559655 12.923569029680776 0.9855375231722963 0.2603100540128097 0.17266500389931555
Ni 7.5999069521163625 4.3024202810556185 1.457711131328306 2.915017005463289 0.8367362132644557 -0.6570014470025524
Ni 7.399936742230922 6.836914457320834 4.7789005061192915 0.6790972504603273 -1.4343886288847296 1.235848556990865
Ni 2.523524082369609 3.805667846641174 3.3149835964183008 -0.42870728377470685 1.1262257170546992 -0.017395826878944233
Ni 9.140699696436812 2.609740409052571 6.911792836277049 -2.6878351014630164 1.8711843460945257 -1.9236993852741064
Ni -0.3946360236867164 0.35405042033232265 13.206490746495946 3.6071060401975945 -0.15496295863386214 -0.6517530541194195
Ni 6.442842850581136 7.422775504266144 7.376316407806381 1.6301110288241412 1.321971514032878 0.6303648182516305
P 9.21971806901933 4.623407849282608 13.284469206593991 -0.8261108723401257 0.3228629370443666 0.2776853120664637
P 8.377061351403402 1.948502087242655 9.5491297707839 0.15889031871272635 -0.09547020258486784 -0.2845686694498583
P 5.47087568316333 3.068977368779651 11.396085480334868 -0.4445972155320859 0.12983531032829898 0.7933035960021176
P 6.487631160555945 8.01712620578766 11.51584670676448 -0.5127206506728847 3.267151951998896 -0.13934787780442454
P 2.1142796751138886 6.608966763942248 7.121519128813846 0.31304055163730604 -2.3969322622650138 0.3044160431930886
P 0.27910745635232054 5.059721805639092 3.749970283735196 -1.3711142943061159 1.0107212215267756 -1.7072685491427502
P 8.63227515699863 8.03260789120006 7.790083638756944 -0.05967556148376174 -0.46245532675942935 0.42090090035641065
P 8.430751162482924 8.637236035637427 1.652066188203529 1.4535160937428 -0.4598603123387435 0.7007947900384188
Ni 6.120264057130381 2.6221426056495662 9.3096204221324 0.2431978198125553 0.33555493068973824 -0.19967084306419805
Ni 3.697146286380371 7.668348357035026 9.568199201068472 -4.084815979123249 0.5250262075131151 -1.8222660231272683
Ni 2.569866176974684 2.7811715265423587 1.1995657272620013 0.1702661646498358 -1.1587136623800756 -1.1585938489727594
Ni 1.6112091405462576 2.2797858186822446 4.7783117527864984 -1.4075033744581116 -0.5928010010652436 0.33550762239157056
Ni 2.6761506617738404 7.0268973888900526 1.1794498323890934 0.1607217154945103 -1.186028033924312 -0.2825840349196617
Ni 4.331680104876153 6.129848849066475 7.859608012842607 -1.4643844039158715 -1.1507761527005536 0.6009639964920102
Ni 4.04177758940284 1.461502927435055 10.528097393171434 -0.5779132853201338 1.895752522352193 1.9410713008936507
Ni 4.564064508584532 8.74928637183564 7.30443514835987 -1.6677954307487919 -0.994080784756617 -0.9935457381887534
Ni 6.422512608310439 0.8393694335065939 4.168614151989183 -1.7041462014636846 1.1184956954002931 -0.19164463032561188
Ni 0.582635539815253 7.185224298654714 5.3176341420108555 -0.3886173577323565 0.7216004139298604 1.5521711218135525
Ni 0.6660887506978876 3.3394388560779005 9.6845495894302 -1.194787268174181 -0.6749670303420375 -0.5411056295734811
Ni 1.529738409089467 5.09211727916528 5.288659802715763 2.7868228302828393 -1.0749805457264776 2.228295919909117
Ni 5.4980762743413445 5.047113685777845 4.5017043920651645 -2.206811524783096 0.2344632681530349 1.145532644913427
Ni 1.9722394235218854 8.551057149547965 7.708776709896719 -0.7554243044578409 -0.03690124390172354 0.42505734572694537
Ni 7.872876959179136 6.912413414114317 9.911194350154975 0.28788693518981384 -0.5738218888595795 -1.3461689372146879
Ni 7.4653828996695575 1.9396754673249446 2.044968712411179 -0.23996774291103184 -0.2966004038034118 -0.1832504927246457
Ni 8.054248554243271 2.321213835390396 4.308129971564424 2.209200593840563 -0.892755923163185 0.9810234373520266
Ni 8.939063380140606 8.818682511888563 9.81740753546624 -0.1025690184131782 2.5744643644486436 0.4498173262804447
Ni 1.3500422805844736 0.8603492700745224 1.5857607691440605 -1.4060373314355463 -0.9174557399027103 0.5169094919432516
Ni 0.8189858383901586 4.381157849186883 1.6719312310999843 0.0917906968507516 -2.26374346208345 -0.0791884347057088
Ni 1.575387852714785 8.974248177882572 10.990031947660217 0.33570122645961537 0.3721435284470494 -1.807060004810791
Ni 6.517789558620488 3.647743423256642 13.35289750730493 -2.6610724886571915 0.0246458235731382 -1.504950241153376
Ni 2.397040397377007 1.2922901651101633 6.975317355254278 1.0378964963899868 0.8971933901092484 -2.3355410036417257
Ni 3.4636386648669806 6.3931311025610285 3.750230495860024 -0.4685213304478511 -1.614771313143277 0.32837615355311184
P 4.457574100521124 0.8939915153642738 5.0921678239665065 -0.25483926070622565 0.27699651352955523 0.8000658544266156
P 5.552580418329499 0.4427125537856954 2.112671601623048 -0.015867820270192026 -0.4070665655764796 -0.18529786217197766
P 8.02547545813824 0.8774848937048012 6.1095354550628524 -0.9194871685104422 0.06128481495241058 -1.1723407662452068
P 8.042576449219533 2.2647534203918487 -0.1456532688647882 0.6666682806683552 -0.634842908627642 -0.5326814100655277
P 2.6350876908523166 0.934511597680042 12.510541250451844 -0.5476100063509021 0.9349713801889704 -0.8945464394047046
P 1.3632400897933517 0.03516888548972872 5.3981604344966 -1.6974839589521606 0.9038008681234369 0.35661355113225035
P 4.887167470344291 3.72277437263137 7.340711339402373 -0.40547968070533397 0.8594454819365135 0.5025645360754892
P 0.260657667890179 2.406419266048848 2.8034290233634875 1.2438971383269546 -0.04656550646436497 -0.3828706850565664
