# total energy = -340861.4974603372 ev
CRYSTAL
PRIMVEC
9.33474581431350 0.00000000000000 0.00000000000000

0.00000000000000 9.33474581431350 0.00000000000000

0.00000000000000 0.00000000000000 13.66234406981511

PRIMCOORD
 96 1
Ni 8.873441286789848 1.5320651466095336 9.3638150841285 1.3007835671013535 -0.8942103962215244 0.7808928810425906
Ni 4.938817947923994 7.748641762610945 9.262208243562986 0.026657968907160542 0.8992618426025029 -1.1768242559378572
Ni 6.992732721074636 5.4943473371396925 4.558372916989104 -0.338295726659669 -0.12581770452847366 0.5092866852906712
Ni 7.38676167402839 8.632054096379026 1.4059648666643443 -0.2563677815356101 -1.133899688660189 -1.141193651218441
Ni 2.1824075484321663 2.2650293830864907 9.43268683828957 -1.952073308431109 -1.4157075075354586 -1.1436477691858884
Ni 6.969871928727054 0.30967645643693914 3.6448541612204424 1.2342639861125646 -1.0915091395091203 0.9817528593188833
Ni 0.37441385170427666 8.699189587830151 2.019649721917377 -0.5500543541263365 0.22054562963067822 -0.2708214950670949
Ni 3.8247533813603294 2.4158508702077106 2.847533387102845 -1.8973072684338228 -1.5977686079376936 -0.8806845938209479
Ni 4.603635232193248 5.714077917404989 1.009766518797736 -0.33454448714735285 -0.21932564118064807 -1.5828520958371772
Ni 2.7212930859713698 7.369501729132238 8.040726890677522 0.3218818040780198 -1.092234704821235 -0.6949061924681258
Ni 0.5755486849562551 3.211572602377925 11.069681994952468 -0.7301202784754136 -0.08971555948927774 0.5144831418899461
Ni 7.021735776127283 1.171846642770903 7.547201683172863 -0.044267454458807635 0.37623518201791983 1.2253196324350832
Ni 4.692894071077516 1.0375383208856448 9.343007935846446 -0.2353742100030785 -0.5644029095385248 -0.7748057943082463
Ni 1.598295167722677 2.833664755338533 13.452367446976544 -0.8793789876356468 -0.8627395793067528 -0.5894439116675526
Ni 6.783410382323243 5.201404345938471 0.20769902646505276 -0.9054553730077245 0.7488204259880782 -0.3173821164354534
Ni 5.232591731497177 4.880653147140907 3.0060439043003013 1.4706630378357317 -0.472391869146851 -0.4263526674996012
Ni 7.585134356012239 3.136521246528782 0.7971611499652319 0.2537185168382211 -0.3071277856972969 1.2616472632215239
Ni 2.0260878960627937 5.61696855734297 5.46052475285509 0.6083266075046685 0.29236065469045136 0.12112235593533333
Ni 1.011008973457378 6.229066505818097 12.018367538394074 0.055109282269317994 0.669517320081376 -0.08987856742970327
Ni 3.1856966871523253 3.581947309595147 6.544850686400819 -1.655136090113569 -0.45971118835538893 -0.026389545737122298
Ni 4.856382808184717 0.7933684427660394 4.429208973487983 0.011175042780213014 -0.3268054666318823 0.4604915181648392
Ni 7.342318949501304 3.433310152979984 12.122584373871957 -0.06644630454869202 -0.607004032038503 -0.6348652772251453
Ni 3.4420661444957172 3.726551856045281 1.0858848360863766 -0.01788510781053694 0.07640521553361679 0.1347296623061228
Ni 5.482753582915235 2.247368044122986 11.326056119668737 0.38980854982698027 3.8089551218600337 0.06739941249058069
P 1.471977388201457 7.447344173961343 10.168035168831684 -0.05751429216638482 0.9393769654558338 -0.21261583326064026
P 9.085993447571564 4.354528207045209 12.835717876472554 1.5932573503309013 0.7138338826105641 1.358105283640958
P 1.1910202105462935 6.7075282341021385 2.1410807620372254 0.19369302821420836 -1.1123548726098778 -1.3689756506965585
P 1.7739937522739924 8.443958969468548 6.073075436499209 -0.9394165604445175 -1.4960423971407848 1.0445065455073368
P 2.3339198067390625 3.686963199309433 4.057128808221801 -0.3156535637801209 0.23347519320815274 0.3721422428954688
P 7.449005758705267 5.203626015427538 2.3242518105633216 0.09111166850585599 0.15471227607563678 0.03545602681476474
P 8.528195715138036 1.001039464993835 6.037553928487673 2.695702934246867 -1.496674631408145 1.6108449815056773
P 1.8827248707977264 4.3174972706455135 9.676642017256869 -0.017683790433008256 0.9163190551951058 0.4574864127899282
Ni 1.5115380407000476 0.32765050938314877 11.508953660144286 -0.22447118993732953 0.41673494190417903 -0.09128573218987505
Ni 3.507792089338232 6.301392115907545 3.509637568573478 -2.1375429202942606 -0.6503217209895317 -1.049140444734922
Ni 0.48361824183765645 5.246341811990434 3.6276530252225303 -0.6850053884146462 -0.26740989828238465 1.0162364949180498
Ni 1.1725747529395885 4.816420761618773 7.6083956089525975 1.9898975783677344 0.5001672394879064 3.079957387024838
Ni 7.115269928566141 0.019997825825325846 9.707314124850043 0.12351168210311632 0.11022884895128111 -1.3195482493033661
Ni 4.424333435781514 4.993136833457099 5.232226742938259 1.1321212566035275 0.06869781958703007 0.21077492339715956
Ni 5.744471849574742 0.22514940017455382 11.389804031886321 0.14381414110589424 -4.919371382686301 1.5274029137299372
Ni 5.359516269492301 5.241394396741672 8.57537538711972 2.70049907008393 0.6841857207268282 1.9322966400248145
Ni 7.182041364932922 4.466013075565895 9.897835352181565 -0.2779326521905794 -0.19099259856390977 0.24727661786761926
Ni 8.590178426933846 8.255975859507101 11.372070815380523 -0.7538122227757146 -0.763290337469479 -3.2511296084287102
Ni 3.5748902418063464 0.9673316980819872 0.33203317251389164 -0.06452929003163725 1.152160948863222 -0.06564077792826115
Ni 4.067036707363378 3.2878374751748782 8.764175287334503 0.5645705454646406 0.5718619369197313 0.21013857536474131
Ni 2.309938844901196 0.04840159020067079 9.098725107303235 -0.03709279108723934 -0.7264456578373037 0.3323719049760663
Ni 2.671800263992246 4.7744797489533255 12.900723178942986 -0.05344706407554666 -0.9173207569867426 -1.4459678490818968
Ni 5.968636434072419 6.5721464164553565 6.711981841300599 -0.2440120881837346 1.9714074899833467 -1.1092628639481155
Ni 6.55208604783349 4.367727537539076 6.513358988130587 0.032433695048673175 -1.8680164898895055 0.14780089366778415
Ni 2.694931763966646 0.8898019672355867 5.290087231009816 -0.47483364581912413 0.5100670151001215 0.894513272173924
Ni 9.262550828732097 5.592520858217483 9.75045931971755 1.2016667689028337 0.4751424353087945 0.08052258013610003
Ni 0.924037147282444 4.430615719672867 1.4998388038485888 -0.01428556338473669 1.7287490876140292 -1.4910050918271933
Ni 1.5637192694558577 7.7789143430859164 3.9259429587907144 1.5068716265458049 -0.46974466133199105 0.7640835227947357
Ni 0.5495187464257407 2.307969213547443 4.727512909174796 -0.08072389751362871 1.5091478241744913 0.45016262543500535
Ni 2.5171795353498063 8.173354024852777 0.8817442147021314 -0.2735862022964256 0.1511063038919333 0.6728895789877185
Ni 3.35147243696886 7.940106732738032 11.380500090794923 0.07710172738000914 -0.055478492683278646 0.06059318820202468
Ni 3.6826038730430715 5.622140006489788 10.321190342390999 -2.301918173380958 -0.034571310216966265 -0.5506637055755613
P 3.2916180472045924 6.624477001143204 13.275768059460125 0.124276842403915 2.087457830712411 -0.7003962690484196
P 6.21182523041345 3.1667378185292394 8.319383986979298 -0.1592369034188677 -0.8339627642843767 0.17228139530765166
P 3.6640183942500806 9.081503434864668 2.9150656052484454 -0.4542103131418177 -0.28849860063188376 0.08607847695732272
P 3.819796631365815 5.613962769210702 7.446305216759103 -2.468262120158252 0.20543757034464621 -2.9816165477603938
P 1.436346663664619 1.038966536985759 0.9372392782000365 0.06112154990166894 -1.6344291965835207 -0.9407717889208315
P 0.20816202985437085 4.42600435527119 5.939826608256846 -2.3114060582667353 -0.7256977239276857 -2.4971104118485123
P 7.191740165769646 7.300247250395324 9.214649580903755 0.1081799368420524 -1.4190741100148463 -0.197097425910067
P 5.330550553422663 3.018081992422572 3.946162951564947 2.884761549012858 0.329790003181503 3.5682846964550228
Ni 9.094590748409505 6.990772424466635 5.7226369457853465 0.741436217708865 0.0703654370974401 -0.862515893331721
Ni 0.8399861630534302 2.198659340787062 7.200438281861715 1.0957668863442096 -0.7511745280425515 -0.46314798195107976
Ni 5.628982375126284 6.684266047687205 11.089028255524276 1.5253334327954182 -0.3240890961419838 1.7380312842469035
Ni 8.346961626355558 5.703903044534894 7.591904847106441 -1.4300210959446533 0.7669960684558403 -0.2146729728999851
Ni 4.988684159733213 8.118148338473196 0.101576035904534 -1.1291351773920104 -0.06339414798592953 -1.183122173131427
Ni 7.275211462287437 1.0178140031108638 13.230354521374789 -1.083544633246405 -0.11711503454815313 0.8976690441940862
Ni 5.04654091390647 1.9928375316928129 6.660898378645269 -0.812405349828575 0.7525973765320071 -0.09623999087135683
Ni 0.3839586292360863 7.9199156776756325 8.169671467653462 1.8207971518912254 -0.519955220748111 0.6572217905434745
Ni 4.955844524176337 8.926854701984972 7.164683405206369 -0.08063776555772564 0.16547054303340536 -0.44858113988049836
Ni 8.099833567307025 3.4542386529568225 3.5207589846628644 -1.2830802362843192 0.0872231320847272 -0.381846100446794
Ni 7.891080648046527 5.906933764649181 11.741418700564981 -0.07971165419903047 0.22826279576927785 0.38167563630720075
Ni 5.123123168059004 7.351102945254294 2.3924953363352532 1.48517562962961 2.018667194301259 1.7217816551572607
Ni 9.20947346438406 8.545997075287826 13.315744108144695 1.4447897696133956 1.8956085405751615 1.9140703468247748
Ni 1.7247062947014207 1.033505710720616 3.1843235460521497 2.395626656079713 -1.3535132933949012 -0.7045995084964898
Ni 7.833513270991593 8.349220634827635 7.271550375003354 -2.1851576939587463 0.06338566334549729 -0.6565779863118886
Ni 8.68894937173979 6.591674704569337 0.6340028628576649 0.40655388760611916 -1.2195122817246866 1.1687823594699873
Ni 8.342592965343444 3.25573528453244 8.04373267880979 -0.3400019107174983 1.5391731668919877 -0.2945898011312862
Ni 0.3288052174327183 2.364183052468282 2.13864906076873 -1.6931462508087551 0.031229133217610734 -0.1214879668048682
Ni 3.2644259328279066 2.962932314517505 11.264151819737247 -0.4308819228285225 1.1351045076015676 1.0106376606740335
Ni 7.0016193990309015 1.9460704554733839 5.2600022789244685 -2.3415046774243287 2.6458263611313977 -1.450220967931296
Ni 3.6484480383351094 7.496332919669839 5.435522569831913 1.0625598034646218 0.8418205697658985 1.0107212215267756
Ni 9.295791858356326 -0.02264982709357729 4.248784207162237 -1.5099836898122252 0.32494141683995004 1.5632996276265463
Ni 5.399889044871349 0.4899434655594698 1.7558572747516912 -0.8585203990190826 1.1917862765643281 0.4463779615815925
Ni 7.731251131274259 7.232140945385951 3.3320132259734465 1.207624014927533 0.7125632434282567 -0.720877676831223
P 3.79076557207591 0.9207933231334916 11.821902878442012 -1.6331117633236776 -0.6474282014918205 -0.47956267586367735
P 6.189692548234555 8.023662041967594 4.730258257900572 -1.0895664139604524 -1.8327098441684115 1.4588583318913197
P 7.427573182457801 1.34288718919178 2.0034053973590833 1.8152111731630156 2.1202327111505874 -1.708861604661483
P 5.191584193406967 4.487062927237514 11.187423943550975 1.3484034829721616 -0.9961186411222522 0.3037472992608382
P 5.217338756937786 2.64147167504276 0.6163461912670364 0.3096130140129958 -0.5372967973503521 -0.2004275187245645
P 3.085320166076972 1.325785934973418 7.414759376963507 0.037701885426147975 0.5385090724908983 1.054854464400564
P 6.871763750869531 7.495446118823362 13.140209815118622 1.6222473098053483 -0.40413730774482653 -0.8926826467230885
P 8.32622915603952 1.1768780707314361 11.491288587282483 0.9738734565708066 0.24458801529186266 -1.8147699718605392
