# total energy = -340856.7901853556 ev
CRYSTAL
PRIMVEC
9.32014335799949 0.00000000000000 0.00000000000000
0.00000000000000 9.32014335799949 0.00000000000000
0.00000000000000 0.00000000000000 13.64097189895675
PRIMCOORD
 96 1
Ni 3.147794453208181 1.9579943042712642 4.641353910255824 -0.9302181817747012 0.5832244131204021 -0.331875424955622
Ni 3.1638250993527657 6.900587355941598 10.654962818974637 -3.3563903147414393 1.254319104991227 -1.5706622386392046
Ni 5.869322841260135 7.989888401752321 5.004340863784927 0.4772383986058749 0.7663790036971317 1.1701931237745846
Ni 0.05546696767457267 7.153442838443095 0.18149860284326 0.8736713957279083 -2.4497162388352645 -0.9365847474226772
Ni 3.9211612879670894 3.6725464705794217 12.763379572926436 0.16935676546168899 0.31983237774815887 0.6451286068243665
Ni 1.3969869302125624 8.199200175656435 11.809016491037752 -1.8742709554396495 -0.8124660278631813 -0.9573181233152869
Ni 8.310883450511408 4.722879998058454 12.473604207533926 0.9008479561427001 -0.8812998588074435 1.2323042912830326
Ni 2.6065644228232046 5.59187150109843 4.089072054174192 -0.009275511764654994 -2.0619982529887264 0.8888283059740046
Ni 2.981737463465123 2.054541666719956 0.9348569543793813 0.5562404283323905 -0.5299670964581582 -0.8620710924848185
Ni 6.940319126008088 2.396674800046437 10.442095410475082 0.2775837534915929 0.11429067772548059 -0.2673574477778944
Ni 6.184996088304945 0.7992143876384291 0.9358570057347962 0.6191378391875595 1.8599663658915193 -0.10077875928197483
Ni 1.006174689436567 4.169170296052781 2.94815512382084 0.25676296009149974 -0.577054022643632 -0.3574494167699844
Ni 2.1274997469640295 7.216465646134768 6.696585267565722 0.5583783006109997 -0.3225916856608509 0.1429348238247345
Ni 7.6285557736247664 4.3685561175476035 7.273693188842313 2.1323318084069665 -0.9192022902801719 -2.4863968820857503
Ni 0.8340474904877139 9.282005081721358 7.174687172641912 -1.5100739355331863 -0.012178287233746768 0.33815662997864343
Ni 6.057216926303635 0.2929908147645336 11.277727325291039 0.7676547850857618 -0.3638599482820185 0.9051941489265378
Ni 5.103281638983577 1.1185196944521603 8.76591986542561 -1.201911280813472 -3.037307927785427 1.3741628513244528
Ni 1.6258896449282556 3.1994373661658213 12.347480302948476 1.6480501298010648 1.486953033245007 -0.23618667860204487
Ni 5.468994734371569 8.046443030127516 0.4050170708858564 -1.3328405955368983 0.08432292771879671 0.1585607032874495
Ni 9.006035644313716 2.2799866083428344 12.098900902104615 -3.122197526640971 0.7473075888879775 3.4157028364588267
Ni 1.082879467209782 8.959173964770129 1.1964687113302017 0.35723472965601705 0.6452941858679532 0.26171978987614286
Ni 8.609892281680336 2.39958268469592 4.270169890863838 -1.1538375652346968 0.800960598326743 -0.7775977552310867
Ni 0.7839414691284695 3.757835100154475 7.809401966450515 0.695518372130828 -0.2689505032966271 0.3292328451264523
Ni 4.916077244530018 0.9142920586130874 3.2704773609584095 -2.47285539595589 -0.5244343395653871 0.15461920214119823
P 6.92829614139965 2.1572123631901543 12.725948946193142 -0.14188349974208467 0.1280530216168956 -0.20113662897644716
P 5.594341339021869 8.167306645943198 9.17142531181029 -1.0889120682059052 -0.5105200434771402 0.33285064438469775
P 1.4057385445903325 5.9391213929908275 8.479895857633796 1.3572910152697786 0.5627442908891792 0.13075088016403288
P 0.49590897049702837 3.2869069092279872 10.355461884249642 0.5584544052645737 1.1034442003838094 -1.5134719054711419
P 7.688698657096281 6.764867432012855 5.957530539656399 -1.7670873210725953 1.198526423501639 -2.9053422013776866
P 2.718480701255861 7.131531181997794 1.072987999329987 -0.2355423601498266 0.959109925108387 -0.08610033133419365
P 6.716700932434243 4.971131329864937 0.4440610143910267 -2.1333026569606677 -0.3271096281358625 -0.8675663112714349
P 8.523643677365229 8.204866822665684 11.356791031284716 -1.1101563222966622 -0.31473002352458695 -0.6397498590109563
Ni 5.9909600289537215 2.6925427429881994 7.672310117456375 3.4978470113587496 1.007307053638904 -3.207602374570037
Ni 0.07282480219763891 1.1479806668143875 10.426626768959867 1.619208265868708 -3.999389533927628 -1.017218656325661
Ni 7.095303785739654 6.885293001102491 12.908437348234399 0.5145363637253848 -0.11612387427947743 -1.0250939453086798
Ni 6.194894080284914 2.7520145761559855 3.0895025501577806 0.7045504004261093 0.9883765352829882 2.4345565003756913
Ni 3.117010020524715 8.694081134368725 13.221143061713839 0.5334385999465264 0.09925615198986132 0.5397329175956704
Ni 8.45118888484895 -0.2108523935597533 13.25273555080471 -0.6344215048195074 2.0989961703693143 0.1148727754811957
Ni 4.644702637674284 5.784863704421633 0.6001864596389282 0.7264168614818973 0.6744888051540384 -1.0302940014523805
Ni 3.331140308415311 7.328773370577932 3.1565348834142224 1.3900157591963094 2.559259117463115 -0.8340820634710603
Ni 3.0514148533354213 9.56554247533214 7.715278773224036 0.8914410610065036 -0.6382344508076944 0.16255928292388133
Ni 8.24669562493132 2.0226388168636116 6.430953732892715 0.750013932075547 2.036460256618622 -1.899839547937373
Ni 5.055925991855302 3.578496906483491 1.429437804483617 -1.3143484502699816 -0.8539947432345872 -1.899168747122594
Ni 7.312341958279733 0.18402995371120714 9.34335585573958 0.6297631801118897 -1.1622990657384886 0.011554023386186553
Ni 7.571516497807991 7.835984878621203 1.7067586626418194 0.2496176072959701 2.52513800740969 -3.1394812534220833
Ni 8.712078330708954 1.9354954788102021 8.538389075775315 -0.1880689971592116 1.3710739279864839 0.7931989521034534
Ni 0.038649701451730786 6.1643333310360235 6.878200372197823 1.9695508963905823 -1.2889505790221674 0.6185372294890831
Ni 3.3699587044572845 5.085284442643348 6.529960681107429 0.2294763564614048 0.18040736684889574 -0.5562077753222421
Ni 4.463947782250988 1.9562980382257327 11.046431197825386 0.1733661437313982 2.0298967444684908 -0.30801558761888886
Ni 5.043996208677937 7.51174642006077 11.248208568041546 2.7319619165789013 0.698791643565461 1.1187250378022797
Ni 9.187293787464808 7.455872162132407 9.373106684552443 1.5383622409549185 1.2503953444567886 0.8779322278867911
Ni 4.844507865608934 5.375290015570609 10.235285162980972 -1.8704778069458046 -0.4726407519328634 1.2621856522234973
Ni 7.738253857997883 2.9803953628576694 1.4145824283848651 -0.11510803142045338 0.6638405814115729 -1.0403297884218279
Ni 6.407495864705911 4.827219000144862 8.963864792796041 0.6824322283708312 -0.9097894816067041 0.6491891500469853
Ni 8.192815877627924 4.912787234013135 3.737394162291509 -0.49954297564034605 -2.423784863681484 1.990996724969184
Ni 2.805605399023056 0.4068372948347153 2.708305901025604 0.3732498741373507 -1.1593291844768874 0.04815676221088481
P 7.334673021164863 5.778768330829447 10.889778232477612 -1.0161593618232112 0.42287679313585885 -0.5648029731904208
P 1.453308555010076 0.8944196494796671 12.548084267147425 0.22184377961681148 0.7302460054200005 1.277343076690226
P 4.66430289862897 0.8290546898251244 12.893595952350308 -0.24120290086971366 0.06870758977904295 1.0156960490335476
P 8.448103917480429 0.8958167389314539 1.7176166293618431 -0.08022947437571344 -0.5267560457200283 0.209863981547116
P 5.511382745223645 8.05689091055082 2.7907928955825976 -0.22751820429376945 0.7622819508096226 -1.5380089713805578
P 1.4983528066477365 8.928827578812706 9.443317186608482 0.3897332165043546 0.5711014046046229 -1.1960455660613143
P 2.8813036013406803 5.18002369732922 11.68402405182553 0.8236217873696847 -1.242690262503047 1.566733850119076
P 7.939326625395129 0.2601009617531244 7.329171340688615 -0.4991645092550049 -1.9941859213304427 -0.22648487793324865
Ni 8.242548161248564 5.5592603203659285 1.7009745818294189 0.601471532256048 -0.13357909364144738 -1.7976004020597882
Ni 0.8457219017439384 5.729287691072704 11.360692443189437 0.20517711759440793 0.17491729026860198 -0.04109779848157438
Ni 5.985983072534416 5.276915905072884 2.6226267574543543 -0.1104327374319711 0.9941900566409718 1.0307040924066055
Ni 3.565075900408955 2.7202608485893585 7.19603496042922 -1.2847661086271744 -0.42813444199037237 -2.42327038593891
Ni 8.804851035199182 5.173676679873139 9.417862943768089 -0.16293286421321618 -1.7623991715683065 -0.20141096568375633
Ni 0.9233083650551054 1.5412907059431435 3.2211244071622365 0.375057873880367 -0.7187326054637622 -1.104379567713885
Ni 6.064887404080957 4.222630636916349 11.819642386194403 0.10175680692452796 -0.81528267137637 1.2036336628212174
Ni 6.155180950504639 1.4452000305067108 5.404621437943645 -0.6271735650078424 -0.25347451914821506 0.43863174197727034
Ni 5.9114126075327755 5.89326628890283 6.845080311651663 -2.658193110226867 -0.3389163909628034 -1.8514467584562824
Ni 1.278854116327326 4.550494631145528 5.639572925535987 -0.8136155680865922 -1.1604252457545434 -0.8102271112303335
Ni 0.6192125997782042 2.2250164042958818 0.8252418192799211 0.43061427098943256 0.07427865610891725 -0.38080403233552484
Ni 7.521979937192603 6.825970290224421 8.010647156495248 -1.5096077945300452 1.739455675398256 2.5416172360116356
Ni 2.4063957093073682 9.099880165261286 5.293747151510387 0.252950528323945 -0.0035506934657358203 -0.7264939945767359
Ni 7.351104433463063 7.043735433926872 3.607395874216347 0.09866222715960427 -0.7355949284367397 1.9852531376171876
Ni 3.911058252838758 6.437935452094407 8.283848511400015 0.22734002684469234 1.139458413694889 0.8220891527752422
Ni 0.7231051670097719 6.72286154702818 2.5272350927509697 1.9435321037293176 0.8947806669026978 -1.4907335833333617
Ni 2.583813953498245 4.526970589942661 9.624250988779439 -0.1932921932313639 0.18083339864272083 -0.16354298699338932
Ni 4.6570797877208 3.5499027074302436 5.285713188151879 2.142921925217987 1.133067679677197 -0.8746016208516615
Ni 0.08258019598806708 6.643127722745088 4.591891910785296 1.4424261544772252 0.6477434187393941 2.3498147399519205
Ni 6.996100182505376 0.5871643556893856 3.3450524860316024 3.0657155323938428 -1.5926204880778505 -0.7841514971892044
Ni 3.054919227143772 0.2046917789658171 10.70779405017846 0.6350977049509255 -0.248293746278224 0.16637222891206832
Ni 8.413992193707651 9.107914128619793 5.0292899548689025 -0.43822242235399367 -0.07389324774504048 1.5360312788288966
Ni 2.6144213034626724 5.031647019060743 1.234105313226167 -1.2918731519856008 -1.4273975422788772 0.2921138287869679
Ni 2.6483466243733043 2.2549620240996897 9.218732494194407 -1.079357591748251 -1.2876768545160662 1.2918767515300267
P 4.567214967880054 3.292899761245992 8.869564516850524 -1.423206387015665 2.2944781721631453 4.059313978197403
P 7.050977185121257 3.6246316148647075 5.050024477239749 -1.5195427942555702 -0.19963073385488203 1.19506957530129
P 0.714210022428149 8.655355939757825 3.785233524847053 1.8281787890672774 -0.13562672019909547 -0.6959516030135047
P 4.664405420203151 -0.12432604898004841 6.186412750057257 -1.7509276805935974 1.7233716253521996 0.6519934522649997
P 3.2683132237288905 3.292275311657801 2.672375817332588 -0.4591866833104866 -0.2827982078129968 1.3375102330984254
P 4.590981332803711 6.333195683854385 4.954618832321704 -1.7469699814974302 -2.4091470591636512 0.5167505977678842
P 1.4812969447613473 1.9387761691839778 6.444608674559245 0.48119506926077776 0.6969954708969867 -0.05207975141437482
P 0.505746381546801 4.506177350670238 0.525931947488627 0.5179998967939531 -0.33846979034368807 0.3871644273359139
