# total energy = -340891.6204147925 ev
CRYSTAL
PRIMVEC
9.07881939752960 0.00000000000000 0.00000000000000
0.00000000000000 9.07881939752960 0.00000000000000
0.00000000000000 0.00000000000000 13.28776988941097
PRIMCOORD
 96 1
Ni 6.290305311408712 2.1171988067216585 11.34295874620952 -0.7485067514024012 -1.691397643548764 1.4451376398711175
Ni 4.490293212821781 9.515692032234305 6.130963862635155 0.24763785786177997 -0.3696058496268602 0.3507398659602927
Ni 2.6070737358092617 1.3244181521794647 4.844215547287491 -0.5436044847359347 0.8320892014107476 1.1030130263836617
Ni 3.5427640841645682 4.378069928073424 4.852321117113827 -1.2161585347611055 1.6283300256643185 -0.26924489460859435
Ni 5.2825200593897295 4.781541734359464 2.854080263260122 0.011949201942076196 -1.0453167001134578 -0.9896852267920827
Ni 7.406346404163835 6.221288127470761 2.2785866213541492 0.3558463339489226 -0.8947238455228332 1.4118727071704007
Ni 5.0632938109617225 4.349244676954903 11.51148705218208 -0.17002036718761687 0.6830343807312044 -0.0647876858993465
Ni 5.587577465006553 7.844980477404846 12.458174574294823 0.21805654466023738 0.27128969295276506 0.0710820035484905
Ni 1.4380758903693107 6.686968003257308 0.45323099883104473 1.477410126751578 0.8058958308448314 -0.002864980252620872
Ni 2.6396666969165024 1.5908179454300955 0.29135928313253234 -0.34259666802786803 -0.49584830039757827 0.9806668253435562
Ni 0.5093072338101486 -0.09592135690318698 4.464557483894011 0.7711167754924333 0.67921063610974 0.6694471289650729
Ni 8.639386240592778 2.262033210215756 1.3131132064494546 -0.5177774963705019 0.9562189767138372 1.0274681019678111
Ni 6.870677910779596 0.5509853693407921 4.7599976962793855 0.3145528745167744 0.7340034155799037 -0.12345280384072288
Ni 0.690529544857957 7.344210965217329 2.765211333150279 0.39315098393665193 0.8620893473172637 -0.71384545257479
Ni 7.865398741897933 3.8686029070444765 3.664886913423047 -0.960719692797668 -0.4976658132222913 0.391901427800267
Ni 7.8323518398281955 3.8202309580808613 12.456314324230513 -0.13017726704875002 -0.5102480207626762 1.1487688924625377
Ni 8.259501206718047 8.947866361066822 6.763381701238174 -0.2192186832891386 -0.6266799132008756 0.28569044175912733
Ni 6.6516060022788395 0.8546319264461767 0.30100916011328055 1.4108193262052218 -0.9217664514629222 0.22913825639569568
Ni 1.919026340134235 6.262333469299685 9.162422464872666 -0.3598973640898447 0.10084175130942634 0.2053748354275108
Ni 0.405807786479047 4.741531377925033 1.3977005654010317 -0.5735380390705735 -1.0049848332636306 0.36163054473086753
Ni 6.398234314651854 1.8992889870848917 6.811284275246568 0.7589953096385509 0.7273406588477473 0.84363885392156
Ni 3.429859887972466 4.3902537035068265 0.3777378931221202 -0.10318016963461583 -0.20503493558958882 0.25873242511304473
Ni 6.156183914629529 5.89969819199982 4.889035862160534 -0.11000464875561701 -0.5977395760174415 -0.5084071108991953
Ni 5.546532123177629 2.9698815106748757 9.187310232082494 -1.67666496532428 0.16517306639764456 -1.2655753946313364
P 0.25883259740581605 5.4423526722847075 12.49810412923793 -0.9042019602165977 0.8737675549861402 -0.6802910136581123
P 4.03920299956987 6.157554816336268 12.50384466664966 -0.19695678656714466 -0.3273356281037395 0.003203851649278353
P 2.426532336205198 8.468822463344383 1.6606386048716653 -0.6934859150818314 0.4483042320700279 -1.2051285021991889
P 6.387621174948689 7.952582643154989 6.045257085270062 -0.2525404373697199 -0.6304010708062047 -0.6597108755139155
P 4.65512825512347 1.050083470904397 12.663164326257018 -0.00365456603345177 -0.16853375533976137 -1.0930075784315176
P 4.043433729340336 5.998412193704284 8.300643691912946 -0.16843991007437442 0.403154375006267 -1.0976872432953741
P 4.636444045107119 1.009083523171723 3.9117336536551086 0.84212730237304 -0.015355913630780007 0.22619897126171368
P 0.17189654791428263 5.473647362239209 3.4838407314686872 0.9930204618129026 1.0765139516518685 1.3618614082492801
Ni 1.6192618861401191 1.3426393424140697 2.6414361587883133 -0.5660862107782185 -1.4725378862609415 -0.3529268463092825
Ni 1.9800087690359998 6.430527674723848 4.900476082297368 -0.25134358884814134 0.9751980889195011 -0.4433011224284817
Ni 6.111461651004385 5.634097334843183 9.116884923278878 -0.7591539467036023 0.37111354452063827 1.241512697255178
Ni 8.456302771598732 2.318430835396308 10.281797300056363 1.4671372840706602 -0.5747809103387391 -0.4007195403125292
Ni 2.467604914491871 5.190370044002963 6.8581636663254955 0.1281630648321986 -0.3908349342089656 1.5316488334904848
Ni 0.6022507379993592 -0.05160673226236448 9.284283824136747 -0.28496230534385114 -0.10007479123641475 0.14107128825343446
Ni 1.4087966982882936 0.8320547187354563 11.586217537074011 0.008699070435894697 0.7286889453455258 -0.9416971289485783
Ni 4.122855240138704 6.867264274741623 1.3934353361174157 0.4673345092286016 1.104905101200052 -0.08823897494375126
Ni 5.451177284595637 7.8901022090769874 8.015341796983964 0.30231159525557616 0.3109263335077807 0.9711318892699274
Ni 5.206130874220837 3.036765172089093 4.882604426603886 2.247950203804935 -1.5304890088544285 0.49437454406552916
Ni 0.6989819255796398 7.100408353079769 7.082992454112632 0.5091730425309425 1.013811687526641 -0.21646297492087238
Ni 5.253830990559957 4.723537158171676 6.90971955720006 -0.3673823596129802 -0.5453260954127318 -0.0010441249937982017
Ni 8.328736282317998 6.960313093234133 9.114706006658896 -0.5144070372363722 0.9345157807087905 0.780975670564384
Ni 4.700195513880112 0.3248083768950413 10.398623546164432 -0.24825749372364986 -0.5657902768043546 0.6010827814580615
Ni 8.284676772498099 7.136333240851733 4.924872685385774 -0.39863103321461674 -0.20383988684022314 -0.5411909901984356
Ni 7.220058111974566 6.164454718966214 7.07192355768312 0.9277098135305506 0.4470621321328107 -0.7034337703231627
Ni 2.4342220961098864 5.670176562542396 2.580378375686774 -0.2728400681590204 -1.7005214602269036 -0.006705694154949741
Ni 2.1864429611408576 5.1076438429976205 11.343317359569893 0.6931326455074709 1.9182756431553738 0.4880537440538239
Ni 1.198676505567965 3.530662018104415 3.9549452017570648 0.6494182353386557 -0.24530175352943562 -0.5519744539671849
Ni 3.661042941352628 2.7283939974460463 2.996471556494064 1.1942439940762015 0.7188771014614265 -0.01248039185519786
Ni 0.9534666764466655 3.378782450872373 8.097580465395588 0.6365660619663359 -1.1570961813813105 0.10778810072027244
Ni 3.673181322689781 2.918014216300038 7.278946965157298 0.41857379488513075 -0.11962828788831012 -0.7648155158647537
Ni 4.189648113360423 6.993859330362616 6.042134879330012 -0.38190343604729066 -0.06359417981187758 -0.017217906540183254
Ni 0.4811565389618976 7.455308476378695 11.425462516143238 -0.06330081694117486 -1.3923755176777375 -0.10285621063629381
P 0.1817552377377792 5.2691197221768356 8.06700481792568 0.197453266587589 2.3888913942384082 -0.329362171615465
P 8.441622320871598 1.6646378247512583 7.899193738673864 -0.22958408568386268 0.242431373960176 1.3885785125291503
P 1.734935122203449 3.080979021836242 10.223211679436577 -1.3605599158290373 0.4028183318230869 1.622309016281219
P 4.107748084906825 6.311241068599046 3.769301505734542 -0.031414252645223316 0.04675679653956463 0.9190523949658688
P 6.9179876378909695 3.8713901045542047 10.4121500789649 0.8688071256570714 2.632803209398853 0.24071541971033383
P 6.535097514844515 7.848548453370067 10.290646425179267 -0.5121097565617632 -0.8056194372549932 -0.1996479602460626
P 2.2178738333841075 8.441404429209602 6.058292453949108 0.3009298844167011 0.15743893097818049 -0.17896420664446597
P 7.136333240851733 4.072876340167851 1.6017206994673339 -0.839614049032883 -0.3525681774182831 -0.9644153964817003
Ni 5.542010871191165 2.969827037759376 0.44924085777070144 -0.38934806525079396 0.6396449580019758 0.12701583860163287
Ni 1.4451392117457544 1.1382751210981952 7.396810012423711 0.5474413419835217 -0.6079831081223207 -1.7740051312383511
Ni 6.824512114893714 0.6665877906139724 9.181078530549343 0.667004066741219 0.07075341656447814 -0.3136491317555824
Ni 2.9335026819404146 1.6901583856628053 9.198644230034102 -1.1594178875359515 -0.5761268828436723 1.1750517374184666
Ni 6.271430446188112 2.0481271498682077 2.785435310911418 0.9868395298131714 0.4257255754385636 -0.32842988960918273
Ni 4.090162412019714 6.847835601546778 10.312837783071863 0.350990291408202 0.18390586692045746 0.8912510564828844
Ni 8.111970393906722 7.221837560547552 13.42835444909868 -0.9683520125319452 -0.5157717787943827 -0.09263658979081466
Ni 7.549265176796197 4.003105614232156 8.142878326161176 0.22834121441569705 -1.7270079365532063 -0.30474540150804935
Ni 2.998870180539895 8.281244978821626 12.520640482262026 1.0034524557795041 -0.2511983215195287 0.7554135058245636
Ni -0.055247338781585525 4.7949329927531075 10.229337158784505 0.2442118628993665 -0.5291664549337338 0.3625008631509628
Ni 8.887573922428052 2.048254253337707 5.675604788571927 -0.0305750445733796 1.254489054910188 0.09606232764291198
Ni 3.4825805913567973 2.5795195193857308 11.614507137856785 0.08356419517590125 0.2962023970340447 -0.819087389834441
Ni 1.2578704070774942 3.484532537495532 12.56200539852855 -0.3338065805400638 -1.6975580067232054 0.9441941843388192
Ni 3.050401558602485 8.344696846559371 8.334115482723579 -0.25705040942493146 0.2791058465630742 -0.34642684040723565
Ni 5.572352285124423 8.010977608570524 3.606420225335437 0.3341811902706632 -0.38059088788345424 -0.7321995296019455
Ni 3.1549713987231534 8.368946372775929 3.7718127071390715 -0.4781477977940217 -0.5820777011104686 -0.42566849694838305
Ni 3.3945069658132474 4.2452831177239805 9.549574185675036 1.350675309725474 -0.1850687768803071 -1.3029278671378657
Ni 7.087234986348124 5.959327876833345 11.505201785615354 0.5164654624272977 0.4875408089731475 -0.925734949192367
Ni 0.33481959088193664 -0.06519318526988141 0.6370316945458326 1.6478066463316914 1.121179155769727 -0.6448447570353605
Ni 4.628627181732931 0.8617760493139448 1.523004612924685 -0.9082792156097649 -1.4419026778735877 1.2324243618006647
Ni 5.956204763011371 5.464232626677034 0.2946975649707308 -0.08272498710405753 0.47405434445093847 0.5911248989144013
Ni 7.883901375529287 9.02227636363923 11.628020960310302 -0.141878100425446 0.8170307644157283 -0.2904935195747255
Ni 0.23745197807223614 5.046597862361106 5.758228398919746 -1.161593812141348 -1.5813251176696894 0.12670293534690438
Ni 8.0142459835005 8.896453007654483 2.4719500373848864 -1.3156980223193404 0.5208666768187868 0.40474228831867715
P 8.648583084492953 1.7366237825839357 3.5154522722150108 -0.6122796786151455 -0.9315217310774732 0.28599897413848163
P 2.0733844250215068 3.2138384627396848 1.7845345275296545 -0.9653376511856537 1.5896945726803073 -1.962452594782904
P 4.716128841663735 1.1988671607722134 8.310064782648597 1.4018253502367277 -1.7907399274945288 -1.472493149065935
P 8.859193533452778 1.8249879303434828 12.566443125377912 -1.1368227758442548 -1.6842836582118024 -0.7301395617491232
P 6.327129002286419 7.82942846002972 1.4121313485987919 -0.5495961835429954 0.9915333357444152 -0.7197469056608895
P 1.9757235663500339 3.12136160985992 5.989209902512558 -0.5576023416769236 0.22674147402874498 0.31471151158182575
P 7.118575070398873 3.954751822907041 5.860225301664984 -0.7191684074496002 0.1807513804518758 0.07789774091874326
P 2.2402440440159297 8.1146940396817 10.506067740459628 0.5654881721829036 0.5043488816694217 -1.6121279619831592
