# total energy = -340866.231852007 ev
CRYSTAL
PRIMVEC
9.33203267929960 0.00000000000000 0.00000000000000

0.00000000000000 9.33203267929960 0.00000000000000

0.00000000000000 0.00000000000000 13.65837312247329

PRIMCOORD
 96 1
Ni 6.600220079864608 3.2184594201663383 5.578830971542882 -0.896287076244895 -0.9466346754595115 1.176412108101103
Ni 1.1834603859489583 4.487811834725611 0.9172781523476657 -1.0348646515421984 1.3103529559573435 -0.27327381326232936
Ni 7.655924938686751 8.10146417401294 0.02862414378057547 -0.7189079546993619 1.0698637933252026 0.1769543753032888
Ni 1.8807312023011369 7.082088918339421 0.4220822380299157 -0.3840022275578483 -0.1373619577226473 0.5478246934648695
Ni 4.614419521835143 5.446715518756926 5.574500908388255 1.1534686119310522 -1.3899106010770128 1.8737515926010697
Ni 8.354324930990892 6.7679633669430945 9.376636977342773 -0.4135948536133007 -0.17827849343135102 -1.4177985857365323
Ni 6.054548134087674 6.861862279576404 10.694096020268644 -0.30990406289085337 0.7413544566283362 0.4943367488490583
Ni 6.983561317506338 3.0566699699254634 8.192128604126003 0.40668527097766094 0.1927103525859649 -1.1980587398366012
Ni 6.286589126199305 5.474254347139047 7.785218384796071 -1.317496251870344 1.118029811507468 -1.4845122850139982
Ni 1.335964463692304 1.1956200245060247 2.3680480814433453 -0.703806323171233 -0.2116241587713323 -2.159648493944048
Ni 8.145250071257571 6.410322547249301 11.627700563756438 -0.17798615900191284 -0.8468473335565286 1.3606342207103987
Ni 3.165714771567306 1.3241781064416709 11.121972517377671 1.8740472694646175 -1.1294704492442418 -0.883562429589375
Ni 2.431694410596764 7.036809895869055 9.250187934788475 2.2894485801590374 0.511629474491235 1.06438425826787
Ni 4.0111875986061865 9.160845853703451 8.719669343646203 -0.8555913982977459 -0.9745895088012249 -0.37975116559097827
Ni 6.250670132487756 2.357159465734684 1.3844807682927125 1.122562152160183 0.6791630707012561 -1.067133024657601
Ni 4.551726926419661 5.121120899220435 11.784130627640197 0.09196707452761582 1.1073872441919572 -1.0366762508296405
Ni 2.204580731730052 3.540694507944929 7.543328365414195 0.34419023776723306 -0.37199106202958515 0.3778374935080332
Ni 6.355347542844329 4.630367965652508 9.907305814210885 -0.646499519029964 -0.10331078167520916 1.7725763692116245
Ni 4.681451512437913 3.596584051550663 13.49757301285343 0.6409562206142316 -1.9293781808264383 -2.6431336447905833
Ni 4.930999397821267 6.946158530601716 3.9182592173696036 2.469603207567179 0.4778534064820545 -0.8587875366375403
Ni 8.82987598335432 2.96676516727099 0.02388720400193624 0.9825730412273337 -0.516008320285221 1.449370961226175
Ni 8.561626704518652 5.011301538867743 7.245821297780282 0.8793872151657629 0.2839598322212658 -0.19819451562898768
Ni 0.2997850168064228 6.7455104963611285 5.42544688311962 0.4973089441035048 0.5529656142358605 0.9646524521931709
Ni 6.3025935622126354 6.774085180368601 2.0268754997861245 0.5085354089469435 -1.2445049471142824 -1.151865014889358
P 4.659791864632117 6.555547639517196 9.112976258966437 0.46019069909496874 0.012508931100288135 -1.1008707832296782
P 8.361286627355874 4.3455543288438605 9.308099729871811 0.5875942600533235 0.21924850808580948 0.996889972070638
P 3.445535770902407 0.5120448992868855 6.281322126965532 -0.738620859747257 -0.05697410339219865 0.8543968637690126
P 8.107651311667071 3.4972725599740695 2.732931491685212 -0.24463583781066253 -0.6049530630467452 -0.9833145473790484
P 4.922311275414033 2.9582356894189883 10.910130709960413 0.14149963404010468 0.7564375762137037 0.8974026779065771
P 1.365826968206972 2.546506408423002 9.76009579859603 -0.06226414814654438 0.7123128179803474 0.4494612284926065
P 2.5283276087996978 2.665583145175241 3.3053537090844265 1.3664816806301112 2.6226270401967993 -1.1818548763832293
P 6.444272482069414 8.693609642440824 2.955084261989425 -0.7653153383193078 0.5323273691602187 0.4862796828725367
Ni 3.7619849984312808 8.70944610186626 2.8136927687386 -0.29703800556146265 0.7170220505305587 -1.438028539630162
Ni 8.455446836903686 1.7571284297083936 10.90429912275066 0.11574335101160711 1.4860562324623503 0.43817100029076794
Ni 8.814496793529266 6.760059135279368 1.4812502141724946 1.1173027035334564 -1.1940545037732146 -0.6569127439434881
Ni 5.054630166511994 1.7477030767209514 3.154278365541454 -0.5793567026348796 -1.1253669685988297 0.001932698246338607
Ni 3.917167369548286 4.280640709655101 9.313931317081567 0.3566837422485534 0.19150090565889602 -0.8952622345248066
Ni 0.8185079186654008 5.516677767615197 3.1677043609305957 0.9647321563911707 -0.040735015825516946 0.24975079043972473
Ni 3.0115122638796885 7.623356144700441 4.6163391209534765 -2.43765673656757 -0.888606676881502 2.7760506793679993
Ni 0.17405080795394487 9.191986846692654 9.842783207190614 0.5595558658588685 0.3487138366691994 -0.8904283034712729
Ni 8.194009941910428 1.0285393117464565 2.3029795505124158 0.17517877146010477 -0.721003660886126 -1.9950420986831512
Ni 1.188079742116071 8.240418140332753 3.137505903240138 -0.5753702071833059 -0.7593310957114148 -0.0950490558870492
Ni 9.159819330110759 2.1649009288561865 4.110610141371443 0.15740524952676763 -0.014679713499361815 -0.7246631120155842
Ni 0.7753043402588048 7.314577848018773 10.912083904396326 1.16151796459809 -1.6020690350852602 0.10710907237537684
Ni 4.127660698246053 6.463851086591844 0.5996857508178399 2.1265095452982345 -0.398447713559217 -1.7474957720939128
Ni 2.5898816962305573 0.8554450371402471 4.238466454450995 0.05792901110630024 -1.9128891820324798 2.136375896569353
Ni 0.5624556065174435 1.114244699703554 5.982695215412318 1.2116861008120487 -0.06298559969360121 1.1392079882469799
Ni 0.5403825496647734 8.623414092766033 12.67051788547397 -0.218467664055727 1.1522452810469124 0.09864962875411397
Ni 1.7687188142731491 1.035137058837666 8.316378086582143 1.8615295966135814 -0.8310155087305947 -0.6414897245201985
Ni 8.392315635953146 4.332629463608606 4.696513413152498 0.6703315884525552 2.7168019210090115 -0.6620881174968404
Ni 7.246668646345886 3.7165846595363243 12.136256216031438 -0.7833958499701025 -0.8042750074119568 -1.159428686169229
Ni 6.066857085167313 4.691147494372518 3.778260996595041 0.6206231654838343 0.0894875026388717 -1.6495169441545787
Ni 3.267461923668377 5.79932637284653 7.404818603849035 -0.48131693955062266 -0.8640104755993766 0.7396750120433843
Ni 3.5842471043730404 4.952967002704871 3.6671370180763643 -1.904128148010398 -0.8350693670849941 0.20605077844861286
Ni 6.452092725439193 5.533774051449845 13.301507006649311 -0.4467793107850692 2.162166118159579 -0.016088678031746486
Ni 6.979156598090424 1.009595285444964 4.277679655691818 0.10930916535048917 -0.01946916446820518 0.9030171958798769
P 0.4266586668467885 8.749695158732436 1.103678039121692 0.19226966550412047 0.2506689313786199 0.48218880063261466
P 7.8838411723622945 1.2052320181466833 13.101302243960113 -0.7512709444110997 -0.7760157554559474 -0.6806656233887116
P 5.6697510993508535 4.590520186190748 1.3391074922924728 -0.058924285140034005 0.40486492993947043 2.4968149920952807
P 5.714274227175691 7.793759061087266 12.773788958508556 -0.9704901419208706 -0.2710744916181654 -0.6301835554787598
P 8.571341350518582 5.149620926966621 13.312843559925692 0.7291494299217121 0.2755541246560739 1.518379112964772
P 2.351168300766429 8.902665838108824 10.25988307298291 -0.0700515054014471 0.7436229409475387 0.2723459021314213
P 0.7600996594445083 6.662240768928508 7.952560394470143 -1.4077653698702466 0.4464959752166956 -1.3597916702044452
P 2.1477113246949306 5.628354202467395 5.547525734778849 0.5807348139293289 -0.44797178843127367 -0.8598977389825836
Ni 5.734310101298502 1.5205427376909353 12.359175146217105 0.4700189980393002 0.5514334938620503 1.2095847381983298
Ni 0.013768480987794167 8.71178844206413 7.342550615919622 -0.5382373068867504 -1.3217609406839688 0.9555000962699416
Ni 1.1266842992404453 1.7379324385250585 12.088684313136305 -0.9854902148741285 -0.8885861080562116 -0.2623905906909223
Ni 0.6471717990124926 4.364638335635266 11.893929457521036 -0.4615500413363406 0.5987207089837882 -0.30300810710196846
Ni 6.409743961224329 8.516636975060774 8.39215512499138 0.44810959956071855 -0.3964617934774398 0.36742555414608985
Ni 7.838114212324209 8.777513948094382 11.37238454898542 -1.1918348704140764 0.002224261344828427 0.0028320701321564124
Ni 2.77402136469413 3.5758949351415943 11.328691972067398 -0.3727395101598355 0.01256420981825578 0.3566102086981407
Ni 8.103461229002358 6.6805315529437435 3.6733372205762223 -1.153736263770142 0.5444102684666817 1.0239881138390106
Ni 2.336078403953861 8.088977914312743 7.147085592618862 -0.1578449081673475 0.5455130146125573 -1.3226436003992383
Ni 2.6169819190776185 0.2142018784771822 0.002678293373659296 -1.0584848620642997 -0.9156359130851521 -0.7889872280149508
Ni 1.2759314975851601 5.077493646531037 9.37091457491515 -1.0316258328899264 -1.8666507198902305 0.3988153813112809
Ni 5.48582606763848 9.271290460244419 10.701813611279153 -0.8832112168975433 -0.7449234049265171 0.23985152904814175
Ni 5.268165737857194 8.820553282726147 1.1555744059518547 0.5288689782979731 1.0363445785218344 -1.81766683379236
Ni 4.10457324944315 2.5677461147590597 5.001095094746589 0.11336456636678542 1.1214370374168043 2.011302783516388
Ni 5.068040297445612 9.094299128799046 5.154300941346029 0.14091367962964763 0.14443274852649962 -4.124429993970446
Ni 4.67045837796345 7.623598777549623 6.697710891869072 0.8961094130164502 -0.8430220462731675 1.5109717647571073
Ni 8.941841711219004 1.6326577780781926 8.360536331929943 -1.168282279905117 0.6409212536112381 -0.5088665670341171
Ni 5.598613014377317 1.1576479836090918 6.730778016399471 0.23240612851369005 0.9571337752186225 1.246007499801738
Ni 3.482649264794543 7.680561504911353 11.96588222894586 -0.09584455520515107 0.09015084725448344 -0.03419310094194111
Ni 5.173464270415052 1.8330351833716154 9.014389866327592 -0.6253167143047618 0.3454212819608567 1.2785352972261141
Ni 7.265827309398578 8.832414296238067 6.17086632198537 0.3005131085942567 -1.203272679937373 -0.5741491902920112
Ni 1.7264633703848937 3.42184173997655 5.18779174015923 -0.6872481617022358 0.7337213655631105 -0.35148394321516885
Ni 3.7397747606984963 1.6510045542893916 1.1847911338063932 0.4774589992571131 0.8864806316774345 0.7311448630851859
Ni 3.42531325612638 4.013212649693587 1.5393262530306617 -1.2416481943917776 0.2739623546889217 1.5281053391136006
P 4.64773487843432 3.1028635315965905 7.290402284207617 -0.09520075097356508 1.298452862085648 -0.6379421163782562
P 2.3910067481955286 5.7823887335671165 11.3324751781081 -0.009399438937028973 -0.28435321100494254 0.10878748851906427
P 2.0644882574256154 2.83636867490116 13.507256863145574 1.5295798667765979 0.492280637650978 1.1569162041600205
P 8.84645900539262 3.04712330051343 6.263347698857499 0.025977397900368168 -1.3676160513448705 1.0901253717877162
P 3.0953325812392976 6.5875565115438555 2.3291353716542003 -1.758297233584791 0.43103053259124474 1.4106167232761124
P 7.075631151738124 0.8838172160389801 9.61453848596541 0.246278258510092 -0.503681423288752 -1.449739400309187
P 6.648158731643311 6.523314798706676 5.54977942066644 -0.06652626585700801 -0.351036314154789 0.3102007681956658
P 8.95355341220835 9.027397786653527 4.500215039335125 -0.1599827804459567 0.30534061188988704 0.8497621932104785
