# total energy = -340883.6959222499 ev
CRYSTAL
PRIMVEC
9.07524205982250 0.00000000000000 0.00000000000000

0.00000000000000 9.07524205982250 0.00000000000000

0.00000000000000 0.00000000000000 13.28253409407999

PRIMCOORD
 96 1
Ni 7.072826163019711 2.195700353351161 11.676436883785417 -2.5093650608461493 1.5648775136366275 -0.03876555080397195
Ni 4.688124819526653 0.5424789439366672 6.310638332545144 -0.17483655762933759 2.996367995037956 -0.47161693865403936
Ni 2.353736617748117 1.9286341314220456 4.504691490359116 0.5985682425663239 -0.3236260404626362 0.22865308922916106
Ni 3.8458153074249477 4.800576143297335 5.428770748037336 0.09546223216506786 0.08753217868471377 -2.8214748731390698
Ni 4.032529336579822 2.936539584516701 2.8357544843524427 -1.177235889553979 -0.6026174729350332 0.0738953046275695
Ni 5.398108227851394 4.6491920312951756 3.1977168819042303 -0.23345282461064956 1.4489058486642983 0.1011176306786323
Ni 5.586083715645936 2.990401145857917 0.36687028843187697 -0.32031420248058384 1.51114094334512 0.8829129689308343
Ni 5.570192966882924 8.394780365939603 12.846827284911312 0.5731636864502904 -0.5258471607525137 -0.5650256307241882
Ni 2.6576029460358903 5.351770042138126 11.79155632870763 0.07409970732889173 0.729693218240324 -0.3486611290543931
Ni 0.4997345540601505 7.357207946707722 11.004300864747517 0.8164718065884647 0.5372836847242295 0.8183006322670875
Ni 0.6444973694903563 0.03231512175632714 4.707329846672445 0.5510126042745478 0.513001158027781 0.25139912467642506
Ni 8.889725914790022 2.9085333876676716 1.4354437343767477 -1.064366260545741 -0.8838354807451037 0.39489470610063604
Ni 1.1909440092346697 1.1525920364919606 2.2830813210636967 0.24999761634320816 0.925297090324 0.8417346949203116
Ni 2.0344877542500055 6.479804473745616 1.0972267075493563 0.02213565555677478 0.5732266784777418 -1.6309371242698618
Ni 7.61189553853247 4.220459448164304 4.0920701843721465 -0.35325774728614 -0.28733800466487935 -0.45641837653673006
Ni 7.852797837740992 4.599559532731551 12.740247642722393 -0.9089183918556605 -0.31791999121679443 -0.1258760685702348
Ni 8.016487977911424 0.33277188162019194 6.816915228571745 0.7760198692210054 -0.28803220251842654 1.3109851902247034
Ni 6.885957854750633 1.1406490180041693 0.5765546626433222 0.280825143247026 -1.3956307913902415 0.05081142622491249
Ni 2.197397423607405 6.757325374472555 9.589817309321683 0.1811820402313912 -0.6791620422599917 -0.7108015235421435
Ni 8.988301193524357 5.227711483834096 1.5517320704701048 0.15343572335605835 1.3199506269481074 0.8754907083248341
Ni 6.346334889475142 2.242074840032478 7.34931883882669 2.0128235910362884 1.0307637419999476 -0.7727550824268047
Ni 3.829316517447133 4.8703466038855865 0.8438123721788912 0.3936991431306381 -1.6261988382539283 -0.4397308885787201
Ni 6.2765372031608555 5.975720156189115 5.1285590197077955 -0.8966406029295719 0.390315828480702 1.0428471555270427
Ni 5.596738049768024 3.3382733226618746 9.653134365315204 -0.2971195095316754 0.044188264481440025 0.014413090101536468
P 0.4977425384385166 6.2106963223638 12.739145908342136 -0.28744496255638885 -1.1794064148427366 0.9678740444542623
P 4.195193974402898 6.608155621521322 12.832468436999926 -0.27178745852478997 -0.29746660845844897 0.13231513932735922
P 2.4023799149324336 8.525073615505876 1.6970566433808534 1.4920484454900431 0.21128348760246193 -0.3016605919351385
P 6.297682517048814 8.189743423162502 6.160731669942537 1.902908416670684 -0.8472466258774763 -0.9129871626083954
P 4.89823482258846 1.3510040526003015 12.315565340101475 0.23329110222180466 0.07884493532336098 0.6024151271162399
P 3.9339177568774373 6.661608796971998 8.137770419683983 0.7364266803094156 -0.2053781778616205 2.3239422430605328
P 4.651914603898775 1.161222591645372 3.935800869594927 0.250489211267646 1.9334551791092895 0.7609133525968702
P 0.3316392914170944 6.0328941808647105 3.7682020226899278 -0.11208518543372956 -0.3880635421114155 0.07958232771001779
Ni 0.4735697238153553 7.853578308554024 2.52612537738705 -0.429229474826764 -0.9642418470183135 0.14954590138334892
Ni 2.0890390339841334 6.659739297117527 5.18018807151406 0.08378453871682344 -0.18072926896468874 -1.801641662008697
Ni 5.8802939864329415 5.7976820583977124 9.21028161313786 0.4636076951963177 1.754426180665159 1.3332409162991106
Ni 0.11806708352770864 2.346131564942062 10.80579265107385 0.9819431209528184 1.2104712545683411 -2.1046184016520977
Ni 2.5479014205948425 5.329426796304584 7.23479745235307 -1.9129323765655892 -0.025043830342505256 0.17129691990719528
Ni 0.7524491882714904 0.12599975257039722 8.753030081984281 -0.5291597700655144 0.9238708994004345 1.0540399389190687
Ni 2.027953580001366 1.7589906324917424 12.070649061351046 -0.5311474899195046 -0.28327900410415724 -1.4688684078291543
Ni 4.504378394509702 6.887500645892673 1.9489726562951373 -1.2406966291117858 1.4200169335440898 1.5962637412573928
Ni 5.619898067382645 8.242370751590085 8.197953794610758 -0.4803532900857728 0.015534348190173245 1.0549369968120412
Ni 6.9870469755222935 1.305782121654509 4.976526935425978 -0.7909993733489733 -1.306429709643537 -0.7995698886268036
Ni 0.7252924340747837 7.526370457811389 6.711597952546694 -0.683663529674771 1.327909733894184 0.8073153369001774
Ni 5.096864644505089 5.05302215034512 7.262013195622854 1.1916235257342187 -0.9041621081175977 -0.463918284458201
Ni 8.293037827743078 7.678008676589885 9.13924697133734 -1.3156054626055342 0.3425614439145584 1.0519925694717365
Ni 4.5645200233232215 0.3834189922407577 10.236157860464678 -0.276654299698788 0.8616892836653677 0.5630427959662044
Ni 8.109427531356308 7.573906575470241 4.846053088543665 -0.6059575930518596 -0.07107454734932275 0.6102263956305426
Ni 7.4551751842272544 6.6910035058488635 7.411946176427297 -0.5943498336096023 -1.4905392079343684 -2.3650693521181463
Ni 2.6172090438404814 5.37575590677584 3.0645195548941166 -0.06951131662726093 -0.575206427911932 0.6038696001745794
Ni 3.5919535626232912 4.611674980817569 9.308386794335977 0.31674653973398353 0.15835527214486275 0.27714075241690334
Ni 0.8406759685395442 3.7207493972575856 3.764655418111638 0.37551630157402427 0.18775557968385084 -1.4788838830836273
Ni 0.8836245513613309 8.917060543730164 0.23687016918259043 0.3515250808657494 0.17705079167183702 -1.1031045576562033
Ni 1.4687190167379447 3.5491365708106786 8.4981655229403 -0.6936211551081152 0.06686822257745904 0.2919274238077747
Ni 5.50743766836995 3.0103394525582794 5.2426157537904015 -0.5699963444659022 0.6788733073749792 -1.4018628883428825
Ni 4.158039933605773 7.45738046803617 6.17285800831897 0.33292186394226536 -1.4374958070551438 -0.23705699702214011
Ni 7.946844570711341 7.701259446624628 0.14823863312080154 0.719008227722652 0.05996146815529673 0.4186211031832984
P 0.6557098309961814 6.090349538042678 8.221384254437337 -1.136400600705172 -1.1847414539024048 0.4447237138076212
P 8.776721001256606 2.053972298849768 8.415149746635535 -0.6315776076128091 -0.3723448458245781 -0.205683110696549
P 2.2925422608612056 3.4721603680649005 10.616875153158464 -0.9253400277467935 -0.289830689179746 0.5698904150156573
P 4.154836373175536 6.5291828655329045 4.209022828180782 0.10938989798975354 -0.5508791640204771 -1.6584679827002793
P 7.316206003297508 4.524770463310665 10.184781100386347 -0.45222979237667926 -0.12907529223382286 2.7260622632650144
P 6.415669738446817 8.209500225022625 10.336959296064558 0.05791229893575188 0.883220215758608 -0.5626149644001666
P 2.4850009182096753 8.925863528481802 5.916438860318332 -1.554299223900149 0.4108293750530214 1.9386578063561515
P 6.850791291954136 4.301728240381758 1.6502483601313631 1.2630626555118118 -0.15957346082268004 0.09567794772029975
Ni 3.2569228532663126 1.9707523295997342 0.6419327060977653 0.0032578448156653575 0.4458902233118966 0.5719565535160666
Ni 1.2830849413824987 1.6390431588191474 6.81100452344933 1.4046008560993357 -0.5616723979812391 0.44152757546782667
Ni 6.655591911518043 1.251185465710321 9.50009311412165 2.0287304920745317 -1.2128171290926983 -0.35815929835281546
Ni 2.6637559601200254 1.568192744431469 9.3025822695451 -0.2465816486831237 1.042943829005907 0.7024325827521579
Ni 6.287118935346847 2.2373829399122744 2.7049085525476375 0.9109775883775343 0.8540315100097937 0.08516496400411784
Ni 4.269955818097747 7.1818561205518705 10.70402197962709 0.2996296775480388 -0.5834367862415242 0.20848201359792481
Ni 7.202175587416737 6.655628212486091 11.422886419784772 0.9250299527055423 -0.521066965755051 -0.24684904341189748
Ni 8.204136756993533 4.369592900147488 8.300096550980012 0.41458524255102797 -0.1283507553629725 -0.9583308808505173
Ni 3.2745015970435554 8.847616791854344 12.64938178207725 -0.1160606251417098 -0.602937061057981 0.27451719875112723
Ni 0.2893876871818293 4.819044260791754 10.789721304994801 0.7798029904125215 0.5477385615089663 -0.6869617408100684
Ni 8.591704042357975 2.8265839522993175 5.9312886788225665 0.01698445037313849 -0.7401938606613316 0.6730497587146667
Ni 4.244154905057634 3.3633209906149926 11.797467033830046 -2.3118038079257865 -1.6618024463901508 -0.5389117072459557
Ni 1.1926683052169496 3.95830293216368 13.02576927680711 0.4852995783474546 -0.5571912222814339 0.5089997501778718
Ni 2.8000207189301953 8.625100932962134 8.106649599776436 1.974595143682709 -0.44431105175023483 -1.2325883981823547
Ni 5.521350014374344 8.280822551994927 3.983697274361656 0.5954021861335166 -0.5938361271979773 0.015465185515134655
Ni 2.934960492406613 8.773326860744119 3.9147081921106386 1.355608228250717 -0.9352721992588409 -2.1581737091707347
Ni 3.820504457453482 2.963202645547955 6.850387443684602 -1.6348459724059652 -0.40337908942256334 0.7184235588637756
Ni 5.475873976652216 5.086046956026786 11.53999878785282 0.555107857389844 0.6697556613444272 0.26370570995792003
Ni 7.612848438943731 0.28179352466618823 2.733412980183126 1.207713746427862 -0.26368668379452653 0.7661172653953128
Ni 4.640007886379032 0.5085148507067598 1.8367355082359371 0.03250774281971821 -1.0527119641362643 -0.06547391333309369
Ni 6.134936202047631 6.113818113885707 0.5591510710369112 0.755292406865667 -1.2385569570609638 -0.9870336481018485
Ni 8.407603682902558 0.2853891355513424 11.502528021109477 -1.1490815386069502 -3.0548793610102876 -1.971685940455714
Ni 0.17447152768068674 5.076699456754427 5.904418702273439 0.33934782207326714 1.3645356126473338 0.46335495575556324
Ni 7.214145831630565 6.464213207969001 2.939066131892842 -0.01662552437182298 -0.3770142262757894 -1.0654803195455262
P 8.828722137985363 1.8103746527636826 3.988944579292994 -0.12404827133287669 0.696810094359058 -1.2542923655183496
P 2.2431638690739177 3.5476391558786986 1.82091554636062 -1.6237694028768295 0.023204977361553584 -0.6322041854532143
P 4.644581808353079 1.6778125926944085 8.32821528082999 -0.7737192461122868 -1.3121907804970305 1.6513408847371946
P 8.75976844917819 1.6391339112392675 12.91674657946856 1.8392461026250324 1.9549418882281557 1.8200949836178781
P 6.388280658054603 8.051228004333357 1.6289696401858282 -0.4273602828285092 0.28484069216432234 0.024210792918248628
P 1.97717760094423 3.7407512306520316 5.585358603809177 0.02748894944888814 -0.1526710772758919 1.8543099389366902
P 7.060556435819488 4.270255301084144 6.408902330478469 -1.019072421704948 1.0688777752628495 -0.8747222055899259
P 2.291680112870066 8.729121356903669 10.63322601669148 -0.11879293647120831 0.8413009498170027 -0.2771852325015936
