# total energy = -340863.6723519617 ev
CRYSTAL
PRIMVEC
9.40551247547638 0.00000000000000 0.00000000000000
0.00000000000000 9.40551247547638 0.00000000000000
0.00000000000000 0.00000000000000 13.76591823163198
PRIMCOORD
 96 1
Ni 9.044199853139387 5.244937085233144 0.1857645175615414 -0.2159716371067506 -0.14082214835710585 0.035860461342035015
Ni 6.785371942211122 6.4702308363501855 0.29523810060479316 1.560005530256307 0.1604268099619108 0.08419128723693887
Ni 1.6132429301729132 5.209581763292857 8.403226395221845 2.193417619974693 -0.22400916269924645 0.07709170007768013
Ni 5.624308436779161 6.313638456732246 6.511100610339846 -0.7623734820821644 0.49726472112913067 -0.032012291240538414
Ni 1.567362839610338 3.336464519416797 10.283209663310837 0.4346164501702902 0.47019794681932575 -0.4418772454977616
Ni 5.0546353483834965 7.689749602718269 2.787282280816052 -0.9167461154301954 -0.302903206092988 -0.923655440955519
Ni 3.275479175585772 5.3408639084491565 6.213673846948272 0.2240996655305237 0.614022372337865 0.4162803708652637
Ni 7.640436500049228 3.3647939234296045 8.540678556657161 -0.06369650971769675 -0.7302292932494521 -1.2235265450904027
Ni 5.884305022146376 2.1438455191432126 0.8692283192932475 0.46701594954691833 -1.7311605252689992 0.45766690423185047
Ni 0.07973617379116195 2.579386592058582 13.075254895717887 -0.6592737879764968 0.4706926270675571 -0.5095587080051354
Ni 2.88876211868318 2.368957058201162 2.8005939028277806 0.40832357791203233 0.7126046381891533 -0.6080910944550947
Ni 8.550946554784911 7.191727709465223 10.638012875340966 0.5444562912132688 0.4484574698184406 -0.4930028605289832
Ni 0.6150198863926614 1.789878457185042 5.347604839344236 0.5200115279073432 -0.058198462717603 -2.004743128020999
Ni 4.017639959927946 2.8150417107640604 5.621312781009547 0.43215873265841703 1.2336237814254045 -0.11576597671942644
Ni 7.881593843637672 0.5003648064468015 9.648339442532707 0.21992882198228575 -0.47108523452028545 -0.39269615578742045
Ni 2.5178369174703303 8.729529022909473 2.9742234280064124 0.334988516663307 0.6015820896919833 -0.6221552858576447
Ni 6.544703685278942 3.889630933163566 6.271160340084489 0.42969330183706 -0.43984273156623604 -0.6769004999193244
Ni 0.4046072824579579 4.715933433408322 2.3731340463559056 0.042678769815449075 2.168093282277292 1.1293920305978224
Ni 3.995743926547529 9.210837320235973 9.808505916946421 0.09352207771956152 -0.2629186952802504 0.26733945005576537
Ni 2.17589950615372 5.639338445946648 13.538065371373738 1.097413420808697 1.139477954078915 1.7485111007323046
Ni 3.0278884613649377 5.625832129823675 11.288837667177173 -0.5022500901588641 1.3138108325989568 -0.33492423908427477
Ni 7.232105575144832 8.382785394643811 3.474090682835592 0.45412083875180503 -0.6887679407808719 0.6448637831987539
Ni 7.94761113672064 8.610107229167568 1.1225488718024628 -0.18351865878436782 -1.0151633164585292 -0.8112712362241319
Ni 6.494835657365295 8.696901299629118 5.936262954964288 0.6063874815004267 -0.3340819456886376 -0.09969529640980894
P 8.17710564465972 0.5195830903841754 4.6374350250780125 0.4377043450669945 -0.39104473622692654 -0.850953128194786
P 3.185609502497333 3.743770243445563 7.741911635160046 0.9445726507241602 1.440331733842042 -0.02352122305039175
P 1.1770716879119734 6.255239628871846 5.474086410859055 -0.7487998571627879 -2.4384288388469035 0.38869937592320153
P 1.0650426270897442 4.434981365922737 12.327338878203257 0.33173915648807384 -1.0569486279254314 -1.525079150692767
P 8.20236885155826 8.232946173087356 8.262001682674464 -0.009992849546653759 -1.2867898239254225 0.0118170472395861
P 5.085814622720301 4.8459646453861005 12.71573011635229 -0.23230662682134828 -0.5210507678051348 0.9078513840437269
P 6.69274645392489 3.9671887902318304 10.43045014173026 -0.2893360089315146 0.9075230541700307 -0.008537348047049814
P 8.371113153481827 7.091380295317597 12.857353622634777 0.8849287138092824 0.488945402630158 -1.1866762090312724
Ni 0.19828607651315197 0.16665721867308883 2.7408773626492557 0.38392020936700333 -0.46139680358792795 0.4293050652597058
Ni 1.6930204882196052 8.76136668312971 9.41283199037537 -0.36076331163456576 1.139543774319844 -0.3309925081300364
Ni 5.501669957721061 4.211177193119031 8.178332123505427 -2.273241631381872 0.2707988693592756 1.1721682452230844
Ni 6.236880068236719 6.194527044906814 11.231668139816266 -0.3153987674568375 -0.8916169244627354 -0.12166408737141628
Ni 6.5557551626079755 4.291142861418132 0.7296326415317294 1.4469523244823532 -1.16139043788129 0.18696239435859416
Ni 2.844104744761264 1.0404284005620157 4.6639623328727415 -0.5548708016783734 -0.7492788536817354 0.29497546660547913
Ni 2.1717046475249977 2.046282136731242 6.942896408129751 -1.0128169277135395 -0.487457762341038 0.5492614259113959
Ni 0.48809249357963286 0.13668279050296356 7.400778395172484 -0.6770305977392856 0.4067600900796543 0.8570245311998466
Ni 4.819506938384763 5.655995608797472 1.2067752373186296 -2.1034277237781067 0.46022515187733004 0.08281574704565091
Ni 8.471987276336199 7.6152203207137905 6.1547831107778235 0.9897816431606308 -0.17429842573768048 0.49742335819418204
Ni 9.069143272608832 5.0235407236602745 9.409225916836688 -0.6020965674345565 0.8180769462920556 0.7220760680146984
Ni 7.373404591241915 1.1536331504618016 2.377662800682654 0.7910893619596182 0.7687040522858826 1.003688225939394
Ni 6.912224090923187 2.9250768029107532 12.426026219373371 1.092828372541176 0.0007435630342438808 -0.06370525146844512
Ni 1.7339250626059601 7.942202966963878 12.129990531298363 -1.5282200103145938 -0.9422843689106158 -0.7288768929866156
Ni 6.012078911095245 1.6428608894147232 5.856048981132008 -0.49506385682306986 -0.19467441829087118 -0.3284080352323118
Ni 9.32428661346389 7.0436755353066545 3.9085576462097054 -0.9881667332650271 -0.9387668426756607 -1.2671766776801854
Ni 8.19741214640728 1.4587385743567134 6.503074886420812 -1.5720362361685958 0.9219263740795541 1.8250561842778954
Ni 4.495759788476112 4.580315346933994 3.4206109380756895 -0.9638361269394627 0.46708356956006014 0.5664695622595662
Ni 1.6989647721957322 3.5445238640938626 0.7659153470163931 -0.6613674372807319 -0.9872815024465963 0.5345104928544665
Ni 6.608915119938782 5.659155861037945 3.1814964718284084 0.2225068671221071 1.6688030460777001 -0.8877034483409422
Ni 0.3535804953894701 2.6294615412498796 3.057892046624186 -0.17540014344229146 -1.5310165992231246 0.5687760989055559
Ni 1.1580443358807946 1.0590889376009966 11.45690571274333 0.15157064512286153 -0.6753511531543336 -0.7156395683607353
Ni 8.52710358029206 4.928817806059682 11.618806563684254 -1.3979159878799925 0.18508651749211996 0.6366313679866327
Ni 0.95270318435104 7.565465158951588 1.0595864892186186 0.4653629873245276 0.18818932478715977 -0.2067506327291149
P 3.0661500867049445 7.563546434377016 0.03172479406879179 -0.9542597961049373 0.6816022762703681 0.49314041454811197
P 2.0370365178253356 1.3198097474399852 0.994498460782552 0.15330099755040696 -0.31208024460656575 -0.25911037727775377
P 4.811107815614697 6.515640651281739 4.543813493005274 0.21249113475731793 -0.0905488540238505 0.5902666646791641
P 8.54804025138519 2.8840969844234348 1.2231408292782198 -1.1311010428691293 0.625771028233361 0.8287714498914243
P 4.580559890262126 7.059721339837149 9.753276746839113 0.4645366347684903 -0.5740301482156437 1.1593353551244745
P 5.729527906464183 9.369752861471166 1.4114062726455396 1.0145272255364268 0.8812044708801599 1.4503060714459346
P 5.190319273446168 2.6374091994141637 3.571829007782303 0.5784344479309265 -1.8165800284860845 0.4148780912010984
P 0.834795678141027 1.471906292025349 9.245342383835371 -1.0575402387628432 0.15800868743872143 -0.4206936694416109
Ni 8.577893348442512 2.6894499007431363 10.586005093306165 0.8698993302799858 -0.2787942288599263 0.12242024881115045
Ni 7.36666083869305 3.507296845142105 3.2170812882766344 -0.2381160344142738 -0.5110111241809459 0.19854521410018708
Ni 5.76697125220621 1.8039961316283435 10.1981226933899 0.1212784218972234 0.24454302098654018 0.1399330608839332
Ni 0.33214533212745523 0.29025035726216636 13.653891437640846 0.5875178982894332 -0.21121406781710722 0.28115398734135444
Ni 7.510085500642354 5.624571791132535 5.285025261124045 -0.03780215844943813 1.4633744745941184 -0.30752887779045746
Ni 1.3687184130663468 7.241464060202184 7.275962539942748 -0.6495915276917265 0.25884298254898 0.7162332360806761
Ni 1.3177781567139673 8.373746697015555 5.05334491205197 0.5347040969225114 2.1934898679735255 0.15751529274207066
Ni 5.123803488194316 0.3732794010217493 3.9002008482464317 0.2567141091314353 0.8610215681743818 -1.0261370418612135
Ni 4.018138452096831 1.9227689449994383 8.451158768638201 0.9921889670505429 -0.3172329924520988 0.4306037294664713
Ni 5.874890104013301 8.592236755188704 11.108159650840772 0.5138583638217538 0.13147336015235422 -0.05052654799464202
Ni 5.114341542498139 7.834472225409197 0.19028480692693164 -0.8272444717239366 0.795179729978908 -1.2029721179778186
Ni 6.51586638358463 0.33692897584621817 13.075984763497233 -0.0136921527751119 0.256325615443765 -0.14853237251717002
Ni 4.347698208804923 9.182028235079521 5.988986496509506 -0.2116537264576871 -0.09422270333101192 0.4074365473213887
Ni 5.9767612112054405 8.247157902656863 8.591626337419637 0.39153864514420955 0.8724328953351169 -0.7304151840080131
Ni 3.137584955057294 0.20165795278758478 12.839788827816081 0.7161764147008117 1.2510239791797229 0.7885377991823581
Ni 3.5551426878423555 7.583871747149817 7.900302348791017 0.9636353237825662 -0.19181612290646965 0.12091306813800468
Ni 1.9917301635326081 3.977722964366739 4.667678450909083 0.061188655694178494 -0.1832980581331295 -0.7294492205503179
Ni 2.673930804919387 2.830711294789737 12.423273225829364 -1.2361846001740453 -0.0032331622253170124 0.05032163107268753
Ni 4.080788571661675 3.371970329559011 0.6863550563112337 -0.7036325165975301 1.2741474525710637 0.09188711321929982
Ni 9.114223894598668 4.115927566811692 5.164889588974245 0.5887931654574311 -0.42670773684617475 0.6534386693519584
Ni 4.311082548173495 3.9248357669019254 10.695678073216971 1.3413249788588253 -1.2574301398163827 -0.5468571873452776
Ni 2.6035211374426677 6.5460674846089075 3.976230309513873 1.1421485589325426 -0.700271313434781 -1.662986439395923
Ni 7.141295350794348 6.124926251515453 8.201348353438942 1.250991840390207 0.05202164448292976 0.5643985386631506
Ni 4.801768141582587 2.1769623290798314 12.540077465408999 -0.07764500147798886 -0.8646673924570851 -0.5661723427341218
P 8.265169459325033 1.0070952638351263 11.92439637147912 -0.4454114839032651 -0.5988266384340332 0.45395217438442464
P 2.768409179191849 4.893236751816504 2.1212863971230536 -0.6687501028980483 -0.2682280233083058 -0.1600974516469501
P 1.563760528276704 6.893008628639599 10.182099462089692 -0.9521532912848958 -2.17109658787999 -0.10735692672012478
P 2.4639903577182305 9.204827197671502 6.763305669052275 -0.10290274760351312 -0.08850611256220886 0.2239068327934273
P 3.2511753309745184 1.5825339314671305 10.646520161506167 0.6727311990329834 1.2543422449196784 0.8518774397812683
P 6.4159422175049245 1.5793078406383148 8.063689270725973 -0.4473799204835456 -0.47915207068881993 -0.43707031102742144
P 8.60312833880319 6.60823792303011 1.9225479154528575 -1.2999235330939032 -0.14861747603180858 0.2702687078874184
P 0.003660625511880748 4.073875519885641 7.510464542800959 -0.31287445837308697 -0.3419775463866304 -1.6652847485117968
