# total energy = -381171.41639057896 ev
CRYSTAL
PRIMVEC
9.18002397859768 0.00000000000000 0.00000000000000
0.00000000000000 9.18002397859768 0.00000000000000
0.00000000000000 0.00000000000000 13.43589302372109
PRIMCOORD
 96 1
Ni 1.450553930458356 5.848657462550513 11.897308170948094 1.482114474205783 0.5378040760040737 -1.1526589715455633
Ni 8.837094890464988 4.8070001549466 12.99088310350269 -1.1886294761029015 -0.19674724165949986 -0.08717916622066921
Ni 1.8475532423878425 0.39345490471642713 1.0451861087764083 0.28621109014928775 -0.4928102849022029 -1.2702643154665736
Ni 3.0126910509574762 5.333226662779324 7.025292333004725 -0.5216657756813146 1.3565502804490122 1.4328734777917838
Ni 8.566247466445018 3.904971010281397 8.631419209847436 0.6409058269922705 -0.21378594230934148 1.748211567214015
Ni 7.849003022094958 7.078073798200808 13.061326934608967 -2.8311180526557886 0.08100183376536371 -0.45287333949794906
Ni 3.129901595625554 3.0321986016639038 8.64896682545936 0.040945332064110135 -0.5425048239138528 0.3698717016937372
Ni 5.286252480678246 0.39838274152546727 8.718779070923944 0.3246819925309763 -0.44967514427562555 0.18734831694310317
Ni 1.20709051761828 3.770997742041584 4.251049647851597 0.11787942351800344 0.39569560473537657 -0.6177383877368716
Ni 2.0465027195218166 5.736697891531413 2.658103449269728 0.35319475525868854 -0.22606810211080422 -0.13663407841768727
Ni 3.924432660868515 8.741879682969898 4.576789024553488 0.3226690758660056 1.720785352682262 -1.7397408107388423
Ni 0.34135826930043867 6.021884512823589 4.390312445840607 0.02931546113466564 -1.7599838772585945 -0.32572071820813586
Ni 5.2743459897294285 6.460891613944892 10.893499183724192 -0.26756262181016505 -0.4078209272440009 -1.1341925373102595
Ni 6.583279692071052 1.738733239529494 6.897906649888175 0.4824389689702078 0.5530036665626475 1.0657626266726357
Ni 4.532113520427417 6.642371505669769 3.8798957751027583 -0.7345482323397801 -1.3407986740417102 0.10772665135471769
Ni 4.000020977346972 5.141345804018972 12.203753891499536 -0.906900075874051 0.6792096076684755 1.3582086419880413
Ni 8.012269746477926 2.2715234644234394 0.9844400548777865 2.7586078013012036 -2.7806935774566495 1.6555433528543166
Ni 6.853484514420693 5.462086657728086 9.10080209192521 -0.5729911654281681 -0.7204161638137722 0.720755806541378
Ni 4.511421746642812 2.757844408528709 3.7561380374164104 -1.9373192900503862 -0.5863341623939772 0.29297849078010835
Ni 7.112333647253225 4.312444729437252 6.982002094479408 0.09045475164814744 0.759051616797783 -0.39308567791635524
Ni 4.089131468973933 1.2416165873626912 10.955452410760648 -0.12766118549511565 0.3598572548805286 -0.4316249716421341
Ni 1.8328009440418525 1.9668109323771124 5.402155789948397 0.03825467260582444 -3.3009311053318697 -1.1842945961729734
Ni 4.586596962047486 3.384050556240821 0.2690765974170184 -0.7253606523032411 -0.4016973308447663 -0.6692000459512734
Ni 4.969486577301312 3.8104626646236697 10.624351900123438 0.476562969805405 -0.8069497260306425 0.05054994503340971
P 2.9546182200074247 6.6787794803058596 0.30008947202950015 -0.18572235130390594 -0.31451893595504543 0.27993117067784695
Ni 3.282996853569596 3.348689104324982 6.21213867135562 1.8477857646649272 -0.9570625556610549 -0.8681625500945371
P 4.976619455841968 4.940945883114827 8.028483504622724 -0.520755090941587 -0.2961597167215673 0.8289858798950756
Ni 7.651907909781077 0.5483127272419442 3.107520697450368 0.383691638295965 -0.8257169793358168 -0.9017442427047245
P 3.301191660863779 4.772318024796537 4.181625717396371 0.6010107905695455 -0.6324286427591947 0.5893760345440946
P 6.443018107485875 7.784706134966573 5.578139601387185 -1.1574232257034258 0.1703697801072356 0.9341213734838494
P 4.512266308838101 1.1321264427624278 6.856335829832182 -1.3555238960670268 0.3582842539664539 -0.6396429011194468
Ni 8.467525489834703 1.864701526961775 5.388464702360836 0.09560981348652567 -0.6150227885779215 -0.5814660356683985
Ni 6.339660218825325 8.834212362972366 0.9437193050314003 0.2855893974048888 0.6041251678288111 0.8974957518410156
Ni 6.458679228194187 1.5304843982234682 10.468078517918425 -0.30412859385965685 0.7027202891959059 2.006332841105622
Ni 8.486381258846938 6.129024571315219 10.689474989399388 0.7217012011737829 -0.6775291346422591 0.35647908243691506
Ni 2.3978038726670228 6.9646546033876735 5.159503891217708 -0.6095563661467115 -0.35307931272674675 -0.4011800248887155
Ni 7.935010665656613 8.92925315001408 6.824359052714207 -0.7190573357930325 0.03212284867647371 -1.7106755179417699
Ni 2.840813464192093 8.068625912965812 12.017048730192496 1.4768162019213211 -1.1282412048228312 0.5548265787039993
Ni 6.321924412724234 7.27110215994389 7.9551635720405285 -0.3140116573013237 1.2829851054673518 -1.326342389407064
Ni 6.092579876583682 6.939336097576696 2.2493564608042345 0.8822899906348547 -0.05950843977827816 -0.049580124920972676
Ni 8.403568263589206 7.832680939668591 4.588021701750845 0.21468582841579156 3.347424620907719 -1.249012862286965
Ni 7.6794388013427595 2.9437307117072726 3.379140161477119 0.153431095370368 0.87877374995148 -0.36873681675834563
Ni 0.6325697402531455 6.681102026342907 0.6809659080504229 2.182971484940705 0.2714822685795454 1.026265854129594
Ni 1.4009634415566519 7.997710228633036 2.8067179375668023 -0.9199803060967768 0.6145306794328513 0.9262453131698822
Ni 7.6785024389088505 0.7185939078577525 8.85711560450529 1.3775410237680663 -0.1122078270545229 -0.5494480880009054
Ni 2.882499952548746 0.3898783674198511 8.401288863664309 0.3787278665327865 0.03871901383675267 0.5863421328137772
Ni 4.045572255749463 7.139240297192303 8.657404185390785 0.3499353677811264 -1.4792942311481685 -0.6470643903944985
Ni 5.013670032148388 5.665121245480583 5.941580418087299 0.47343856524381045 0.17877883010653725 0.4200169550895605
Ni 2.702993765954166 3.182466412258497 11.357117928819111 1.5700040362299155 0.875012226026519 1.457341123915845
Ni 8.769979736011015 7.518476262949113 8.421523472260596 -0.27181085556355766 0.625255264939207 1.9780507063314772
Ni 8.777947996723098 2.2283589922250293 10.839191998562272 -1.8613560471501944 -3.400169259599602 0.9409517661421215
Ni 3.245138435163334 5.2394435390066825 9.808349677070002 -0.8635481912509774 -0.5093262802793551 -0.17613650738768374
Ni 5.795835605249439 4.4047223292965505 2.821241653318632 1.0789850389001803 0.08557788317182036 0.8521155239340035
Ni 2.099315396799029 4.590599452451252 0.228732228548968 0.7994423619100038 -0.19608029749946232 0.8607580301003498
Ni 0.5650479107420935 0.15410506056884551 10.110120011468604 -0.46042132704853606 -0.1426921116863091 -1.6408818941874002
Ni 5.601604660380455 1.9817284711526157 1.831258700033062 0.8954059591915224 0.8097691977573085 0.18665334775860756
P 0.7634456684419703 5.8218242528023305 9.034066072456733 0.10399675199864025 -2.150139011791716 -0.31910218445035365
Ni 8.75316193229611 9.23308439976967 0.6532661040496821 1.288220642834678 1.3812061313244794 -0.6711214313437022
P 4.1598360127578875 8.314017130816877 10.282810948348148 -0.04339945003155752 1.3405693316397236 0.7562650551915815
Ni 5.5675651319007216 8.887878782468732 11.915554386375902 0.019321068926115112 -0.5525691501283903 -0.7941895981514967
P 5.453595135655877 0.2530537837685486 2.955170857443908 -1.5541984366562267 -1.362398511699673 -0.12041273146281845
P 1.1175026647505037 9.132462158219953 4.867393695928927 0.09698715345002651 -0.3826657681346119 -0.21996121788211792
P 8.189187166343466 7.7128724482476105 1.8388092696594323 -0.42413817634678563 -1.3295436699531813 2.1330260062605135
Ni 2.8646723462090367 1.010133105662327 2.9490845016235028 1.5947655594453116 -0.0028644660319886153 0.9428178728165827
Ni 6.8572391441801885 6.010455383115588 4.438990440370443 0.2797360239479053 -1.5106863723062047 -0.7043030603019935
Ni 4.254124037842931 0.7686672660145896 0.29275463296388343 -0.4936950015000013 -0.7358116724332361 -0.20491332241006002
Ni 6.94983804487465 7.798889271833128 10.2696174180539 1.218718839289114 1.9597758192816896 -0.7764219897554306
Ni 0.7096250245447268 2.7550995813940165 13.101231580334035 -0.8623816817467018 -0.530790363690402 -0.37962158199164947
Ni 0.8536788769872347 0.6193202118133398 7.416586260104074 -0.6716451650576563 -0.5581785258953678 -0.4267172499278715
Ni 5.925723762870729 3.504024288091315 5.242537207048125 0.8534517262469237 -0.1269379341758459 -0.26628606909058655
Ni 0.46102171634440214 7.900778356675781 11.932551200556114 -0.31943385675815955 1.7282191832524882 -0.04227124996438526
Ni 0.5982061569310891 5.125932543954929 6.778931704633851 1.2954801526105688 -0.43816817207729053 0.18788850571728932
Ni 1.7248897635458271 7.251310028497745 7.517100177372223 0.06665636367696907 0.729611457159795 -0.9269953039620292
Ni 1.9546565807840255 7.405259028660939 9.7869996955745 -0.028492708123054156 0.661013653485739 1.5604832412236738
Ni 6.885899178676878 3.9010695001401112 0.7816303777099054 -2.4914580986587413 3.134405124450757 -1.2958976997639617
Ni 1.834646128838084 0.8857373563175809 12.008141353039345 -1.0102481385450988 0.006402818202550264 -0.7983064485333478
Ni 0.7186269559436551 3.992217957064402 10.649974264724243 0.37139302343427005 3.2385517717637 -0.8994883567910121
Ni 8.059950790416366 5.527586127982373 1.9383556124125416 0.21348949411484525 0.14839610404962186 0.9370431751163346
Ni 6.013815271849023 2.9938811820645492 8.708043951019897 -0.26704531585411434 0.628236459054718 0.18980423468276345
Ni 2.8531605962862785 3.346559338789033 2.109636497626905 0.17436116065481583 -0.4258546448172601 0.2690931995220785
Ni 8.171396280099204 6.528970670904359 6.472835742991544 -1.5289892843804507 0.06994146218614407 0.09954025888918341
Ni 0.6493664299131692 1.5118305897361926 2.8280403789907176 -0.5899470765562163 0.4882347497163785 0.3741178785646008
Ni 0.5476269794594641 3.812739310541408 1.9014069343709887 -0.9185312323550762 0.16050188617422034 -0.16637917089060378
Ni 4.320559870531126 5.4132581108069155 1.610587450437183 -1.4237612310778707 0.7119626337297803 -1.452364239526544
Ni 3.8337340251134546 7.905148048034021 2.0089747819745813 -0.3185067169581998 0.8682473964988595 -0.5417260367662994
Ni 5.224893201185653 7.157581984868275 13.220287309798344 -1.1552966662787263 -1.6725949090199643 1.2896128951965147
Ni 6.445386553642231 1.4915886371208171 12.974544497033373 -0.8163296245836458 3.2637359843388114 -0.11571404043556845
Ni 7.344523990790951 3.920072149534137 11.07034224539645 -0.8803729761177999 0.8961312673933213 -0.0033378061239813486
P 8.353160752563797 4.144652253290391 5.1543713398765485 -0.04815444821803965 0.23938487382436838 -0.007604551820135291
Ni 0.5946947978039322 2.8477902823270975 7.037559598891314 0.4152784119633106 0.19172613429582464 0.8280777662585095
P 1.5926882399113513 2.0374053158747247 10.017895655747706 0.7813546511703575 -0.8383045861928402 -1.8238372242691299
Ni 3.8865650624383914 8.014059851130988 6.639292525666506 0.9113671105064691 0.6314979034148092 0.39469236028184285
P 7.757478184192331 0.1962358620804116 12.166805213457986 1.4321430273836626 -1.4570027667398198 -2.4705835692025775
P 2.6924918186562112 2.14546337675254 -0.02529739175609505 1.061252654617424 1.63875867719681 1.3470089166174801
P 6.414091852297191 5.4114588261299925 12.508413179407464 0.3282517121601057 -0.8158588555948142 0.16956605325901764
Ni 6.07911278157835 0.9976115531147663 4.854992401693956 -0.5164490073670654 -0.6187763420830827 -0.018318595803529743
