# total energy = -340866.9393738383 ev
CRYSTAL
PRIMVEC
9.30823860039831 0.00000000000000 0.00000000000000

0.00000000000000 9.30823860039831 0.00000000000000

0.00000000000000 0.00000000000000 13.62354808286216

PRIMCOORD
 96 1
Ni 7.75878000846469 8.367194417020592 11.11854596262795 -3.3795358996199663 0.01573232313359226 0.9264126919856821
Ni 8.371764762240378 7.9891309924852045 3.584015387691779 0.8268858028329372 -1.2118161986320097 0.09534447564028095
Ni 4.022127191142378 2.4924298536079967 1.9690387593221155 -1.0737248189425055 0.9377911090259528 -1.9022458433860208
Ni 5.706183051649733 3.677601350775816 11.831057197449526 -0.9504077693486987 -0.06418810464213462 -0.05771715220581028
Ni 0.49407665803195955 7.9810886742165765 10.389372049643564 1.6100852205215173 -2.3181559753960594 0.06852247035143037
Ni 5.250498224287859 5.809104247362944 13.353256748681384 0.14101009599819586 -0.9810465772804781 0.5686118054135498
Ni 8.207846678084673 5.836870723514929 9.995065748512395 -0.8900097278766156 1.3689993048456424 0.08579179895483935
Ni 8.770418010861649 3.9466559914641 2.687340649461877 0.8661542614152568 -1.3952091304717906 0.05018561971545551
Ni 2.9869765776961668 7.607167415919082 9.948800078694818 -1.521450295690928 -0.8171503207127281 -0.05675555962348936
Ni 1.5218877252341743 0.327269296572339 11.622971520487527 2.1984518399644912 0.21119247055055243 0.07052021750774952
Ni 8.936644538224092 6.900188067378811 12.439457643647321 0.45933914972795087 -0.8617360777429031 0.7011683713277538
Ni 8.984042089872068 1.062153814021776 3.493500212567025 -1.0162043561285337 1.350303528208352 -3.1517700980917653
Ni 1.2210733739758006 5.6875293412211105 6.5183501520356355 -0.062249235748208925 -1.0576253422774817 -0.12511425070354582
Ni 0.6912046763529541 3.6974744404789637 4.8393160863268045 0.3881291052420283 -0.3396350142963828 0.21943131352057693
Ni 6.667286625944402 9.474204633515187 6.555678981841975 0.4132863212339463 -0.41176911325847154 0.2535899616801568
Ni 3.89049938716476 8.87039780313402 11.836955828337059 0.5414972085849448 1.7539983490991213 -1.452554758270795
Ni 3.6119131100099544 9.588882134753023 1.595780247622684 -1.422222940056473 -1.343587035420125 0.1792403431239881
Ni -0.05072152370090055 4.255959456450469 8.566623431957332 0.6862600867573536 -0.31027353041513017 -1.9561814170622114
Ni 3.0983682706598996 4.229207578320799 10.342098297570788 1.400490176365072 -1.5899627387400295 0.4161836973863993
Ni 4.511182054375814 5.188086483557364 7.7235706646187285 -1.2683879243794671 0.23868553376449864 -0.7386763955755407
Ni 5.3825169742924235 0.3360246259282082 3.019196115259856 2.7124906952281673 -1.2358526707559232 0.5120015131186731
Ni 7.217375610575281 1.8073993320091872 11.55252397725552 0.05268550331917378 0.6955512822512925 0.05318172622930196
Ni 3.151983725784083 7.252300122315894 5.952087171775629 1.0342064491329093 -0.9407507058749088 1.2799314062426923
Ni 4.264969831547728 0.016480236683570574 5.635912364953725 0.6409441364293736 1.24978290768377 -0.14965800148118097
P 7.535503285884172 5.7246971384973016 2.664370708730983 2.507203791528773 4.002165811121185 3.350971714829029
P 3.4295554049165737 1.915132887149343 11.125179944375695 -0.676409676325835 -0.004065428318625257 -0.8526667684517831
P 1.990892642228462 4.6107522841437625 2.663512489119447 -0.6015509793437317 -1.4833732863135487 -1.2949679888608407
P 3.1812395201339627 4.442273163007006 5.871109218060639 -0.9182941766436055 0.19830455884429074 1.496166838533791
P 2.4033407006577265 7.286479974957562 12.084277593222577 -2.432890168416862 -0.8751505513765961 -0.4182174399869765
P 3.8565336240140407 1.4420695780657937 3.8215960807391953 -1.770237436665803 -0.8176228894737724 1.6574215437136357
P 4.8565828691836375 7.650692740252534 1.9212744630679082 0.47672443508393386 -0.17785940361606142 -0.29482891372528575
P 6.992581645080659 3.3845593788627015 9.787470615731827 0.7101114394536545 -0.4360267002542555 0.649280681319527
Ni 3.801661556660384 3.564766880807873 4.094162719902888 -2.465738325295134 2.067394227193317 -1.991010351815939
Ni 3.634690370198996 7.9304611637269184 3.689093302320315 0.31369078362679526 0.8204385045456967 -0.47044605827438984
Ni 8.931329533905357 3.8113793579016426 10.803460219738259 -1.863908638368719 -2.0405987042670275 0.4503557152824179
Ni 1.2700160932540916 2.2911019579689413 9.53753323576126 -1.0106314900264466 -0.20553784336793635 1.3736357751763892
Ni 7.786862964733728 1.9443886814992226 8.008916584744226 0.6153310638469597 0.732384649029558 0.03425583585907649
Ni 2.3989379037352023 0.32898387414766445 7.185672680261486 0.13156154899078631 1.1952948039382187 -2.3097289276746285
Ni 6.728004267224793 4.775014773132732 4.746866659192536 -1.0375339708442455 -0.06769997445013502 -0.3424020355185587
Ni 3.0416997132300336 1.4886386964661913 13.265031400285892 0.6059313677996145 0.3973938183734059 0.3266820536801406
Ni 1.7615841809464734 7.630512478671071 7.872408471196884 -0.47942769294770976 -2.5806450393380587 0.5413025760756356
Ni 6.457134519982825 7.900051147773671 0.015626671191402586 -0.26826119053908637 0.11062377039685466 -0.6231970968585977
Ni 1.211206640914753 5.350515249515176 11.115248984467364 0.6080059909404562 1.7027827454572544 0.22140077854212192
Ni 4.17239939730988 6.3298257387791 11.281932546351785 0.7884154146718809 -1.3343290071569665 1.5819876909543527
Ni 5.2107613531203 0.9144525433933881 10.228736981290341 0.2638607474785456 -0.26958942243220674 -0.7940546152355292
Ni 1.4476359048304224 2.7962135330234217 11.950930557550265 1.3944123456021082 -0.5897910105943263 -0.15461277438329502
Ni 7.340802856225744 -0.11109476014802777 8.964908074324624 -0.8415192364753958 -0.158345759063166 -0.2682092542552284
Ni 2.4897490808517877 2.1763779155374205 5.482701547817004 -0.004146160957889634 -0.7058038132172361 -0.014937852256754917
Ni 2.216729130461611 6.8264388918668475 1.9880983089596636 0.15823288763438556 0.17457816176162838 -2.447323827343688
Ni 5.107560910244985 2.8756779671198025 5.78840086276447 0.16035096241865288 -0.7504229945885076 2.327495764739746
Ni 0.3091591872859482 0.7763145572432266 5.542945399745689 0.4889065789724225 -0.1678156462268142 1.9267823950748044
Ni 0.4646635544474271 -0.002199536813514672 8.620463215635073 -0.8857105862806294 3.1740816171047723 -0.5352825951338007
Ni 0.14547380909866295 5.61736383762283 0.8785497357615326 0.2844246876728263 -0.2262473080011458 0.7364343936188994
Ni 2.600610204207521 2.8627860564692824 7.7444965161230135 0.85467197180727 1.4940842449731495 -0.2098621817749031
Ni 8.865752992004337 5.7391249085394005 4.497514767438515 0.3849375948879241 0.8633283619306873 -0.4366864453254415
Ni 1.4571489248194702 8.762627015038916 3.1260453877200116 -0.34431750737371675 -0.3926863855954076 1.6511423955731435
P 9.44367361045836 7.844164482397699 0.7918909639454503 -0.3145726720111163 0.3990516656918031 0.8073122515763839
P 5.2552640425211194 6.59898277009349 6.096088417506124 1.6827960179226826 -0.30522979734363564 0.7488911313250135
P 1.347432714828368 8.185972317053105 5.535969805636303 -1.3536858144170234 -0.5425102232304916 -0.5307399700684409
P 0.18952504892074581 4.1314617633452695 12.852128168982397 -0.2780010435346696 1.3178634054017755 1.5243844386185876
P 0.619935215640485 1.9338238305329123 7.353323368150664 0.44001859502246804 0.18413212399865062 0.3642240164896566
P 4.08913720180887 7.98399284470247 8.242968524486507 0.06326713548976201 0.5726872610345041 -1.188988659214533
P 7.3491709628501605 0.3609595358564482 4.5484941293524255 -1.2639517429849845 -0.3216689167362654 -0.05648585090187046
P 5.94179319055656 0.19317108603396502 12.13431775384794 0.617907309214568 -0.9277761479921118 1.169305836073625
Ni 2.850052385877289 0.5010131575386507 9.360331364104212 0.9845607610813237 0.8078483265855119 1.149969083418226
Ni 8.987886392470381 2.102461191728195 0.5825728761746934 -0.6615543564805574 0.8945934905925562 -0.08199427958562008
Ni 1.2793150237521922 0.47208966731167595 1.1401643012274627 -0.16832652442496174 -0.10279039039536492 -1.0042646672681543
Ni 6.678056258162924 4.108274940651808 7.835175516249534 0.9036237191156244 0.8176557995942368 -1.8643778646956535
Ni 7.575491479497625 2.399319541523413 5.5382717330759235 0.05375713911679775 0.027125652572198445 -0.16423847039851716
Ni 4.471426566730781 5.812110808474942 4.269565309012105 0.2282324567519747 -0.2598176877574235 -0.09819865725962444
Ni 2.031774426760652 6.080234625289542 4.076928515881634 -0.8837524341129941 0.2061554223472772 2.6411983754410833
Ni 5.701677864101104 7.621427637663918 9.906349855935472 -0.9318006957704726 0.7283493026179199 0.5748716702803325
Ni 1.6563638502652638 3.383107293619755 0.820140537687878 0.4526105727548657 0.1911257817076644 0.5979822881558668
Ni 1.6600406045663145 2.0706177070094745 3.0619200002380653 1.4217071767623193 0.7044969214803545 -0.08049275533942912
Ni 8.98618298478154 9.424684803435213 12.895015878962376 -1.2737167927915483 -0.22128636445144473 1.4747968574984471
Ni 5.732525367274983 1.2805344030267178 0.6296790799502064 -0.2758598288219507 -0.27864279088372657 -1.5132173662581745
Ni 2.831110120047825 5.139869806900547 13.172703911079076 -0.09838300535628862 0.3882499470906087 -0.3248619697522663
Ni 6.614974324243376 6.8045552225965436 7.9443136846150795 -0.9118779887046166 -0.7489137570328327 -0.36488684688463613
Ni 4.9154202462391865 2.9576090844814447 9.022112786305733 -0.6368972200535096 -0.4924194772216874 -0.30353929701509014
Ni 6.5995878056113835 4.391599111323663 1.713897143073782 -2.815509142473938 -3.4562344780242866 -2.0253482058658605
Ni 5.643371056653553 5.12802972722729 9.940789408437896 0.2058036954348133 -0.024231618853855042 -1.1169774589835537
Ni 3.730397680891157 7.701776354440298 0.039452039062211536 0.0749466287102193 -0.9924080250398843 2.118188427027049
Ni 8.2871714886 7.435383870030749 6.390642978213974 1.2790042664427328 0.2852189014393475 -1.310386123188124
Ni 5.74201046254782 2.71798709467904 3.461048899858789 3.4599062704489185 -0.22396545394550463 0.10632180058739109
Ni 4.139262067406739 4.937369073180649 1.8651457834847787 -0.6048731017384292 0.5261495224842809 -0.3170216477722411
Ni 6.170617623424233 7.727094763804495 4.505430493660322 -0.07268842880366191 -0.053740426946249385 0.10047022690262052
Ni 7.511897592447552 9.138028283295569 1.7205450871796313 1.0822248859937167 0.6239306325905125 -0.8263692682078349
Ni 7.4258056923705436 4.76198323890116 13.15517091259437 0.82082879800558 -0.0657096834929836 -0.8701173598280627
P 8.333414818644608 4.390100484887033 6.176998421078335 0.6799498282686096 0.43911125271685025 0.9410474111797213
P 8.608538430989311 7.454484375918739 8.5171976150886 0.4947625235325673 -0.4855435760374606 0.16879806474474157
P 8.952608167657768 0.8765028540633021 10.819167872606672 1.1722240381616844 0.3203039180679387 -1.845593642109615
P 4.934241504965072 3.4444578951342497 13.851061356327445 -0.31001770565058223 0.9262939070196305 -0.16835583500100038
P 2.2193168208304512 5.212865015074826 8.757679686150288 -1.2613708696316859 0.689631831443064 -1.1707970759071709
P 5.103176729799934 1.1053440417607014 7.670738963196188 -0.45622143003457555 0.7410760061559689 0.2789952891271389
P 6.56048389467793 6.19063964494717 11.60151416855137 0.24145744008268097 0.7448203036897495 0.6806661376093438
P 7.272340760316305 2.0678717765821073 1.8947497059634162 0.6795523357198748 0.37449377384678084 1.0235052606653212
