# total energy = -381174.2418272066 ev
CRYSTAL
PRIMVEC
9.18602279081284 0.00000000000000 0.00000000000000
0.00000000000000 9.18602279081284 0.00000000000000
0.00000000000000 0.00000000000000 13.44467289176760
PRIMCOORD
 96 1
Ni 5.848226181501659 0.07099325717530901 6.920941425774127 0.572609356608717 -1.255433421101328 0.47819484898187314
Ni 5.258906086679346 2.825987997180796 0.5311992111369593 -0.20970097360669046 -0.43643010634026125 -0.9262324576540758
Ni 0.6309998352319113 8.296227720133517 12.84724512509154 -0.6351732953838675 0.8331505527957264 0.7737272165320869
Ni 3.6588203654957177 2.142722449078128 5.749573810233543 -0.8141719548106946 0.35235451874558027 1.0497364264477083
Ni 0.8832075977315766 9.208252789409613 6.823897527065841 1.7718258641988454 0.3027540821096334 0.37867901557272204
Ni 7.375540231531776 8.012085668616171 0.44647744316400795 0.3079970756761276 0.4354667139857275 -0.40334026576482795
Ni 1.9855312300956882 8.334202737622613 3.4318732465841664 0.01075081075860084 -0.5487803725099194 -1.6097556050962405
Ni 1.1282181115126386 2.356389335095633 6.114650232599807 0.431010992207219 0.6014082831182803 0.26386126169917784
Ni 3.152459240906597 2.568852852150615 10.40649962572302 -0.19299677347813216 0.41971485046810947 -1.7757470536301225
Ni 3.084905230598225 1.7093534601852713 3.5643981576416617 -0.8043081746427374 -1.2318787737098396 -0.5826227749806611
Ni 0.7446493070207582 2.393206913735279 8.704390262971685 0.33929022936245434 -0.012996926480300196 -0.16875769842510935
Ni -0.020949643175043955 1.168921377718295 10.930747773547447 0.7548728028297451 -0.3924680989370144 0.341378993570683
Ni 7.458885014714786 1.2018532687919303 1.1575031516082452 0.09700026607614906 1.7039654529114459 -0.5681490068445182
Ni 5.06475949871804 6.584329731683979 13.016567405538927 1.2232534939346738 -0.7478297799400346 -0.7123231023929926
Ni 3.9040871693077293 4.24095699063335 12.5076865549466 -1.7569443191013223 2.5341232416274355 0.3929116142323362
Ni 3.4551478720829865 9.14091005762138 1.5395902506523778 0.4298244280982856 -0.21406259300949584 0.7557220382039178
Ni 4.170766591834565 7.1359963198087115 11.100217948958935 -1.953568404919397 -0.002141986043667279 -1.806072444086541
Ni 6.0234954929897935 5.830111344905506 3.587724224867124 -2.573939602293425 -1.5589909729488634 0.6512048949254333
Ni 4.9578433815057545 4.051780040906587 6.428731369022925 0.02300880219034747 0.18648622605312398 0.00046768366503790424
Ni 5.1929963744190015 2.9251970414193624 11.490046109260458 2.070123710309338 -2.571063309186895 -1.4165590569024764
Ni 7.026939859327205 5.7535642184573605 1.1600467612702507 -1.7138906824449578 -1.5537117268277951 -0.5842991342418196
Ni 1.1696470735048548 3.0758294402549193 11.561167970752372 -0.6287051711610205 -0.05954597788443294 -0.2652409156555238
Ni 6.879375592044953 5.2437307773198905 7.004446045750634 0.1339400765252919 0.2876107987102917 0.7001970085534199
Ni 8.060027520642196 3.5812995206504152 5.251811721414026 -0.560342366315906 -0.21769967554145087 -0.9704716299781093
P 3.135850912019252 2.25289041829601 1.3282988700830292 1.14502639470097 0.8539592620109615 -0.11705589917544358
Ni 0.5613817256420203 5.380069724967002 11.968824363744472 0.4667261862206414 -0.022015070818510476 0.9778540384851094
P 0.04894496569554907 1.4625801486644519 13.209888170067174 0.42677612819026506 0.2735026414436838 0.024582831545686697
Ni 8.235094739632808 0.4669411457427352 8.404332508672141 0.0389162174492233 0.41320764547721095 0.858436838166341
P 6.4976596083144535 8.929971420320435 2.288713150686486 0.533121840037056 -0.0332253377120331 1.860631510279344
P 1.4941892524815727 7.64154907440774 1.3169982250624472 0.04584688313078556 0.5991143448777811 0.29020684157224214
P 2.5422501306584957 5.106849854338513 10.98729601016117 1.1440689158837072 0.9268433517651974 1.8707997090615978
Ni 5.3989561874627885 1.5890073779103213 2.5323448424730843 -1.6093563127752928 -1.0528394908530643 0.6185832522356701
Ni 8.16179946519026 3.438245590471971 0.3674951021207099 0.4758147787854708 0.6560732787613281 -0.9674449273366436
Ni 8.33039053823752 5.9773265433284015 9.48669583249681 0.4707234803054926 -0.06588554694921556 0.3367659202787039
Ni 1.8642665455592697 3.970446996676192 0.12475812893678176 -0.6267377630220046 -0.948664818515663 0.8052399424283875
Ni 0.7971033333551157 1.064788625358259 3.9891414712993316 -0.5488338514556741 0.7107794120549565 1.6160730626738362
Ni 5.366612201836493 7.439915878015468 1.5578208311334756 -2.1130973856573867 -0.6048844145923389 1.9903367227876816
Ni 2.5784981758960313 7.17374168673244 5.3494067814791935 -0.0638965415436448 -0.5939292011324159 -1.3345606635517984
Ni 3.9862561415960602 4.734926170715265 9.432728868237815 -0.1816499810067452 -0.193812327400892 0.019320297595166725
Ni 7.043897257073909 2.624391544878983 7.401601896291891 1.9054808053835508 1.0266391783086126 1.0182172727935044
Ni 3.0441101041664216 6.908963770886844 8.953977253219383 -0.2080420978470288 0.05363758281979795 0.4075581605009174
Ni 6.4305373410689715 0.856761038623907 10.078919629067626 0.060212664934154364 1.1253469139941716 -0.6017409838673508
Ni 5.3139671062317495 0.33216290333785825 0.011040680580586396 0.026462307956586682 0.008762576683978457 -0.5671694165400684
Ni 1.1509351454387473 4.735624308433981 9.596121571087426 -0.628070108680183 -0.45596226283591795 -1.9371295426370834
Ni 2.9999345214124156 5.526706203965173 7.024263052337288 0.29232388791524494 0.53460125279606 -0.07926299669738607
Ni 7.39738459330949 1.1955975873913316 3.730734980739279 0.7676771536832651 0.4394143857795658 0.46111166824734134
Ni 7.805510392057201 6.951834938429565 3.2260622471067375 1.096801755366627 -0.23196338454931664 -1.0882700637465321
Ni 6.295135367728558 8.37734029982116 4.626594487418058 2.32864247674968 -0.31821978184540034 0.21422920049434718
Ni 2.349463074044163 0.26548891399597274 10.58009708109528 0.35034365896313857 -0.010952899467077911 -0.10334086358219621
Ni 3.059092507050968 4.958477217066168 4.500469478316211 1.147230087220508 -0.6484203902017607 1.6138182052013883
Ni 3.2417290086760775 8.277993465243373 7.100279226678304 0.8926533361470499 0.8961155836640373 0.6118845000592559
Ni 0.9337775708276631 6.819574584823372 7.047065516273713 -0.40273219986718384 -0.458653693625152 0.9007248003012747
Ni 5.832655873169774 1.8718725722842269 5.51581158114416 1.1384034900678135 0.09821562654048893 -1.1361735722960304
Ni 1.631235523870015 7.249544745348797 11.021243875335989 0.619308817547785 -1.1422426613082457 0.569970119213657
Ni 8.771062415109048 8.874947144858488 2.3894682025311034 1.4651927587497797 -0.6190630200855661 -0.6732253650605825
Ni -0.007959688595622023 5.95858705719445 1.1898306023938345 2.196210095118166 0.2402431080596056 -0.3910987293933136
P 8.049270688160405 2.4423613207464427 9.691255695694121 -1.7003278561588586 1.1017606420337993 -0.5672977145878165
Ni 2.513892878846972 6.32871028038522 -0.12494276799133687 0.012979185868487323 -0.8619530788497155 0.12026797835483802
P 8.10166776115455 8.29734841489251 6.724622343464449 -1.149046057383324 -1.4193556458110073 0.053924775042913584
Ni 2.8820502931982004 3.3842868936333286 7.709806734048397 -0.6019014207046149 -0.7047725437392444 0.549857150513866
P 5.620872121788278 3.7000380489677958 4.354662497160147 -0.047982184306233494 0.004939603393462461 -0.13275094131319717
P 5.249214832820856 5.962500302828305 8.177439587294018 -0.2870163596594025 0.7070605684424726 0.18086399477034013
P 6.150786208361444 4.488814252822703 12.596381277700402 1.0953387976678555 1.1049678361171873 1.2088326905236537
Ni 8.540373829186539 6.053993088070538 5.495267960168684 -1.0183327153254462 -0.31858127894987714 -0.17118327714746648
Ni 8.939194187025576 8.263718386100157 4.686342215708473 0.26315317988855974 0.29681251981421786 1.188960634190075
Ni 6.184949026465446 5.7936336491026035 10.725729527821667 -0.8004371217231054 -0.1526546222156597 -0.6508423693796921
Ni 7.196624069065614 1.5614309380210456 12.31775359555865 -0.31022853610980766 0.1357699306451791 -0.6034595092203542
Ni 3.1138228297892443 8.470890754129083 12.805566303284204 0.1556479005160287 0.5617446459800712 -0.7742530071285698
Ni 0.8691217506542233 8.100712414802624 9.146733077356826 -0.06557341502543546 0.6678540734463402 -1.7687035165197798
Ni 1.297966623409349 3.4604941372447313 3.802206829692813 1.31406562892224 1.08046008078381 1.851703611662095
Ni 6.662291505614786 3.489154527802539 2.2033125356423096 0.6982121169129072 1.390721269903766 1.789446405494086
Ni -0.2152542307253223 4.459722119202004 7.308000000257326 1.1525759249134535 -0.7187757999968718 1.6411888839048572
Ni 5.027987850191467 2.0813322599442077 7.968254561710216 -1.9121137373190358 -0.41330534739733976 0.6082219636060041
Ni 8.219983732431656 1.2091010406349143 6.001433422476112 -0.6706311219708451 -0.32280611566450207 -0.7839874608075142
Ni 3.095726365238321 1.8131830737990229 12.632600846267831 -0.3218956880350908 0.13981401880756567 1.2935335704071593
Ni 5.068461465831756 6.54715389816236 5.9535834306762325 -0.6256414446340323 0.5838077964276978 0.02398222184721031
Ni 4.241829662781745 8.869389601176605 4.289145946667712 -0.331073754989933 -0.6369501847786321 -0.8391047134966323
Ni 3.997444717140743 3.60428294923235 2.852972857213686 0.6423194195103454 0.22178001625841162 0.08912266310028523
Ni 9.017881656742942 2.65336426020569 2.5154039795670875 -2.3382635447792115 0.004082140489173615 -1.3612003776265136
Ni 8.431124462230123 8.274668125056857 10.7908694513869 -0.406137626004307 -1.0768152849423713 -0.6671524193936252
Ni 0.9658184177076742 6.021548056195481 3.810408110683201 -0.5278127691193167 0.2045736796824541 -0.1281221842919342
Ni 6.205195020308206 8.171582579274896 11.399724541901598 -0.463500223084176 0.337548049860367 0.8708889478867647
Ni 1.4207194436093455 1.136209951187412 1.7459119929871831 -1.127811316374264 -0.4948818227192509 -1.6680476559689141
Ni 2.842228885163554 1.1043803828275387 8.327630138441808 -0.8831060587782468 -0.001068293363514289 -0.29184026341060704
Ni 4.651912084346383 5.069104487414784 1.3138143496241983 -0.28396034644189805 1.0972797234443101 -0.22702326693522193
Ni 2.1691138920501096 5.034831437039405 2.1066590428951475 0.8480192423774428 0.3628037391033622 -0.19318729222238343
Ni 6.849851715361364 7.599238254244514 8.724516838520454 -0.7637706195400071 0.016066823654875554 -0.5156486229529571
Ni 7.979126219474693 4.077280439684945 11.350490216493686 -0.7262785361318201 -0.7875556377747468 -1.065993768846835
P 2.60570717488072 0.3647172488820301 5.38369085508171 -1.9458373548237262 -0.09233962737568613 0.7087284430631987
Ni 6.04832531211728 3.700736186686512 9.505033889442501 1.6845775353031376 -0.4571226016926063 -1.0446147889504267
P 8.353456641022987 4.699422193309519 3.296190180951743 0.09880003828904921 0.5090267467610654 -0.5716719323961122
Ni 7.791556823705498 6.536865552833916 12.184503907316856 0.21912200981027424 -0.6159807816158166 0.6480000148348904
P 3.544610546327375 6.498642512734224 3.164862208640941 0.6364819868929619 1.162080264859463 -0.6124295739294485
P 4.405322493277857 0.7521056015770955 11.325268154200554 1.127605371011045 -1.152216998912138 -0.8668664569909329
P 1.3037630036792134 4.56934811308562 5.85007257204721 0.2349839165431953 0.6393870763548989 -0.2133912779740841
Ni 4.566371841758463 8.914887971187126 9.071281843406611 0.15148477027727458 -0.4129289378945275 0.8248669726306955
