# total energy = -381169.2830182199 ev
CRYSTAL
PRIMVEC
9.25852729276515 0.00000000000000 0.00000000000000

0.00000000000000 9.25852729276515 0.00000000000000

0.00000000000000 0.00000000000000 13.55079055923907

PRIMCOORD
 96 1
Ni 6.319944803681301 0.4468720786959451 13.504229607900175 -1.5384103205840343 -1.9859360226168248 -0.700435349816471
Ni 2.7080914598750225 7.364917746002946 12.740751077923779 0.5892271676710561 -0.5979208387903121 -0.44478053518748556
Ni 0.6274281747034212 2.6200150896633927 7.630463419219996 1.7097540345687652 -0.9178686590704128 -1.7383449588325803
Ni 0.44007631965722577 2.752736078519034 3.202865307119368 -0.9774298064634974 1.212958539766569 -1.210165550402464
Ni 5.993378028730748 5.571346578782601 3.8323396163562453 0.3716786729954889 -0.5662818717287925 0.20947111698407153
Ni 1.5126674489168814 0.7615120187777263 3.8841577419528446 -1.0549449672318412 -0.775892856724838 0.34082157840531624
Ni 3.0765438123339757 0.9685530579816062 8.462156926642546 -0.7580141766722042 0.6804820466229958 -0.13426017886887198
Ni 8.30244547899988 0.9913938448324514 3.882477319247766 -0.06989209700544737 0.2487434322211329 1.5213145414440121
Ni 0.6350896060447566 8.690451841117929 10.414514614628212 0.5023195099442188 -0.04054475419158179 0.29248381053187694
Ni 4.39894852522132 4.221879190595289 5.637399690104038 1.1198213561902521 0.6690825465368025 -1.220088465943131
Ni 7.609333608214321 7.975786118776322 11.456976644345907 0.03704522567875555 -0.25357530639213743 0.5253223985972952
Ni 2.181253480882867 0.843891617141231 6.201329181168288 -0.09812203838541811 0.07013918001924695 -0.5858505378893395
Ni 0.1523981369278346 1.2353190050968894 1.4086728927171452 -0.7811962712156224 -1.75992705587873 0.5669817260092945
Ni 0.9029100994195904 7.248251043486732 1.2355328770775358 1.2895902694886952 0.7584000992567133 1.1160415774328456
Ni 7.492305823133379 3.9717137829301747 12.119732581670636 -0.5706928563122946 -0.932898813930658 0.24910544354624198
Ni 1.085617877171751 2.0561337429411073 9.828889616540216 1.2175836972434062 -0.0340617175703994 0.4660900952985393
Ni 0.8512364068488821 9.30741232485517 8.081840697300466 -0.4670406321372666 -0.008634021525914163 0.19773300261153687
Ni 0.5907764426781107 3.8754158404755166 11.761272957727337 -0.5574460186047174 -1.2767982599303493 -0.4421870634286965
Ni 4.246525390269773 5.224198097642576 11.870044914014239 -0.11904978967702078 -1.2693942541567944 3.766569714915287
Ni 8.55306455450273 5.839269841810473 0.2696120184075208 -1.048042326574737 -1.7061699167619324 -0.2555404005383083
Ni 3.1743323776840477 8.522659550847209 10.435382409311277 -1.271778695228571 1.1167195773364766 0.6158314005221458
Ni 2.161079149894626 6.894769729673023 8.811564488443944 -1.4124620040149674 -0.5722270335686339 1.9888735079785944
Ni 4.901973571996055 7.650867361685295 11.685767815884608 0.5993267179989034 -0.287975124028246 0.9423409331801641
Ni 5.795838090242854 4.207121098077962 10.344429414667317 0.7030622459163569 0.8620296977239219 0.3316982759478094
P 5.653988193468716 7.604046989125617 0.27056842427768385 -0.001610024799597227 2.1677024745967763 -0.7193818090119869
Ni 4.405299874949605 0.317017529892603 1.8832751865314392 0.0851258832360663 -0.7514887168488605 0.0996652145028219
P 6.620643253353677 2.2829306276992365 9.690170027846447 -0.1677446837795627 -0.05758576883426857 -0.02548246054182063
Ni 3.261223656401187 6.743892768780694 2.0226724994236203 -0.5979192961284154 -0.148434413486725 0.2178274593685668
P 9.077541609033206 3.8091247850024517 0.855907333872089 -0.24934558458150605 -0.46856786741507045 -0.21593384189027973
P 4.015580685280927 4.846839041920342 3.404148468194937 -0.6384830764833906 0.4309228033687869 -0.8863114530894219
P 5.444828803218434 3.9004231227147277 13.702559298766818 0.35730954875801046 0.40849738448573514 -0.740824295156479
Ni 5.705104522695921 0.33377361260142335 4.0692755143613795 0.5219766220535139 0.6751629484029276 0.37085643420450964
Ni 0.2603201604085308 8.583747313977275 5.782108620108636 -0.30653283242577534 0.020607906058338704 0.38454267344235066
Ni 3.290776875545045 8.487393820358815 4.371133131651804 -0.5657244565634257 0.7380307915717419 -1.05252298805391
Ni 6.150171188568228 1.9408002683561947 6.163712710598244 -0.01675999306715823 0.5328616443971339 0.6093882159999634
Ni 2.9159083636667016 2.9702466603945537 6.83924634145068 0.32761150747294543 -0.7998563095189709 2.0817610374379503
Ni 6.5038932240917555 2.8832350208225055 4.198644916334164 1.8064730219590694 0.9042937485994554 -0.14205036433725216
Ni 2.5074221391594893 7.811317639806555 6.854477544713074 -0.9209665812694462 0.1475772076927523 -3.032394292533894
Ni 8.02509703517989 6.378069838075142 2.459278723048541 0.5795675330941051 2.1502351710499483 0.972424897049738
Ni 7.505258502827069 6.012191356205785 9.29145154964148 -1.7746702756261759 -0.3505321208248608 0.4025511942046293
Ni 2.5929246387815224 3.0194279574159117 12.434571580089383 1.4219460322460027 -0.8073672731840353 -0.27122670092531354
Ni 5.628545760446372 2.1318499792062924 12.040609207358791 0.262995828375089 1.790096637483575 -0.3175196704545822
Ni 6.683277190542963 1.5174078148948438 1.9877521120035422 0.5467265753046843 -0.4319283618151658 0.821954684079907
Ni 5.038425747353881 3.084820935740808 2.5571830199898717 -0.13092674362026482 1.5677702618033902 -0.6201577958116417
Ni 4.0333755747528865 8.252180934284342 8.36879208563675 2.501053969877293 -0.4313058977398185 0.661153521497713
Ni 8.08241657769857 8.279984291768365 0.6488755531955099 -1.6124691473726618 -1.0887266916679765 1.5786000054290426
Ni 7.7569515674968015 2.0926308575604957 13.49290179974776 1.2689337695806082 1.281030295733826 -0.20393450343655845
Ni 2.9703207286129594 2.105620571363388 2.7617594392263034 0.16129584283042545 0.05642800108074153 0.8188403068206414
Ni 2.7261918807479057 6.130228320762504 4.616280417519935 0.5187473164829388 -0.6079345142725723 0.6718457111042365
Ni 0.9026193816623482 4.764808490036074 8.971246308799245 1.9174037820733816 1.3486726774731481 -0.39990295794850483
Ni 6.241080668133875 7.487982090883949 7.239279530532347 1.8735471898997478 3.2271599849869905 1.9468624536541308
Ni 3.339384143873759 4.4079292967030055 1.061171661686963 1.7296325186602468 0.028917454365298582 0.7995266940936939
Ni 4.325889486291437 2.5413546417165827 9.667201473318851 0.26447961200946707 -1.453698127846619 -0.2391236497431817
Ni 7.819705865540996 8.678897199046645 9.194807338265775 0.2816196141238634 0.051857865211555845 -1.103729592834712
Ni 4.350443100692913 2.082279824038305 0.535106769724417 -0.5336198627193971 0.8319328783385413 -0.7858877631540208
Ni 4.615116620638236 0.27642722035357153 6.268622935148019 -1.3820245134607165 -0.43233408189401673 0.08900362102391768
P 5.93555852573783 7.526414237709186 9.752869700579566 0.044275681988923746 -0.18042176502659896 -1.1247673873416177
Ni 5.348882684801203 7.656635424193636 2.791056197163932 1.1756837145755108 -0.3573997944789716 0.1633486115943961
P 0.7022046704475847 6.310695534907894 5.958472454954351 -0.8228214029555765 0.4666359404996802 -0.5788543090771643
Ni 0.913464820542397 7.328679870147978 3.7358852047902054 -0.4599245899177757 0.6904581839991012 0.1793925524311362
P 2.4063190210357646 8.879936860854206 2.2657597629673445 -0.8273313750107881 -0.9079231178219267 0.7051808349212565
P 1.6562116561870495 1.096950314587817 11.77363123996832 0.3266105770122568 -0.19460962649120678 -0.6714677589395275
P 7.2264564702208665 9.243722915553603 6.055686065759049 -0.13429180343775585 -0.05337558740766291 0.44613602077411557
Ni 4.473461152937412 6.229720455135907 7.327494778653487 -0.7799875956195018 -2.5808373578545227 0.8380677875916857
Ni 1.715623625875689 3.4579118103774156 4.910007196134879 0.17825612483384784 0.485394452054106 0.39887271691177756
Ni 5.618685428871118 5.858796075887665 1.2549507863853095 -0.2470632163052326 -2.197369662643906 0.9701582125027486
Ni 4.02139504042577 0.34889278768347853 12.48008835200512 1.0923786865982672 0.6998295979116722 -1.6052698014107452
Ni 7.555884130107338 7.419968949332953 4.647027060832855 0.06124624840499129 1.2271978232944025 -0.5574817569386593
Ni 6.473330825472121 6.0293011146574935 12.470860377844506 -0.30699254567101325 -0.11257986568196096 0.22197542009866933
Ni 8.433509191468696 4.3232322889561345 6.999470711505802 1.2205373805550916 0.6918486365887246 -2.047773881859228
Ni 5.685809751801247 0.723423363315346 8.341866436540833 -0.2588956901637864 0.09397459187594782 0.18203127560556392
Ni 8.330619177575935 1.5431187452089083 10.851527287601634 -0.6627023540420716 0.22122568641683837 0.21732223759737412
Ni 8.620790681707406 5.814882880900409 11.316874757526142 -0.627944381735596 -0.2554226440135214 -1.235908206584207
Ni 7.355983267157764 4.319630721836159 2.13691902290343 -0.20540260334165272 -2.275422955303907 -0.3623260281359954
Ni 4.8986775362770025 7.33971603469042 5.36441941946452 0.7975315180405361 -0.9555959984178576 -0.893457320105584
Ni 2.8570333885615034 4.188215185329917 10.277285648829858 -1.045858945770173 -0.53885231476293 0.655323287969181
Ni 6.944302850731808 5.805152168707365 6.074589200948903 -0.7874062566810761 -1.7695206131044365 0.031139144606965725
Ni 2.367025831171562 5.269648208161748 6.920212162695367 -0.8536970094885103 -0.4304376362022523 -0.08800140501164844
Ni 1.6324542751334343 5.2965812640795065 13.444145469129504 -0.49661474624995766 0.08304251834447633 -0.2170011068125295
Ni 4.079547850401514 6.206777824484754 10.008830946334925 0.7156002304823675 0.9939779406301656 -2.783159265388323
Ni 9.074680724097288 6.841996124058991 8.037854359947534 1.4299740447568017 0.7565928708446453 -1.935663499614518
Ni 6.380069679972094 4.164744818622624 7.974437151348609 -1.6306720435339335 -0.24937052428217052 -0.1438388236962426
Ni 1.3323483712083035 5.126104000891581 2.898134768807534 0.06538212495023578 -0.6397110353532208 -1.0791984404625672
Ni 9.136990612831049 0.14995944083682824 12.689475502027 0.5769756039972127 3.9977152315489994 -0.7263078467078589
Ni 8.531103327745454 4.819276406146136 4.3875022079194546 0.16902637870546375 0.07629620075957827 0.38272618905890216
Ni 8.461312548952721 3.6081406743586943 9.105426441557476 -3.18455372028069 -1.705543081811211 3.0121807937004967
Ni 0.32283929185928784 7.386536407250098 12.556175855215066 2.275161988333036 -1.5467016140585492 -0.7967545306651955
Ni 1.6810337678802463 2.7909460206890535 0.9716463319527725 0.059873536427180754 0.5077874750373255 -0.20229336828870967
P 1.4311275989795509 5.653997451996016 10.903318563469062 0.7692349850886882 1.6668808893543228 0.41677710799602413
Ni 6.172586083163241 0.27518194843162636 10.693972150967307 -1.486747344992104 0.9654147842804922 0.22003500854284685
P 8.700904718440428 2.677991987620423 5.312316131227059 0.2757628982327703 1.4141951846559904 0.40788366216113625
Ni 2.3229552412201944 0.223193465932694 0.19670481932537 -2.195522067912206 0.6298603678113861 1.7058896665173526
P 3.765572672579924 2.117341866926084 4.95948106261894 0.17941697791116845 -0.6308049911128426 0.06293057808594968
P 3.8246328182311364 4.282013325413384 8.416517942166438 1.1857207870965385 0.7711795104095686 -1.2101200418765095
P 7.613823993955165 8.701404678914667 2.7518676286582275 -1.1074363522623378 -1.3755862140345407 -1.0801566906107782
Ni 7.813030467357186 1.6177980264164145 7.8094150124462605 0.5806808207629419 -0.6444673190912837 -0.04701519240727387
