# total energy = -340893.4805994156 ev
CRYSTAL
PRIMVEC
9.02394472202364 0.00000000000000 0.00000000000000
0.00000000000000 9.02394472202364 0.00000000000000
0.00000000000000 0.00000000000000 13.20745525499506
PRIMCOORD
 96 1
Ni 6.2793840635783384 2.189831619848434 11.260240542533385 0.5666369410753661 -0.32332907804750766 0.5458750259376663
Ni 4.56325539323035 0.24554514300847588 5.925920664323991 0.14844186968589274 -0.21967505410026683 0.11728806979090767
Ni 2.662424624159172 1.379409200357901 4.829940028933224 -0.1616982204751667 0.3432178465516347 -0.1245303531756178
Ni 3.4051584349667534 4.4620247823510875 5.040347736334491 -0.11747293210820414 -0.8331991466454746 -0.07129643355214173
Ni 4.76152950467973 4.5817364318362275 2.4144024083492734 1.2125574476734085 0.2425203341295565 0.9016280288418344
Ni 7.2643837159152085 5.859012626851689 2.6198307031027266 -0.46425535608264556 0.6372962552641412 -0.2798450387219439
Ni 4.841689204843796 4.788637434353586 11.307430358590793 0.8009809100417172 -0.530006434336526 0.7032468511233372
Ni 5.456301049769424 8.091545552697687 12.502520075477891 1.3510650889647247 -0.6491343855496498 -0.18316127544494906
Ni 1.7215249892377904 6.538831495686528 0.43081123827115175 0.379902603567178 0.5687131068781045 -0.5844274322895676
Ni 2.6835857743206866 1.4614910007285349 0.3308782706299387 0.07549427368357321 0.5892058275148175 0.7184220162018788
Ni 0.3164408616135604 9.173922591556051 5.014764853303406 0.7797430837088635 -0.6080581843346302 -0.6431856241653826
Ni 8.540071696675477 2.3830974420271795 1.4474316949922283 0.5635431326413908 0.4705620150269638 -0.05104565372290563
Ni 6.884376383526493 0.49540012197308797 4.658097953704778 -0.45570386696820875 0.6445969026906124 1.215959788486738
Ni 0.8506710173371802 7.233106723821473 2.5938913742586864 0.3859171851923741 0.04353674694037018 -0.2867430513933578
Ni 7.406844729817055 3.679125393987471 3.722904158974069 1.3823245611996386 0.10907133830807021 0.46289472828969314
Ni 7.750205823056129 3.970066392860559 12.543384106348425 -0.18409664277502488 0.00829900678399861 -0.5656488661304839
Ni 7.953172385714034 8.821059284619716 7.044380848186975 -0.44751618895109374 0.6557935427373803 -0.022236957021329447
Ni 7.023958759090802 0.6903859079986497 0.5177334825422703 -1.243484219159252 -0.33403746560394726 -0.6686305466010484
Ni 1.7844670030444276 6.444513226395206 9.426913391280205 0.04662489894739067 0.23917070093103324 -1.0447029777888588
Ni 0.10312924882978809 4.714541824982073 1.259516169585663 0.6421343000827328 0.1968806819135706 0.8821051283175583
Ni 6.222424925062569 1.9488652263461215 6.856755893797552 1.2107113956036053 -0.0018691919982548456 0.21945188234586724
Ni 3.371526193324125 4.463071559928373 0.44715179721037157 -0.00898086334237163 -0.2990732908239365 -0.2946980445743763
Ni 6.038670340525715 5.505319117009231 4.916303691031636 0.4238491843514572 -0.1193431525477235 -0.735893690624081
Ni 5.225306115085224 3.0729419133479228 9.09923681620562 0.4447725647676856 -0.5701292704993407 0.13049428406853653
P 0.03435596200209734 5.827257365692469 12.234844610654449 0.5177592415380567 -0.9237426013526865 0.20544039855812363
P 3.805740361115919 6.339032337594377 12.526201613375061 -0.622867738543637 0.44654893994181805 -0.07232256082381094
P 2.3415060812193245 8.587970794780944 1.3127321758681718 -0.15489996660641064 -0.9717484398080038 -0.75161161557997
P 6.570514565288693 7.54588566870346 5.896032457309086 -0.6429051168104863 0.4892266813160026 -1.1005532519892596
P 4.794719573035403 1.1992461457844945 12.667560803637368 0.42699852861371623 0.03186933790477092 0.4216688888706867
P 4.243149005307362 6.148239076244739 8.190378501488286 -1.127787148004548 0.28536931097428275 -0.5761055426874336
P 4.734069641165236 0.944779931113045 3.7674662023547048 0.6277636331833575 -0.15953386583399623 0.5225908585987451
P 0.2576038402199181 5.314697310607595 3.6229766056996344 -0.321860206811465 1.2403603288182898 -0.2382754428102735
Ni 1.391988579174597 1.1262243858241638 2.5618103486982595 0.2484071319276367 0.5016157990089748 0.22937582632779852
Ni 1.9956634032065115 6.627960996814579 4.6459472122580925 -0.17427939957428693 -0.28633244621850046 0.5727335408914072
Ni 6.064424678504804 5.5342137877201765 9.144445876416356 -0.27364559477945133 1.7856244606448344 -0.7409466796669562
Ni 8.696510800811945 2.2326231652923156 10.250292390473042 0.12640211627703393 0.7803730039833786 0.7013892290893082
Ni 2.4901484971939376 5.261428965446222 7.19641175537082 -0.5032574483774559 0.1566714566845366 -0.12788924234552168
Ni 0.5543896480310073 -0.15400173669142492 8.966488273910954 0.8258182808003712 -0.13414627899882703 0.9696787017631687
Ni 1.543771327881068 0.9561681492383463 11.287117459224666 -0.76495589809736 1.41766925924752 0.37528541651014075
Ni 3.830077939787819 6.809540810695174 1.6325073850231735 0.9445237997640958 0.6218297841974258 -0.2882479180736584
Ni 5.715252164922866 7.908927985184437 7.83941744208033 -0.45312299361490993 0.09143768438670705 1.0468120537120618
Ni 5.301711854282471 2.919949956060793 4.780412108821722 -0.2881119067164264 -0.31391781203593677 -0.055754114942168496
Ni 0.7342819842654605 7.351473805556479 6.7542393708082615 -0.27032938592202477 -0.5913953789669687 0.4460077227263674
Ni 5.073559462157279 4.59603036013296 6.982491026324403 0.3468485013256865 -0.8508873079538571 -0.042943336330745395
Ni 7.978980867360914 7.169190123994605 9.013216064003217 -0.02499163694833115 -0.1716404192895431 0.2606862064053059
Ni 4.665920811306065 0.3939520340281998 10.491580036404246 0.14911729848636254 0.02185540531219462 -0.8671940155336806
Ni 8.175973578672583 7.127553643463591 4.436067405617784 0.4606295864046002 -0.5435152674562381 1.1475257640840562
Ni 7.50137957377954 5.811122552690853 6.847405282370107 -0.7420692233071736 1.3361922856179504 1.2556331958169602
Ni 2.518221988943392 5.216471673290714 2.7923197951612706 -1.8798191389513885 -1.0875450126550494 -0.5981139286377247
Ni 2.1320332544819096 5.20338695357464 11.578883246637098 -0.3429769341854222 0.1636993100655955 -0.7102528501275251
Ni 0.98662396237059 3.3584956172758402 3.9854152202847466 1.0880785165610165 -0.967895641720817 -1.1448021945053057
Ni 3.675019499180013 2.596170822672673 2.864379602623854 -0.893707488443177 0.0032179927166654256 -0.4439431268878548
Ni 1.4346267175597383 3.2865928264498496 8.268606175106688 -1.1628004308549393 0.32887777577987876 -0.013326799015893178
Ni 3.7318342545816745 2.5852789215021192 7.021136069209983 -0.22553871196989544 -0.059767349866619655 0.0276990085771652
Ni 4.142532022663061 6.754639131555449 5.978565454911308 0.13594759387362393 0.892903761594959 0.44982452536929624
Ni 0.8834008645166315 7.621786067001326 11.32956609477254 0.5428439524208264 -0.9182504678898636 0.4525776626344012
P 0.38215954318339496 5.648511070426252 8.014786074870873 -0.25203341582631433 -0.9011066091207254 -0.4526779356576914
P 8.5468937988171 1.5876547706253945 8.200588192444677 0.30317574302808437 1.2243120171061754 -1.490316807510917
P 1.7851618467810744 3.2390366382403903 10.453608179788198 0.6126779424948288 -0.6192021167665916 -0.18437149370296632
P 4.24267976018651 6.162478860873682 3.9086674735859552 -1.7769428737104367 -0.5626208779374375 -1.5966887446099534
P 6.817499929860401 4.118609545444222 10.42081426260186 0.746876671998146 -1.2486415949904754 0.8136603052815986
P 6.2595855290562215 7.89370459059063 10.196300324952201 0.34791705179951693 -0.539719804969548 0.4803437770040759
P 2.290999063115274 8.419259125945262 5.788721512536933 1.0104893080216275 1.127553177616871 -0.7801477753464499
P 6.680994719415526 4.053844694821967 1.6526226600018654 1.9233378881696293 -0.519575468811189 -0.0103934274191821
Ni 5.586146589076048 3.239370524191766 0.13471756701331974 -1.4935741381059504 -1.0688500073487077 -0.28002090217817577
Ni 1.2835839323130727 1.1621848051817907 7.022628629652078 0.7401300973029318 -0.15860055538644943 -0.34006695962747885
Ni 6.877373802492235 0.8791307339168751 9.24084687212869 -0.9612886779272605 -0.9474160337102263 0.21087005421412716
Ni 2.7724626049990477 1.4498862079320713 9.170292258630687 0.6377443985451533 -0.0283366421611641 -0.16121562441179332
Ni 6.423063310005475 1.8896320537831444 2.566935046854645 -0.932349112074775 -0.18537988036282266 -0.10719031923527345
Ni 4.00009808059511 6.815983907162263 10.267621071349442 0.942878550851189 1.250128721058963 0.5119290080095248
Ni 8.27448798221768 6.9456670154655145 0.7075485482938243 -0.6556518749531934 0.7189287806349683 -0.868755960704162
Ni 7.6366485038098615 3.846221776734066 8.302153591669779 0.04540156806325084 -1.568495055784557 -0.8429580258044513
Ni 3.2268272411535976 8.609086825219299 12.238344998777114 -1.1855798906433002 -1.6718462037793982 0.5272121594208404
Ni 0.07361643791156489 4.714216962975329 9.91659323475121 -0.04761297389227284 0.6556760433229094 2.2826390134363717
Ni 8.495818272201248 2.3885659524740355 5.649093114855001 0.33231405515493734 -0.8408481785503004 0.6921656536085111
Ni 3.623700326059103 2.773852292472341 11.735668870247427 -0.5407433611380558 0.14311608659760514 -1.2096950385239489
Ni 1.0619287803227604 3.2389644466833367 12.562191811749974 0.2995790268157615 -0.35412780859591914 0.36670127438555555
Ni 3.056184448166715 8.15416270449758 7.776272389519478 0.4920950040027331 0.04472125416677459 1.2903124923667004
Ni 5.676846256570027 7.712855716225209 3.783169670802921 -0.2959697121979483 0.5650875943103753 -0.9360923811672911
Ni 3.1271487487510004 8.432397989329127 3.2287475365712397 0.24872312050615872 -0.19230077585237204 2.5310214627736607
Ni 3.4330875436021002 4.505763841981305 9.506832152122604 -0.8116623010149635 -0.2736779906792835 -0.71666466719114
Ni 6.988548800355714 6.147733735345359 11.417554066904671 0.7309579438853605 0.570425718693837 0.014379151539807494
Ni 0.45317528025208204 0.05278195454572062 0.33059491876850094 0.03186419569844835 -0.2742210076669471 -0.04682647343523548
Ni 4.698127269696873 0.2832219166350668 1.591101917474733 0.16372322132499545 -0.2067866281733729 -0.7352545143781853
Ni 5.605015657301091 5.718518832879568 0.27219375390057343 1.519298796565564 0.31175911382172117 0.8230558875638856
Ni 7.9919302279075115 8.702800490220293 11.427737588421628 -1.3677816303884573 1.1204517906853995 -0.02169728246777554
Ni 9.300257816400915 4.788123069509575 5.863608521852651 1.0264427460270904 -0.3102681310984915 -0.20588777050818732
Ni 7.966013458925051 8.637701753646661 2.566340368903411 -0.3910642766109523 0.03549562180344855 -0.5218753205889592
P 8.503172787076146 1.4634040769904717 3.538013459808075 -0.4661808552401326 1.580456341911491 -0.0187256014339613
P 1.979745164876059 3.1996290720334253 1.503959488954599 -1.2665575560389477 0.055742544977942704 0.7986355497379923
P 4.8928639948505985 1.056902443162861 8.27317590066822 -1.587500650352782 -0.36378410073876055 -0.31801383648218134
P 8.45243114641167 1.7308106282638878 12.489194416440148 -0.08421365583444206 -0.38898785369789785 -0.8653165960053097
P 6.279077249460858 7.649227882626557 1.348626720429987 -0.036459528378614624 -0.14982229497318714 0.636651936811923
P 1.841155423221244 3.132906025426074 6.076789287439263 -0.06662782443187881 0.062359793184144204 -0.5165171416008395
P 7.03603279700812 3.8554713199816364 6.034855919129863 -0.8830386958754212 0.4135763416705393 -0.35732934625235235
P 2.490166545083201 8.446114385169427 10.055139661471792 0.04450296750838142 0.6187915115917343 -0.04884427519621266
