# total energy = -381175.6901728411 ev
CRYSTAL
PRIMVEC
9.13681076293362 0.00000000000000 0.00000000000000

0.00000000000000 9.13681076293362 0.00000000000000

0.00000000000000 0.00000000000000 13.37264611453607

PRIMCOORD
 96 1
Ni 2.9756856526985405 1.419823838930556 5.163219048358569 -0.5184500969574942 0.23506979138878226 0.8113493977602351
Ni 9.172352915544774 2.397316397195547 10.953975271757553 -0.6302792005163598 -0.6693532836996859 -1.118675415511267
Ni 5.2834613048200865 1.474142178671876 4.360124451065567 -0.9897803576090504 -0.5629456082667079 -0.04069439239556862
Ni 4.7486106787852025 3.794800733911212 3.596520063393415 -1.0420729963651796 0.27186896249500275 1.2204790165133304
Ni 6.336122404893629 0.9261436820082684 -0.04307092574273882 1.1710400451559122 0.9204510750856083 0.16278554000207449
Ni 6.98347458134649 3.5012532790400384 2.8677369750632544 1.1979327557816983 0.6792733710268753 0.555707695757372
Ni 1.9291005317550187 1.6058127579842663 9.805198577614576 0.18949390253119622 0.3123563810860879 -1.9590551390655808
Ni 8.562224105972676 0.487091602710771 8.146054255446947 0.2817684809969018 0.2877254699112851 1.0111110007660264
Ni 1.5639113440139227 8.13724362886788 4.939721693929575 1.599373490530968 -0.5577812904569491 0.08269336253517372
Ni 2.893920333548823 4.924174496805297 12.420152892523204 1.3727662280872421 0.46372545172110463 -0.11229215923821306
Ni 8.766175994905518 4.289019962666088 5.9249778002649105 -2.9340192575974053 -0.9659883973957751 -0.1330479037283257
Ni 2.331248118865945 0.23193611281168353 11.702616304510553 0.6019906379843116 0.16666122090739685 1.4872844484424965
Ni 7.599386992105511 4.165234451006643 10.710246277347194 0.13977725203235924 0.2737453535821092 1.4476143835463844
Ni 4.30937677695434 1.419540597798179 7.47703413236725 1.370980339831413 -2.11069700374601 -0.1659449115666626
Ni 7.375050878452252 7.83386496566001 9.411213817202539 0.20946546055711668 -0.7279101581979722 -1.7320408709914237
Ni 4.973394496163832 3.2270027684133837 8.868337416629592 -0.40098822059288364 0.7677429739241939 -0.6716693334273722
Ni 7.683308598585583 6.430258965760714 6.906891661238198 -0.37155243183026976 0.29923218499930404 -0.25705015231461537
Ni 8.500852148354099 5.618352828207572 3.4927478219390804 -1.658327857577989 0.21729729789670965 -0.38004658534421
Ni 0.6008549466894335 7.563990987369116 7.5568688434114435 -0.5891505487968499 -0.44058552326953154 1.109062317901535
Ni 4.5400264268163895 7.137475526063051 8.455456817963725 0.6554901525643485 1.012945997092236 0.9781543433343476
Ni 1.0696555680161595 2.2791682977514753 1.8347940262085078 0.2251767006447864 0.921434007824168 0.8545655281363927
Ni 6.027755043031637 5.555272286984011 2.1688157252152744 0.1705502715491579 0.7540179110286175 -0.8258617324437971
Ni 3.4326266937083223 6.140311414313945 1.1415796283373867 0.31379465619451125 0.5041205677086995 0.38141955443233666
Ni 1.7179762464055353 6.850058871186229 2.714660675591745 -0.5012617581036657 -0.38291825046505024 0.6550862322577105
P 8.663971630171051 7.069250960403095 5.046555680656796 -0.892871879915759 0.6708244689285737 0.4263704081114141
Ni 4.133319571155266 7.18019925299836 3.412739511491172 -0.25516604791802505 -0.5123347280883758 0.46954154418224936
P 6.463407315059539 2.2997992163613827 11.538307209937617 0.03250799993003434 -0.11578525999313607 -0.25657784066388717
Ni 2.123029339326006 3.495926518389208 5.308847019729638 -0.4352162885378182 0.9858157165343475 -0.30020663309743134
P 1.0528621099094233 1.3707774389757357 4.225983278133992 -0.743017703263372 1.114576819961861 0.22416651421271713
P 2.4610730624125243 3.3513638991483052 0.5665964748879063 0.3941274889173083 0.8330330533812556 0.9285657337729427
P 4.333735514338757 0.1786191675254769 2.785121018835334 -0.41478296038413076 -0.2415016630570551 -0.14848737821184751
Ni 6.812725862576804 1.7626461140245957 9.204646059360035 -1.1915700467884642 -1.915894801628023 2.0145251471084276
Ni 0.4061796616824728 2.0278603188473534 6.303249987278605 0.1132162137143792 1.062035041309403 0.6214888559182393
Ni 3.8104155434348312 5.208658235440408 7.358673145233359 -1.15703910289113 -0.19599699375703666 -0.09756616588194811
Ni 2.640401246450016 3.9009430640667904 9.938068820174744 0.16320462981736408 0.9849145448763167 0.013618362114382998
Ni 7.861220576961189 1.4168178282030717 4.352462321594234 -0.02585835582400063 1.804928817400401 0.45645411487067195
Ni 6.627038458276914 7.200272826154235 3.5847655563997716 0.6033037003687803 -0.8506019155029544 1.6954229626580735
Ni 1.9990519546414018 0.47909506596701945 7.23009537635031 -0.1271690763500455 0.5596455973591975 -0.08209635238112313
Ni 4.735700365235247 -0.06072324405732757 12.073627468043604 -0.08136615908331793 -0.21207050228013155 1.9754551776901592
Ni 5.128153796170304 4.1433974733814525 11.410530739354874 -0.23715418472163674 -0.7406288913162212 -1.6218228206734195
Ni 6.003140474947007 4.6714959962929 6.987675686916391 1.5614967700898525 -0.23209296814864544 -0.5449162615688228
Ni 0.7221296627625181 8.8132397069337 10.271997323712146 -1.857548757588962 -1.136846429993339 -0.9782119360451604
Ni 7.998994545835767 5.551471373723726 12.94667348822299 -0.13749925463145998 0.31631356596162297 -0.7967555591064601
Ni 5.218343254805556 5.62172431136393 12.973285363131412 0.8406144652729394 1.5560555444696234 1.745632236522613
Ni 3.5101890799259947 7.372191056696317 11.122283548383436 -0.4163832149917152 -0.9128112991521634 -0.00044891461196051716
Ni 2.249775177659326 6.375465511861859 9.348683311984432 -0.4244680488823786 0.1911692333510901 -0.32935702940914247
Ni 6.267742513451403 5.107285320481629 4.633461280620037 0.7821221254640013 0.869302320125935 0.9774213218230652
Ni 5.003134815063411 -0.14295271319171468 9.91791667044666 0.09922169920750007 0.28505435083702524 -2.4294708583226674
Ni 6.8225205236706135 7.847807738821532 12.84018761398427 1.2728331046350145 -1.0485832866798714 0.21253921438643397
Ni 1.1957435559775076 5.502470657822515 0.6548050729586635 -0.8635201662265192 -0.8930755112861328 0.21380162603862532
Ni 0.23307273206548004 3.492527624800684 3.683990407157847 0.3693142865283704 -1.0944324838035022 0.32154884621863333
Ni 4.098407817387129 8.722684775869576 5.459703987876813 -0.165615810362018 -0.0923087741377507 -0.4348547914333414
Ni 1.1610328120452496 5.01327667496465 7.308618955055921 1.8821920100589389 0.006639616803704694 0.48846357789773304
Ni 1.0810308973648464 5.595337201999265 4.885776136065705 2.0854531415775566 0.9737292176834587 0.12345357517167124
Ni 6.492243089697656 8.847676346544302 5.380831383001629 0.5839276098350137 -0.26850364556719564 0.8904606993711053
Ni 7.003977584606292 1.7992847250191613 6.923152443279852 -0.5763197155807688 -0.2012371591100534 -1.5386460907439243
P 6.523445298312728 2.979130230340673 5.0540177139733204 0.5758993402138984 1.8705035179774174 1.1875920359773224
Ni 2.7312668290786832 7.385375474567927 6.98644495851216 1.02934166484144 -0.7011382894207667 -0.8013398360430328
P 8.32567207638432 6.418143554743558 10.82031652243209 -0.03383006117556754 0.05659717966875414 1.568989478922472
Ni 5.215264149592296 7.878900305707944 1.0898095451063872 -0.7943266379499933 0.059931643358625816 0.6685238458198551
P 0.6450524411941749 3.1559366546189374 8.547567747893778 0.028573954982950792 0.011024633245277788 0.07357725916651844
P 4.364627071389288 5.33914102935896 9.6503835430627 -3.9175739460117174 -0.03858197403825613 1.4673748540027631
P 2.606668141264995 8.74749121697936 9.078742634975267 0.8291427171879141 -1.1758536644944717 0.4422883648932512
Ni 4.205381597318394 1.9607961281490707 10.69611071747944 0.47025836774361596 -0.3607239737561981 0.2379311720969773
Ni 0.20366407939510384 0.7606723851115146 12.851192902498722 -0.31524784370127 0.21924902230644178 -0.21706204195745196
Ni 5.747117901710419 6.832424826493084 10.981737471135853 0.8027716833935529 -0.17242871951879338 0.05521469749893071
Ni 8.042741595571922 1.97203440533693 1.389297754308899 -1.425313663166655 0.1441841228508033 0.5204424447971747
Ni 1.8958334039168112 9.195377678563803 2.7949366945938032 2.617510287795524 0.1740469718485067 -0.9640140472782237
Ni 8.152684838987785 6.837331293850711 1.546158520781394 -0.4966710534091898 0.8798101616357945 -0.01481906729070351
Ni 3.2618140172635823 2.1337011342491112 2.9491368217840987 -0.0037640950281225497 0.014209715841478754 -0.8231011389795243
Ni 8.885082449639503 -0.14222999146361737 5.976917828175337 -1.377626384393021 0.06895672967537156 -0.4617881254890756
Ni 7.267565437120563 0.2261132233386569 11.018284714023201 0.15331590994874242 1.1584277557085405 1.425197963524397
Ni 6.683019697569608 3.625239800535364 0.12590068334155058 -0.3839680318858032 -0.29421596273163525 -0.2491386107770225
Ni 1.2576363118072302 7.053316362504211 11.852497461272636 -0.5860035185274359 -0.07277044699450692 0.3265352436896312
Ni 7.56714318706815 3.600890199961669 8.44124176784269 2.2735277951637234 0.7496822597677412 -1.5265480219288095
Ni 2.520617657886735 1.0535656443350048 0.7257871280944695 1.2666992238231345 -1.457687194401354 -1.7012457399874379
Ni 9.127381533171894 3.212466102554942 13.132714487097815 0.5201827633778847 1.0563251354088192 0.4392822310770757
Ni 0.9441249255088432 7.908530982878861 0.7120545015795487 0.9964366865833032 0.41209898579406445 -0.06112720632862375
Ni 2.4888946510605177 4.592206752848799 2.881256713888357 0.008233186543069693 -0.37268268877997107 0.009648578833357575
Ni 6.565191386500801 0.023713678547455305 2.7657975778397215 0.3667215861005297 1.5546524934745096 -1.45177674245419
Ni 2.249555894202002 2.646230531690548 11.925618443798426 -0.6817570566806774 -0.3217175105860136 0.4162459180829025
Ni 8.902387569146661 5.751439613181848 8.917736497478275 -0.26792900401064823 -0.525151934457702 0.8015884617187291
Ni 8.947413772383873 8.819845621085587 3.3851253284465646 -1.5583633666671937 -2.2875652470933954 0.11047387508255167
Ni 2.7211158323667224 2.990852758496789 7.714720040166186 -1.359191574726601 0.05069932612708043 -0.28619849174379747
Ni 5.622409572168067 2.0688845989884004 1.901175697145869 -1.4094167894307406 -1.1785211840243057 -0.23094651324902807
Ni 4.583042531694797 4.056506403416784 1.4003971519737866 -1.780251112148063 0.021522961673440352 -1.2096348747099748
Ni 5.275987393649625 7.017975178632146 6.1843535830364145 0.28229709980686224 -1.8315998989336846 0.16502317108334158
Ni 6.237252976072633 5.2682028309146185 9.173809323173835 2.8861502018302683 1.7996729683181005 -0.38919328484048454
P 3.19017228439366 5.4744571961493635 5.119423573525589 1.4992603898574501 0.22896444982199277 -0.05408726876270684
Ni 4.416259188778388 3.372798857101735 6.033751531908377 0.26057950562411253 -0.9864674911857333 -0.9187163517826888
P 6.100072899894975 8.71256118958978 7.7000234801201115 0.07049553491740118 0.6242340227635443 -0.306896129302465
Ni 4.354284201652169 2.4834217014381372 13.094174505792035 0.5389633864194976 -0.6131039742886537 -0.34408687942014937
P 8.392443889139503 -0.051402783439981815 1.322920651776899 -1.0219782824978336 -1.1962329994817722 -1.0531379959300895
P 8.61994133930252 4.469225280532876 1.7083953866826171 -0.23517212129460144 -0.7775036528553836 -1.6181142614735813
P 3.0642396222145827 8.029840418832688 13.567083950900368 0.723074941592858 0.5504852710161681 -1.5232266708650606
Ni 0.8372214990201358 4.804400045052738 11.505650421055627 -1.1957378050129084 -0.5601533902335514 -1.310176578280479
