# total energy = -381179.82959767093 ev
CRYSTAL
PRIMVEC
9.09765850150581 0.00000000000000 0.00000000000000

0.00000000000000 9.09765850150581 0.00000000000000

0.00000000000000 0.00000000000000 13.31534282237897

PRIMCOORD
 96 1
Ni 9.12467853343091 7.629096259317254 12.329088557547042 -0.6397344323919886 -0.4284807695861975 0.43995920253944226
Ni 2.65677101285259 0.5668341609067865 5.094250245985422 0.207026769208637 0.27896340744793896 0.09423992972219253
Ni 8.936966545853736 0.41555920533878754 7.927915220707437 -0.48371423613820563 0.6386905645085065 -1.2039756195416684
Ni 2.310941720758799 1.712643307972225 2.1849282335136593 -0.9149031486841857 0.1184545792951831 -0.0919480483642223
Ni 6.811644351219935 7.294620845016141 11.311676484250526 0.5244826763048194 -1.9750877670484113 0.04648657359731348
Ni 0.7248368349264561 0.37624549371579286 3.7370706504454856 -0.6715880865674756 0.05539338916864008 -0.9453324117083204
Ni 0.6173225264502505 5.0245094155502406 3.478766291598677 -1.195710808429715 0.591798013722026 0.4226273961292141
Ni 7.130489988239142 6.950365447840727 0.48004613799731005 -0.48790924805615976 0.3870803522625398 -0.021776472445143143
Ni 3.209653914468454 8.570476471334327 2.862172487593293 0.3024609763492468 1.339646562715138 1.080741616579971
Ni 4.983751905525244 4.401219734897892 4.961483566844845 -0.053458634039772454 -0.09402035751221871 -0.7438967634342156
Ni 0.6329877846002597 2.8161255989235348 8.750070618242908 2.5918619910998006 0.022168051456606986 -0.6071888943557995
Ni 3.491499374418093 5.139776748589682 0.4648575971520576 1.085644453198227 -2.0365281337420797 0.9767096404680212
Ni 1.9055955468383288 8.835655020934459 12.411071197243302 1.988693273646988 0.8646805050832076 -0.47013675456408704
Ni 4.039988106984388 2.233975529952668 3.9643501743174636 -0.36770374750814094 1.0865913904925286 0.1769705732532049
Ni 0.031203149081190203 0.9269786186310083 11.64280214069646 0.05144134649942753 1.866441946313534 0.3061469098412663
Ni 0.4639023430108467 7.477301827449606 8.485375154308475 1.3994933596694414 -1.9115226407022565 -1.1189104143402084
Ni 4.34294923228403 2.8077466554563424 1.3738101152554927 -0.8192606821875116 1.66864235213012 -0.2203779937045624
Ni 4.352201550966044 0.9151152719630182 6.9399167870675775 1.1146192431640223 -0.31520799160227003 -0.8242277963847999
Ni 3.292615462217994 2.0861021888932285 8.701123396047265 -1.0682776797850053 0.48687849279880024 -0.11560811098532348
Ni 5.090531123195642 3.336284222959062 7.315036900428439 0.8282849971733091 -0.8993186639823673 0.129309519731816
Ni 5.5651104782076795 5.462243253687001 1.886824348080611 -0.8178234355203529 -0.6379572858869077 -1.245381179071649
Ni 5.149083653222623 2.0353099615562744 12.351285024725387 0.2250165209178383 -0.48196922842264095 -0.5567417934488411
Ni 7.370422535535844 1.0979054262983363 3.4796851551059373 -1.4614790573436185 0.3811058798466598 3.4635243268174807
Ni 7.8995332555232896 4.850662259508353 1.6640054061651637 1.040758134208498 -0.2675950177099972 -0.5002371734938933
P 2.221720983969706 4.887052893459242 4.825946650694758 1.128625327635127 -0.002010088451493312 0.6338293797614631
Ni 3.084188106264275 2.9697031718547766 5.9631694276794835 -0.40960398728635267 0.1528330567750529 0.08542515964403997
P 7.69961221025559 7.908539937426134 4.2975400894742615 -0.5254401551220821 0.9239207788017637 0.7080517287111483
Ni 7.050958257739473 8.884445763404115 6.494957588559866 -0.15440374369628246 -0.3303242784184182 -0.9595243869379861
P 4.332732561802318 4.452166622429138 8.922544937618998 -0.684749306539782 0.4399843993504229 1.7119512993304
P 5.845782340212402 9.006518144992373 0.6417888594212823 -1.8801340990886457 -0.3260732164515481 1.8027096982618955
P 5.102458153473044 5.886030381362086 12.418993438254413 0.1049002376495161 0.29796925912648037 -0.22933006069152762
Ni 3.195197735131463 1.12157753368339 10.925318943125632 1.6125563077698295 0.40225808844424266 0.7754573118493162
Ni 1.3126738502179984 8.369791222753658 1.2018725577301788 -0.14886378771465975 0.12936274156725464 0.799938584820132
Ni 1.8699054325909938 7.30245392897407 4.3097100272332876 -0.18332659737821977 -0.5795045410666535 0.6104225708017488
Ni 1.5154151696168916 4.187297393217588 1.5050465682384344 -0.194268183991388 -0.7522366507584787 -0.3880923384668219
Ni 0.6330632951657078 8.495402593493642 5.910614074127609 -0.6471798329264402 -0.01389886946927929 0.14923248390798813
Ni 4.0214652743033845 4.093809854597754 11.348240883478532 -0.16839697265158096 0.3291104606159751 -0.5518240444322496
Ni 1.2790034161549377 0.6261645407344679 9.703729030155012 0.6882987144539372 0.056304073908367544 -0.4558316507953246
Ni 6.315039565009122 4.666398284498024 10.550291625881343 0.8799505438684007 -0.7839236974491145 0.8464778660322518
Ni 1.1868077450403594 4.587621659652837 12.433707081326606 2.551555835281586 -0.8451411494986993 -0.17932364686641375
Ni 6.313420181798308 5.411059827035077 8.345164770993243 -0.4931761528820539 -0.10060495270827191 -0.6464763791015123
Ni 6.242558519837438 7.7165975386521675 2.515654502751982 -0.4817326869318026 0.47894998198034283 1.148445704795164
Ni 6.527478988355927 2.086338728013909 0.9411964393156208 1.403629236214686 -0.3146618892908129 0.2902950304106743
Ni 1.965721971783686 6.271061483879471 6.537899446387764 -1.8585908257002315 -0.23560998016296844 -1.720876883954804
Ni 5.144134527005302 1.0111137643254648 2.5423916112815492 0.43981727764493933 -1.7456636039811808 -1.4059671403192433
Ni 7.151541969979731 4.488821088476171 6.155310155408483 -1.052144778778885 -0.09243758640613112 -0.9600231809512755
Ni 6.9206706905368005 5.434431711690035 3.7130764859499665 0.47589808252789656 0.18015128497403168 1.0999608698208994
Ni 8.12181634535381 3.1896208704784894 4.235157445223949 -1.0221500321890074 1.532389311200935 0.1739567261275456
Ni 5.47575327654127 2.293383239877495 9.847069007990019 0.2828627425023451 0.520067320845943 -0.3777940418646074
Ni 0.5325414470031657 3.9627671817406 6.356584932259155 -0.19009759755346617 0.4399296348530875 -0.5302290918702932
Ni 7.2772989032555175 7.461226264901801 8.37098301601555 -0.5403193862267598 0.665788192056247 -0.2887742228907736
Ni 2.3427562324903644 4.2384171362601 7.78490821717308 0.9365613503839096 0.10876871946598689 1.1170167968619213
Ni 8.57601694535335 3.0120800650905872 13.244731493702348 1.2444213862615408 -0.5008426682883762 -1.4032749381990606
Ni 6.175099382150977 9.033583678993347 9.815897700713537 -0.6373127103243733 0.09418979321054746 -0.3081426001150564
Ni 2.7775697222525677 2.5642569236909414 12.78713655732104 -1.3843315643273386 1.1878200928277285 0.5353106201582587
Ni 8.878504992411631 7.089386767191612 2.6638671864730132 -0.3763629658450357 -0.3571005180709979 0.10609682906077857
P 6.438003517129178 1.4636494928217512 7.629092620253859 -0.0680586433411344 0.39503405989197776 0.8151381753787059
Ni 1.3909682991633372 2.9413548680070334 4.145066062517581 0.6247893810463819 -1.3801247253348425 -0.339159617321861
P 8.513597910469086 8.394627830425142 10.285742634248562 -0.23679371605842445 0.2021650702409615 -0.8033730644229777
Ni 3.9867850001481875 7.458724408817677 1.0389798922733584 1.4582893467617273 -0.206516919451754 -1.2216046454773413
P 1.6647077454004158 1.4938173283670386 6.891741956077541 -0.5552127583988244 0.44786045966439 0.25938574242632745
P 3.5942574270369176 8.447203198825688 9.830304752694692 0.33198726794313793 -0.7690097564517595 -0.6432501588547309
P 1.7287461634954935 2.8158071808764644 10.826718520435694 -0.11105365884542165 0.24856576899268804 -0.5577612358522911
Ni 4.274434766212993 5.51956759981814 6.866070183356886 0.27924957122979005 0.18120183772573312 -0.12064130253385673
Ni 8.09932693357216 0.07419231473322474 1.8556257478286649 1.1415584907570275 -0.9260059434655666 -3.7348009071441224
Ni 2.2405713323562666 6.560931078615282 2.1950475590495526 -0.1766774674928183 -2.1117915223617696 -0.18427019223841168
Ni 6.128364710499547 2.305119219326657 5.434777422712568 0.23204386007826486 -0.664422679167288 -0.1487876830610857
Ni 7.161622175584127 0.03424449631363579 12.439659679275122 0.2663338916093865 2.1944198359869627 0.04047790550938835
Ni 6.099607012019856 6.7683667897938395 5.577144860855237 -0.1170301881438307 0.24993770963955017 0.45969858994989865
Ni 4.447927113573859 6.612260067803012 3.798255133072965 -0.14541105327936893 0.24158959478517103 -0.5144623159543398
Ni 8.427252033762112 6.201828302787905 10.089381502747107 0.6606968935762686 -1.9450302855413986 -0.3638157253076444
Ni 2.4309398362118575 8.650181057345263 7.597841253582684 0.10517534568777372 0.5267082232012283 0.4449150038828209
Ni -0.5983821112446613 6.26240051299916 5.575959435954287 1.2028754444989542 0.7070142885855695 -0.15675141799285264
Ni 1.784633079585572 4.979357736475674 10.109368148678787 -0.11084359971714458 -0.24237918056600188 0.06409605914896058
Ni 1.6966405266923212 7.475746127848205 10.522569240937557 0.07434421923953002 -0.4569171705500195 -0.94606363344739
Ni 2.839379214018153 6.487512974619363 8.519595996710041 0.48569732800650545 -0.05476989665202825 2.8215360653943087
Ni 8.522777447883199 1.765955586710278 6.060172301538974 0.4247583264292878 0.11319333089624377 -0.2972614344261784
Ni 5.311322197034175 0.09544353519469544 4.620290441516398 -0.18977132456229898 -1.0477901013546147 0.649376840577759
Ni 8.31059275897405 5.475926132052536 12.422642509073837 -0.8876029182073358 0.3733388343067312 -0.5153215786308415
Ni 8.694823267544516 2.5037029087966607 2.11286568063241 1.6470234883087633 -0.6444328663089223 0.5456348849024022
Ni 3.527489711395523 4.633646713942223 2.883104380241845 -0.6549430218116269 -0.8631231878984167 0.9001666138049593
Ni 5.077585155167612 6.548503677121054 10.114667534747884 -2.4653331194369152 0.06755882088658043 -0.3052089714080292
Ni 3.810526964607054 7.5952256767674635 5.825822077490338 0.024838399199918513 0.8476106940851144 -0.2030425877499084
Ni 7.657635613993239 3.3696453366335395 8.067513331606444 -0.9949914694963443 -0.6580882523088278 0.5884375818902253
Ni 7.984996659356954 1.5840297099312937 9.599349774793675 -1.4856183735939834 -0.4868607521869873 0.7320709744438811
Ni 6.6525444995866465 4.156119717580164 12.958584660819714 -3.1895915398149133 0.04226945019217236 -0.24242134665784704
Ni 3.555219374466101 0.6754956841182936 0.4686986285655739 1.2143909013377214 -0.9530364652207974 0.47882811169049794
Ni 4.791027108121333 8.29973015473971 12.029267034191513 -1.0841835523819845 0.18786973666421194 0.11784625628722285
P 7.179262535391821 2.3843689224132065 11.441860338146439 -1.4235825394081614 0.14003796189291368 1.0197974727964307
Ni 2.7386590369005788 6.421946149898348 12.226813590593917 0.16004731513530498 1.2194289779822611 -0.9520167657070314
P 0.5557368370834627 1.0981237701020417 0.4339856028398205 0.2151162310849908 0.8122503123079495 1.1988773790831546
Ni 8.660425020802439 3.758633920593085 10.731074836754269 0.4396316439966945 -0.21906673109230657 0.018681635569903307
P 8.549469977886176 5.362978701927463 7.784468800268123 0.3294799281402519 1.0359437435389902 0.03661276612702727
P 0.5888504944470746 6.086897583112508 0.7152651884315234 -0.0943070355147021 0.35411083931505466 0.328668230872234
P 6.166220067466959 3.3484386946986593 2.756861632002814 0.16466553063360673 0.2633038465338111 0.5516085859873339
Ni 4.743200717451376 7.69701937758659 8.053279135136554 1.413301212086811 1.079341908018967 -0.48191086438087966
