# total energy = -340878.86671414576 ev
CRYSTAL
PRIMVEC
9.16335730801591 0.00000000000000 0.00000000000000
0.00000000000000 9.16335730801591 0.00000000000000
0.00000000000000 0.00000000000000 13.41149966663066
PRIMCOORD
 96 1
Ni 2.936416213771153 2.552050023193953 1.3800034609775516 -0.5925662593466182 0.1044675209874717 -1.2296689105427145
Ni 7.554720866237107 2.995180824941982 0.8009470805200886 -0.8918544943948382 -1.6813202047081044 -0.86424136066326
Ni 5.695851342222894 7.608418140751539 10.39996075728709 -0.8966223480971267 0.2047310311959248 -0.7615414730991723
Ni 5.092279315308791 6.229580258838533 8.32655687655158 -2.906377841731053 1.015027305101297 0.008758205808604272
Ni 6.0448103197073015 8.640560394464279 12.702005067164974 -0.33121130900906187 0.5295256380453655 -0.3318327446431446
Ni 1.519898606123787 3.1560527279070634 11.593503639688373 0.8777748763733205 0.85668360292066 -0.9822951049755987
Ni 8.855917620682401 1.157277062717705 6.672784367445967 -1.0686144942991338 0.17928765142215572 1.7881184307112818
Ni 2.168490208070213 1.8392507757658505 3.507871589244022 -0.05721861530283694 -0.5708229541322557 0.0882950249926673
Ni 6.7284975805940475 1.9488170405045997 3.4958144435433236 -1.1992586736819735 0.9518774119156899 -0.41961586299639986
Ni 7.680323006470781 3.1756073326534455 10.312290335116982 0.35687837475786277 -0.2972022990534688 0.2028852362364377
Ni 8.744381234097133 4.864844784003634 13.089677397101356 -0.331661509172603 0.28448253749395525 0.1526402240379565
Ni -0.008838058237059769 5.606233706599831 6.779982820625923 -0.7971808195693367 0.2736785048999158 0.03497625896486879
Ni 8.817239088988643 1.293343757131495 2.049223613160648 1.0716669079722125 0.2441391006799021 -1.5131170932348845
Ni 1.141424454371294 7.15381481550657 5.29473911595028 -1.0634321787672458 0.2469238625138909 -0.3216331784023235
Ni 2.0024593348744784 8.455414757678595 11.62204383272637 -2.839130895657936 -0.5028992937070887 0.614369985485271
Ni 1.624791558575444 5.664549313256802 11.551686658076322 -0.010782692437800785 0.6731130078524343 -0.7970476364255822
Ni 7.849460257833817 8.218496151437868 11.182535306168708 1.100176842486447 -0.46075608468013546 -0.16061270072047176
Ni 3.84746469910365 5.480750690012691 3.799008865036701 -0.025698176097052515 0.9225413819557338 -0.8134751858539861
Ni 7.667237732066922 7.039905119348053 1.0784318700842606 -0.6000929067409666 -0.8931989242378746 -0.15288293617638185
Ni 7.041554523684674 2.148642375886209 8.135724460147525 -0.6249750146946268 -0.8194036355232791 -0.04874863015861282
Ni 1.2249118038765832 8.99224088910411 3.7284106940863606 -0.4543460673887336 -1.2233342265739382 -0.07165690221535401
Ni 3.9824592806986367 0.18372714905619056 11.029764727503661 2.0414281421468585 3.0280614694864947 0.42254486371773675
Ni 1.998647378185399 4.062547024599001 3.5857518803405433 -1.2762063919826214 1.7304753262765165 -0.7733898877973261
Ni 5.45403950311686 8.019962849453279 1.5387412179981945 -0.41092579142156965 -0.8366732212370043 1.2889752616125159
P 7.018655293477922 0.6550930040399392 5.531707204321105 -0.5049703173035045 0.6464190435010158 -0.6815937916299358
P 2.706122714949187 4.984756479275966 1.714619951419298 0.5919718202957288 0.6744224706924773 -0.5662353347615732
P 8.780127491414676 3.404819555299182 7.70049430517191 -1.1263470731239118 0.7615535572840304 -1.762647540133687
P 1.5829150151401272 1.204413373315357 5.869583100999163 1.5789594456509903 0.004048716148076898 -2.086640991238071
P 4.647196718429094 2.769872192559581 3.775256526253619 -1.0594305138070206 -0.3160646831756105 -0.6066736452822779
P 6.616988684081056 0.716890686518665 10.392169154468041 0.7861556721034267 -0.162794538863139 0.53846844906095
P 3.561723724498948 2.157539995946536 11.763856868581795 -0.7054191761843077 1.1480901212279584 0.7689305664743918
P 3.9376596262445305 7.557524853609362 12.204290894239449 1.3781668302775234 -2.425374833876423 -1.1529505346440532
Ni 6.433868149286445 6.3591318061226705 12.318677084984103 0.8194445160635435 -0.7630609950674923 -0.21258960800839516
Ni 0.7211773051223941 3.389370134679501 1.3244029571258074 0.2617203040967751 0.04643258043092649 -0.14066736794679643
Ni 3.030752978468437 2.9320911090662363 5.416703403285963 0.9625660019777874 -1.7662905362029129 -0.3392357219754351
Ni 4.190385024044539 0.8005182353925672 2.559289991895976 0.5611064981754401 0.7298215162880721 -0.9579429013834794
Ni 1.403615600392021 8.58150255585583 7.285247600070198 0.6150037624145279 0.7157046172707158 0.9919459978018013
Ni 0.77113134812844 2.3357764612332645 8.969222535250825 0.3902613210936827 -0.8149610263708933 0.6617739286905313
Ni 8.61113685377045 5.240111760657142 4.387424698768744 0.7124133481139537 1.1541702659837672 1.4148788409865762
Ni 3.8274794165582615 -0.07818817990602374 0.16668605325167 -1.8424656380035944 1.2749689200310945 1.1668558318712356
Ni 4.88847708280444 3.625115831169741 1.6340300555320055 1.1638342714360925 1.2289790835645413 1.3327945727903112
Ni 3.213589449182852 7.783594044658094 9.740692011268273 -0.2481345949925404 -2.3420214691597474 -2.709507187119811
Ni 4.162794154835844 4.681018670687246 6.126909420562601 1.2388444063943953 1.118955665755847 1.3135930601611956
Ni 5.674729803356723 3.9694656398690347 12.33636694649436 -0.19161017754325063 -0.43183760187357245 -0.8079799670673699
Ni 3.500182616028141 1.1475639038464938 7.1262541853773795 -0.6338671749779342 0.10692343872713198 -0.357394652272649
Ni 7.238062723678191 6.562540014257718 8.708985017033251 2.46784585855644 0.5777700748740502 1.1211920112855336
Ni 0.43338832013305484 4.908205791341911 8.961671928732072 0.7819020390333954 0.14166547019400763 1.7407306854559377
Ni 4.860253941933373 0.5110367782867066 4.807003839261314 1.2944679092959708 -1.1165763668903932 -0.6025382829576655
Ni 5.2138587416325946 2.4044100083515407 10.26163437893213 1.4199701394665545 1.16247364364314 1.3961388413749116
Ni 8.356725398204118 5.610018173216633 10.919146509332444 -0.6041503646397919 0.774449439410092 -1.112463373163284
Ni 3.0577573928018893 4.396679689768672 12.977798300948365 -0.09695604310177496 -1.3648485159020625 0.6648219714882356
Ni 2.444325593297764 6.912708554922313 13.634131107247999 -1.1295303559478997 -0.5207697462296064 0.5947511828130789
Ni 5.944013388024919 4.44757297691085 4.38971828713239 -0.5522786154711651 0.16657354628959697 0.6772997922402723
Ni 2.144912889413961 7.1746522902925465 2.83249549354236 1.63611609736764 -1.009820564089377 -0.42875150674908097
Ni 0.15352014130246577 1.1587523632632382 10.955586432807113 -0.11862530054509249 -0.825675841685236 -0.7904859240476644
Ni 7.4468223325498295 -0.26461851940278724 3.012061561991553 -0.39279437192818156 -1.659941224811696 0.17177848752930414
P 2.052811983928541 0.5324900306916877 1.6510894780513776 -0.033805635695535324 -0.33889505080656473 0.018374388742129648
P 6.424943039153841 0.7140170576299747 1.1789218292928827 1.34094214159811 0.496373576773429 0.505279106793175
P 4.830986178315779 2.670779645358374 8.01591905982133 0.6918411803895569 1.143622829485224 -1.1667802414382937
P 4.23449742669172 8.22397583917842 7.558667524280343 -1.0858791949168523 -1.4445951371040864 -0.7107737556280017
P 2.1245335824992684 5.339781599376168 5.495764851154653 0.7318755706036234 -1.4025342033782942 0.4885893048423198
P 6.5138367695402755 4.846169861570116 0.692467589972024 0.8192478266717051 1.8335652501901714 0.43805761464135523
P 6.281188287859912 4.887991424860879 10.303746420653287 -0.10700982779335119 0.8649443002675555 -0.11369161068890098
P 4.246776325642119 8.00346880608707 3.4840395292513366 0.05190028841371708 -1.9469969223494663 0.3882967411681442
Ni 0.8044932998438233 3.445431555409756 5.6866907338044514 -0.990105859269269 -0.11700936220822429 -0.26163494347182037
Ni 7.444403206189452 4.39452630077364 2.732485694262843 -0.7140200304794413 -0.1634969642468023 -2.958265274628963
Ni 3.0427844667683432 8.62923448468615 5.492478871181808 -0.38663298031247606 -1.4310094279998515 -0.1562276842788987
Ni 7.413394404660981 7.605843237314925 5.466581390425376 1.8386079548204013 0.049818723294340006 -1.1698905049325012
Ni 2.4663451411916513 6.262366751707583 7.68271097741591 0.20399132481642288 0.49275783439771265 -0.0184908597153359
Ni 8.083968901071593 0.7570151960141936 13.03208844468824 -0.07006847468231157 0.04261680622926209 0.6500378712005257
Ni 5.074988059846549 1.9145735738048668 13.424911497833593 -0.012544926544546137 0.01580302847052762 -0.47202934360110965
Ni 4.177867877801073 5.458813612335635 11.017050569075543 0.6239134061993319 0.9707806765780959 0.008663074991636693
Ni 7.561116889720225 3.2651516614171037 5.820268660341429 0.847573670199592 0.3834139591545462 -0.11474190633028625
Ni 2.3592529829578335 3.8505894039858037 7.508508222067962 -0.35842129376495047 0.020068488615100924 1.3509151936504218
Ni 4.614914210218456 5.921352405111234 0.3094209228641209 0.05797477674257113 0.11724796058159163 0.5556904693661914
Ni 3.1306793911953803 2.370890446888436 9.243259153415718 -0.9750764757399722 -0.2704144894366633 1.5348979365554016
Ni 8.818806023108435 1.2817154565583184 4.316880591627216 -0.09477369073847548 0.8358527822182379 2.1019238855390703
Ni 0.5221290224504814 5.763907597823354 1.7557396015312543 -0.13874881076784493 0.12040296127080556 0.6193090746581013
Ni 1.3720020172734557 1.25319908824963 13.019803131387643 0.47673471949657903 0.03405374715059942 1.3381594366466503
Ni 5.135108847916378 6.8235949039576616 5.459057357643157 -0.9085764351352095 0.9824717397627789 0.31126829022823166
Ni 6.393100372099633 8.534577002478969 7.4212666450253755 0.8459461618984978 -0.13491555306468378 -0.9403645261800837
Ni 6.482278166566264 4.5069515330291985 7.866595736219822 0.24630345532107262 -2.2714104917104043 0.6961138396229818
Ni 0.5059987643740725 7.440472125853839 9.389028927007551 0.5484026774555265 -0.3785553455106642 0.2897460998857397
Ni 8.265174294164238 0.17715702178198436 8.947066453331294 -0.0003571262291026108 0.12415882876881197 -0.055893468733510185
Ni 5.139809650275747 0.5933319749909161 8.830480140468739 -0.7750623904037426 -0.48073741289806876 0.48982189169784035
Ni 0.4796440320821 8.263121702100888 0.8794495635858128 0.7637338527648008 0.5980113416215894 0.11991445167016122
Ni 6.5362411784460415 6.5404379961469985 3.377968169034738 -0.4373809002893048 0.7405782405839438 -0.29441290923378977
Ni 5.445151046413959 2.3622860542657307 5.775836456520092 0.009362672161822586 1.5420412324684023 2.3273924063926628
P 8.593744801376525 7.801187690915382 7.325682747382458 -0.04098621260437457 -0.5379945947483251 0.6626959262841684
P 2.5904628175223667 4.966154863701854 9.678020144491137 -0.5533967882360082 -0.2695148604405294 -1.5512632652873026
P 8.897720857258314 7.227341595490156 3.39127244768107 -0.05829410775520283 0.0886709202748473 -0.7121063583964962
P 1.8596484093953944 0.374806059774997 9.35250928232328 -0.4417957415275488 -0.10454851073705221 0.8127971859503551
P 0.15937461036172706 7.144898868731393 12.38757178778901 -0.04818684411787185 -0.38397883051908066 0.6553500274420585
P 8.730388787308133 2.7812622458396903 12.300330210746424 -0.7434540194698421 0.0952341753146618 0.7498480959216441
P 6.837330776738743 5.602247646119665 6.141943741090899 -0.060226291780909186 -0.5721815250426792 -1.2178302660365736
P -0.1011286452211913 3.205195813780937 3.3834661834901407 0.41251190496176693 -0.21648971439374973 0.2017948313857363
