# total energy = -340861.5320547137 ev
CRYSTAL
PRIMVEC
9.31981442853369 0.00000000000000 0.00000000000000
0.00000000000000 9.31981442853369 0.00000000000000
0.00000000000000 0.00000000000000 13.64049047744049
PRIMCOORD
 96 1
Ni 2.3113419525344514 3.068054970095055 2.59245738090704 -1.116861759341296 -0.26034322124359033 -0.06385334701053519
Ni 3.798029439888811 4.845595227999348 3.0511870378527344 -1.5486996183251847 0.2103784592896893 3.0103162296879318
Ni 7.939484723855887 7.032610855260276 12.851374588254647 0.9742593791553156 -0.41801689394039615 -0.4709384245297761
Ni 1.8674671479016112 5.849497685232339 0.7052573897894151 0.06905314604391978 0.1390185194894638 -1.8649373367435496
Ni 7.463810712189068 3.4415185762690146 3.8206327859672125 2.1561152839798092 1.2010787576098476 0.7736883928743514
Ni 1.8812325139007862 4.838027538634872 5.1312801614155354 -0.5450216767984355 1.2907824900245835 -0.3927336938935752
Ni 6.0513835066772454 8.742684976083982 11.662224042401208 -0.3642409857705211 0.12429355457446335 0.06845099368354664
Ni 5.6216561804376 2.4186596163668823 3.1473386319467687 -2.466424295618565 -1.4839677253644379 -0.3254399537429234
Ni 3.69060925809701 0.5482343593466937 1.4405581335632176 3.890474004471132 -1.3298776562538321 -0.713999461654151
Ni 6.702726701633467 3.5568326409323805 1.3590414441601144 -0.949416609080023 0.3215097654505818 0.5089696682708847
Ni 8.48629687951167 6.083443668516895 4.702518367956873 -0.26677509291186313 0.29810809869718985 -1.1515562253996878
Ni 1.5879006726969727 4.216395912267256 10.210316238754176 0.7677074927005683 -0.12160289511617765 -1.772460926679683
Ni 6.154386096401607 8.399063415901463 4.384653979075587 1.865134026135388 2.0560505200457238 1.0212326625810606
Ni 7.432896887531477 2.8419469507951334 12.837174918900319 -0.3211456972429437 -2.3277647021304166 -2.008666117224489
Ni 0.4805799620134434 8.011797164470375 1.343667478180264 0.28665203434144826 -0.6697965418846917 0.13684645153880948
Ni 1.0539498610350015 8.687670111159724 9.318869459080997 -0.5583363916294706 -0.8033185570359584 0.47346324783415883
Ni 6.529928021206451 5.6734184301054515 3.4817484874890816 -0.026578521819476807 -0.6432254762643825 -2.9674546544377147
Ni 9.147919829848455 3.756230071908919 8.193746970743423 -0.23042483641760317 0.9640927230349591 -0.3431286292719381
Ni 6.253614161258219 2.8090946047239815 5.728596391783254 -0.974409788690251 0.36314158205875524 0.16962570285235948
Ni 8.5258408523854 2.0220269513750826 6.245735190089835 0.80905983039511 1.215274075273623 0.649494597102546
Ni 4.5516016799668675 2.440141788762344 9.739487598639808 0.04606542689949486 -0.06191190701344821 -0.6256280748975935
Ni 7.889977869294197 9.193325966035307 0.7860350179035986 0.18303194895593639 1.8683329926886598 -0.9671502789143602
Ni 7.07256489997149 4.686524634313553 6.8663640044185135 0.49598765418891994 1.1588555872745783 -0.10820307677050398
Ni 0.44991311243979065 2.6489149531140828 11.698343915431948 0.6903147164427015 1.4177960146333712 1.3307297198414825
P 4.196432869633382 4.732051928088753 8.842939152515752 0.04260240805155889 -0.5806846774176838 0.3847077382653052
P 7.052573897894151 7.118437026882756 6.685218498135803 -0.7669662436591694 -1.2274343647852408 0.2383425486027831
P 8.088788151957974 0.4771661139663901 8.245977075098587 0.5262765349804486 -0.00470460456452093 0.23349010560648822
P 1.492130259015509 3.8629419477996123 13.198702638659151 0.1617802386660117 0.28642757703546806 0.003568691187864822
P 3.9016378175549096 7.5578849196336675 0.18931618764457717 -0.1048218190030969 0.09929420431664834 0.17026050822288097
P 4.9676009194652915 1.6229897742453097 11.732322095093282 0.08865163700113765 0.5535744514644532 0.8053774964475162
P 5.003370367471272 1.0431668356720731 7.7436931291048605 0.9029143517534256 0.3261457215606964 -0.2302111777449003
P 6.3355912494970426 0.32761384681746614 2.4140807915087947 -0.516314281561414 -0.09782610441155411 -0.7046555585454058
Ni 2.7820205436355567 2.107023659508106 0.13085485532255645 0.39732362725710285 1.6665677289892782 0.8627730036478496
Ni 3.2097627493892014 0.2320121217782402 8.489158994541018 -0.05145754444934364 0.11881839039250505 0.7210304003590033
Ni 2.7975566743875033 7.403902944658468 11.789789935190853 -1.5335331949973912 -1.7126784073044117 0.5624221316630701
Ni 4.945391801539744 8.07727818106496 6.934170314727923 -1.1275269523646259 0.7606953230487932 -0.3643458867795016
Ni 1.133457198434434 0.34359360073905404 7.209135597519702 0.1920413515433983 3.0718650969350065 -0.7976384759320457
Ni 8.601014476047787 8.521926530300327 6.468607369799429 0.5435106394705479 -0.14955772845789084 -1.408606120603987
Ni 5.076009001592849 4.464340256913194 10.94320594651986 -1.387178032637198 1.3186319081366837 -3.306164842926983
Ni 8.323134887265526 6.220687256671161 8.912560030706027 -0.0785554291074002 -0.3546363728012215 0.3881031371000993
Ni 2.2120020499039805 9.169588398533682 13.286901635050343 1.3463897949762424 -0.06387622982867064 -0.0518933464351816
Ni 3.795000500180123 8.366844817215513 4.563930862553399 1.0860275475692587 -0.6760330097127066 1.9227303364926176
Ni 8.354123270439025 3.1796970278500423 10.252069939643073 -2.170701152213784 0.5345032937656149 -0.33367571138915436
Ni 6.468445205027334 4.4580214226901465 9.255331623807216 0.875968162181885 1.3024226453666732 -0.8189349234169766
Ni 6.463384545760202 6.7255043282428 10.461451687880896 1.2903708564084615 -2.5098407149309874 0.7584198967510551
Ni 0.2350037822289749 5.135562616172895 11.707250862138388 -0.31120786930394145 1.0576178860783139 1.3971503133585614
Ni 2.6546093597664164 8.194102055675426 2.7189729306038584 -2.315992392085837 -2.910685210857155 -1.5055698770152457
Ni 9.127397598345283 4.773832656439668 2.227601555394447 -1.0697660914050737 2.0119442737551285 0.8910492248847235
Ni 3.1230605152048247 5.085692288846162 12.261887002057074 -0.4382720446450065 0.0395466519443706 0.1918364346214438
Ni 4.924217183022395 7.677980049129515 2.651465786339523 0.10719854676538959 -0.23431774371410613 -1.817001432294219
Ni 4.737550618636832 1.0895888316381466 5.1411694165690385 0.4163233082880572 -0.3714853260377602 1.1879566184055927
Ni 0.3703973872073189 1.7508483092098872 0.1515653470783903 -0.5329552325522047 -0.31160021964635365 1.8804472594536903
Ni 2.926188753954607 2.7938753476646365 11.634178856643105 0.662695412063536 -0.6174784492072656 -1.285407084645283
Ni 1.5042646574792367 2.9196182847403764 6.854946299688934 -0.9250932018433101 -0.29948980953606485 -0.97488801387825
Ni 6.5488658842466165 7.987183534406853 8.621008274069473 0.1312458175225804 1.3318610052324482 -1.1615575595867738
Ni 5.682001979249149 1.2869452232417542 0.20190352909243478 0.15135852911205547 0.3945401509746947 0.015804828242740522
P 7.857088243965091 0.817339342788249 11.722214756280755 1.2236700126468023 0.9045490591433712 1.101324068717013
P 3.2688876525027872 6.694124512860794 5.826671595587667 0.16036047550034965 -0.5568909174321957 1.2194174080180353
P 8.758379543682228 8.101724054467693 3.998641242693172 1.4479871935047708 1.6237061537390618 1.1485716888500672
P 4.542039550301902 7.246612435539935 10.532477062114555 -0.5254154725317338 1.0182375845084788 0.8639143163411445
P 0.5828761097995938 8.14914327058401 12.688507102146332 -2.0731154459478103 -1.2651308508947503 -0.5806116580879033
P 1.5323359387179063 5.773699633999238 2.6808614132169755 2.0081935484634448 0.8499714810078071 3.1042728238417507
P 7.386036860284455 4.946594057608731 11.488812118180864 -0.7697661750018098 -0.7115324881708972 0.04322050125153202
P 0.6326187556678379 6.725532287686264 10.315075613509576 0.7550972601357253 0.5658702381126707 -0.9945181294043518
Ni 0.03071997251623593 6.311779123479513 6.8509229357743475 0.7525122730173686 -0.7987077977368244 0.7741519627743313
Ni 1.9463314181013527 7.631483494647537 7.402271045141572 -0.042355325037759316 -1.010634318239924 -1.6787987238378312
Ni 3.0916993394517958 0.9389806295077016 3.528862945671633 -1.486471208512582 2.0604512202165806 0.02658006448137358
Ni 5.499529331383308 6.076985037076524 12.606309134304134 -0.06593414079896387 0.7529611876293291 0.32957840139132916
Ni 7.429168961736169 7.6398992871304445 2.501474555928201 -0.03718740768357467 -0.8742388381956041 -1.4567590261601298
Ni 0.771518474856669 2.3653689171229537 4.512464982986274 0.18980166357960215 0.3171951972356279 -0.5577864326632715
Ni 6.759130218916478 0.6550664608442852 6.340291231943477 -1.5124241809329177 -1.4169004994022951 1.2180884047939666
Ni 5.131890609264517 3.7832109348524616 12.828922223170954 -0.2763015443450596 -3.2333740842175023 4.895668382642407
Ni 6.509377830259815 1.0675101911154348 10.089025377059482 0.08630062027045782 0.12056262677712139 -0.7301868700472909
Ni 8.058498754871096 8.350292826684345 10.320981579950791 2.1609109055962397 1.096945222923027 0.6774144634412657
Ni 4.221810724484941 4.82607953646091 6.643546811614401 0.6769159265382924 0.5508434256865351 -0.8184842090328034
Ni 5.454859460541029 6.490346769074768 5.230391728591044 -1.012249999466476 -0.9247854407949042 1.6897948178380189
Ni 3.028455078334395 7.019730871637487 9.149222739913915 0.10162208111887659 -0.1899322756201955 1.5941047859328612
Ni 2.18334362035255 5.115031064855237 7.968105874149364 -0.5641136604328801 -0.3823083847951932 -0.4923420870165327
Ni 3.558724563273499 2.8219652685322827 7.60724731707079 1.3108491788674714 -0.7821483507162464 0.7015609787804821
Ni 3.3635303686311704 3.0617361358720077 5.126069453135144 0.6888898110707168 0.6436026570981432 -1.0147725087780135
Ni 3.6488564891895594 0.004697186502088134 11.133150289660948 0.15552320201270634 1.657043848659243 -1.0976964992667546
Ni 7.765735422351068 1.0046014433196115 4.066462464705762 0.14785385839290663 -0.35402933534484193 -0.21805397355707606
Ni 4.460099741321031 5.637835378389236 1.227996464621997 1.2086771387823958 0.9243637798764532 -3.1555794445355265
Ni 1.1056934710738773 0.7029479397592217 11.226027832925254 0.28933652315214686 -2.095356773844514 -0.29435017431665433
Ni 7.0238968287137435 2.5179342802959352 8.348539769579101 -0.4093216801592434 -1.3598698317405484 -1.9257889208132837
Ni 6.071104234134425 8.009103738083265 0.12557238447060495 -1.6627293290797946 0.14792327817826137 2.630805976463166
Ni 1.5834458013715795 7.750534804920699 5.062258547296856 -2.327175148175534 -0.05899884713171129 -0.928576275295904
Ni 8.296936888739 4.601332210076277 0.09328295519454434 1.6908811089236624 1.713466964643978 -0.739316857373017
P 9.106987204615972 4.390751001713813 5.828022036707018 0.4650791375355216 -2.6585895743343375 0.6156730205674107
P 1.6506137043885423 0.5157911531315766 1.6247735867383646 -1.5874721111076917 1.353747006672262 0.9374884901838694
P 1.3612241447132671 2.242133010144558 9.18030898113954 0.24048273487423744 -0.05660720697108316 -0.06652215209194995
P 2.484867578491553 1.1703263845500305 5.5283955927978266 -1.3287222024931504 -0.5147783045328619 1.1479751929166488
P 6.807295020191858 5.847913316769333 1.064447700074589 -0.3759842423493783 0.8968033537596813 0.09996500513142784
P 5.240652844342629 4.3589797541233 4.554191656413157 0.42850365240433297 -1.0911514990593854 1.288746176320845
P 8.702143783060007 2.825376320634989 2.1237974616240947 0.07183096589937306 -2.9791786277428627 -0.3163883850636164
P 4.1713905281034 3.3671278170236425 1.5506642858905382 1.3376020214812834 -1.144114681519978 -1.2633735018840113
