# total energy = -340869.20332682563 ev
CRYSTAL
PRIMVEC
9.25294058736184 0.00000000000000 0.00000000000000
0.00000000000000 9.25294058736184 0.00000000000000
0.00000000000000 0.00000000000000 13.54261385117231
PRIMCOORD
 96 1
Ni 8.023252706488664 2.5283290555299676 8.497245701315263 1.068383095014618 -0.8183533398818937 -0.6726101000740867
Ni 0.1441571161280849 3.0720966261671574 6.550196563626193 -0.6128851734096284 -0.5815755646630695 0.028827465754653583
Ni 1.06185823061843 3.8773708090416283 10.614118687553516 0.5534700646761049 -2.465300209316451 -0.1796794875439357
Ni 9.105763500921178 5.825873583726753 0.6986923339473753 -1.6539994054059644 0.07842430284617462 -0.2250761705111801
Ni 1.9818041085412559 9.209525978793545 2.8742983617671185 0.1869708789990264 0.283976287281498 0.6680852156205397
Ni 8.067491016343112 4.714650914063461 4.987596011689168 0.11154859620396917 2.2258693127454956 0.8265029655722216
Ni 0.6645008671885049 8.225272162471132 1.1152208653729987 -0.994786809684706 1.1169787445351345 1.1284913731604242
Ni 8.84451597102565 5.617006951569364 10.074052293227092 0.5049564333464336 1.111715696363982 -1.236438368056064
Ni 0.9829306457913124 2.1289536257165964 1.751479906722192 -0.9869662851990226 -0.5833714802212276 3.096268465480035
Ni 7.484537241515672 9.277183481754376 4.351133405642883 -0.5426837726938784 -1.1065791464683652 1.5580352939038136
Ni 1.4459292963867776 7.235457328741793 4.1989419610382 0.21221011318178937 -0.5762520955676269 -0.17499519469438893
Ni 8.891909533685029 7.260773374707443 12.502839137173046 0.832505720122876 1.5794237868819185 -3.1719969666616015
Ni 2.6893209721075784 4.4444557904366535 12.311116353687131 1.000142931790297 1.2752422282971394 1.010402404734776
Ni 1.9496593922822398 6.8986687903435016 -0.1902978306062684 0.8756570586993693 -0.17756758340725548 -0.21947630782589944
Ni 5.075987504342918 2.242774050213475 8.03775854174464 0.06711504848094248 -0.5566960278125703 -0.4087454959407993
Ni 6.960136075924573 3.594397374201896 6.77657531149798 -0.6873335223271905 1.9758002197344036 0.22889580136758644
Ni 1.1645381144198985 8.432963671149853 9.510287266982825 0.8945544098245045 -0.5312968710131754 0.5891757456078305
Ni 8.555824218785782 7.459434013187891 5.4684537632781645 2.0302782961776256 -0.27160568153128706 0.6919676786650921
Ni 6.644666313076302 4.289940932402885 13.61452537916926 -0.61384805154353 1.1769882923195472 -1.710872978664557
Ni 2.668168749491542 0.5046526140909209 0.4723950119544264 -0.32755160076928747 1.1763437167570128 1.1910982493583682
Ni 6.029799145509267 3.601568403304008 4.415609747564609 -0.7554227617959441 -0.21186095737248675 -0.7529133651105291
Ni 4.30452356706731 7.290086691088722 7.857126333073941 -0.4526756216648462 0.46407615019230397 -0.12700092620329742
Ni 2.5488798369955044 3.5900669979182975 6.171558824682052 0.48064433896363024 -0.22616066182461053 -0.22899735994245726
Ni 5.369435268142123 5.505397979918168 6.628933537873307 0.539560139463232 -0.20039820814852585 -1.548420910742501
P 4.729335331076431 4.788665187338035 2.923742376102662 -0.0932801369120845 1.1376252171408925 0.2555126326241664
P 3.434414028168969 7.81935490352848 9.876398374703175 -1.7426165896247408 -1.9217355766795159 1.2965913833968767
P 0.7593758954446422 3.5712927810819295 4.610515542677783 0.36140454476299044 0.601589545891151 -0.9903989650296555
P 8.281307971816155 3.162988263418831 10.464905764584921 -0.6627275508530522 0.06505816595191377 1.0292951278742208
P 1.1179495576081122 5.840169377227093 11.707671016215127 0.3524362798261092 -0.78581011583855 -0.8238665563906391
P 8.309196335317786 3.550686481971731 1.30621914359608 1.771169718672085 -0.16120739688167718 -0.7890389071884928
P 0.9296522127978136 -0.09944227982362457 12.656642444061069 -1.1434621355376435 0.7092465203501979 0.20559055098274273
P 4.772000640998804 3.3017546162502835 6.0137739773777215 -0.7542881339708688 0.06573076653890615 2.01187973906578
Ni 0.33666732487411455 0.8504017003375813 4.939762934342887 1.250596147613685 0.7522081115133884 -1.270358932062909
Ni 4.365074811511467 9.637492995607596 2.2052792835972443 1.1014212564165096 -1.029291014109163 0.3375717040094509
Ni 2.5147827502325586 4.120195733850309 3.237795513717987 -0.6082507599614106 0.31523190286167 -0.4738298871449581
Ni 1.2541435929035807 4.580612813969014 8.119067833527737 -0.8874931321023489 -0.845574380381376 -0.5960925273323218
Ni 3.774422589957629 0.45075053288905786 7.023578864361517 0.43906497285994706 -0.3004987104165534 -0.6578090305055122
Ni 8.397561919737363 0.34394198691292815 11.378314439848856 -0.11210524003838758 -0.8764939527783678 0.7896608570432078
Ni -0.15513850624213218 5.081863121736262 2.8027925607371675 1.9252865272555677 -1.6689735102172933 2.3244040131882997
Ni 1.5304549103839313 1.4518511784840056 7.828199789617137 0.7131229725864686 -0.41771016133325484 -0.6762150438165258
Ni 8.413736060215417 7.259598251228775 2.859725905337549 0.13468312533890353 0.8115322031950024 -0.24800141184878577
Ni 2.3782926208322284 5.506064191654106 9.73746454364366 -2.062054045927326 2.218314126106057 1.3120455131684179
Ni 5.849311282714688 7.076223470911797 2.086334580498108 -0.31491771405536084 -0.1738050310410297 -0.40106535368772217
Ni 3.634869737160139 7.3048728904502385 2.8752865758420936 -0.6887504572793751 -0.6446187570674833 0.027092228231101727
Ni 6.470405679424589 7.83085630891419 11.979539071534399 0.15748495372476748 -0.3673571628019996 0.27109480333313957
Ni 6.803752123853868 4.960714368144064 2.233610862962092 -0.293025799078276 0.1445710738765768 1.4676270792228852
Ni 6.681076635033478 5.603118287463209 10.84172900184271 -0.6947650389045712 0.2165192820801045 2.023724039998876
Ni 7.023139349674614 9.0411317095944 1.9790097204266264 0.12404415756781864 -0.3814794611359946 -1.3320558948520735
Ni 0.7698835349909112 1.3398720892017337 10.049052697836014 0.276192272460705 1.7604901274710518 0.44076627182177
Ni 4.266401451066404 3.317160762643853 10.37580919784397 2.4350000156710125 0.7887373167876739 -0.5996987566263413
Ni 0.9345932831726882 5.658358343901414 5.965142371242391 -1.0357833067017257 -0.66462245388292 -0.9453606938430944
Ni 0.24618189172254748 7.099957264004593 7.892567872131774 -0.5821298945046427 -0.08117589744938278 -0.2276794124619821
Ni 2.3153078529637416 2.0252744243112204 4.09534048433535 0.38172165905378774 -1.0033632384998075 0.8753888926396473
Ni 7.1337304978403475 2.318018964611379 12.19913263793447 0.2105864615354373 0.5486333054090938 -0.20728387952476557
Ni 8.555777954081897 0.8721516629278068 0.4934038139884207 0.23094548480776356 0.39624196415714985 -0.6578424548466091
Ni 3.954910452752208 6.85461553930459 12.209086026328203 1.4791798170574915 -0.5205545448950067 -0.49951263662304296
P 6.869614556303976 7.028385767095127 4.311643704995149 -1.6843805888009828 -0.539692037055406 0.157825882003954
P 8.990878988234952 0.6903609860718376 6.850219467141476 -0.8812214401610243 -0.17636327868650917 1.132597167798682
P 5.012021924752079 4.58498020201572 12.073796003346638 -0.26162594461075583 1.602270095352473 -0.20996579723230288
P 3.6882129407390756 0.3136284276336644 4.72501790890992 -1.2921102076970714 -0.6450769276508245 -0.41535194551372345
P 2.677893590248084 2.6642640084836824 9.192036070137013 -1.2436744807931872 0.4765794248656373 -0.27026690811520554
P 5.831536383482227 -0.08335974345926189 7.904431067501861 -1.625331862267943 2.3225379065138387 0.5518235302116173
P 7.3454933004609115 6.86572832117767 0.20643588461529258 -3.114209366229172 -0.219553440920738 2.032296612159236
P 5.217316921769577 1.1987277305906137 11.567247461690528 -1.2717601832858099 0.30695320779264557 -0.5508123153382837
Ni 7.932805210394282 9.21581797852185 8.586193295709707 1.0782754144276656 -1.0305642243946316 -0.3403824339853686
Ni 4.370506287747518 2.629176857057606 2.7207115736932757 0.22870811083681258 0.26725717475460425 -0.2482821763139982
Ni 0.9551810764013328 2.648552515044474 13.1720747341571 -0.09843057076477242 0.3192986167318759 -1.9937115527971856
Ni 3.648998977726494 5.379067579490895 4.804120374317723 -0.05836275620960917 -1.021097679665093 0.10960895597909509
Ni 5.642711621047644 7.99936161340266 9.760459952062458 0.30860179913966207 1.5569556876863897 0.47874609349965286
Ni 6.565405622381214 6.260493464959407 8.56960369819077 1.117167977727805 -0.2401109533571155 -0.43159077597008894
Ni 6.545484040888509 7.779696799358606 6.594264619370347 -0.21092044783608838 -0.6313230683998418 -1.1307827402977622
Ni 2.8561237354930946 2.320591282147362 11.603609668355663 -1.9201895723486353 -3.2507028053039373 0.9868801532431197
Ni 4.423516385458486 5.802537667087364 9.8724029548757 3.488629863635856 1.146432016799245 1.9908537716334167
Ni 4.146113220966459 7.447682778401204 5.364879120103567 0.28364050120863404 2.12536026218514 0.5011951665317884
Ni 6.715321768848854 1.4197064622249898 6.246300379101692 0.2889503434573217 -1.404027757204685 0.28663712194311275
Ni 4.0139349619681735 5.488853721809037 0.9447696674391436 0.7544714536262683 0.15715173875506483 -0.21847409181363017
Ni 4.5632450441307375 2.7989035497286285 13.30274753969098 0.448306288952557 -0.40999145253275837 0.3600637144643799
Ni 6.170619651193195 3.9601198584096133 9.286197696659249 1.5330603691260307 0.05078262986950609 -0.23678934518305023
Ni 4.046431289976712 4.4858627004133655 8.17900745858654 -1.8287434033214958 -1.3628741657845107 -1.6687757923841906
Ni 8.68511556026167 4.42392351485267 12.321070667374942 -0.16610894794835263 -0.2553223709902313 -0.07239660859485596
Ni 6.651115612797814 1.3166564607924445 9.958818944673578 -1.4390130150306186 0.24505158519184247 0.3340222960952957
Ni 2.855374247290164 9.04260292717793 11.927197036147525 1.0811987587220475 -0.43834892062952896 -2.531713346634362
Ni 1.821025009601514 8.52514146716952 6.134398089227869 -0.02391280206185559 0.04466391856627792 0.8881184243911737
Ni 8.026602271049908 3.024157140001941 3.4858418730070837 0.9709912499270053 -2.544923417566733 -1.0495356232908117
Ni 6.579710668822331 2.221251709966362 1.2571443215975353 -0.17076701554565427 0.18183715731688685 1.2238420194482922
Ni 1.7006812618569074 4.723570748972411 1.1230210944479413 0.4587082010121713 -0.6674509244706505 -1.0320912025621192
Ni 3.738160315052884 0.5914340950494874 9.735270671385452 0.32156710105107844 1.9097555214995048 -0.3422850503247202
Ni 6.155935234180225 0.4713651596459553 13.31106223227312 -1.1030233107963068 -1.0111472533206005 0.7105315577102086
P 6.279221417091891 1.240893381711033 3.24505444575748 -2.2508617210247754 2.9812879607763816 0.1687661830655416
P 1.52832673400524 6.5266450534667015 2.1922104300439242 0.3364972399983495 0.6077943891502823 0.15022107307350258
P 9.01767550472491 0.3004402111443219 2.8784011157076046 1.3640630438862895 0.017149258085776914 -1.825357003347766
P 4.341692630168192 8.1659145473872 0.49037255058990203 0.11004295819272016 -0.5809800971709156 -0.24047476445443744
P 2.714498223961575 6.1771984920855845 6.822470823045575 1.1408689208891707 0.08610213110640655 0.3045530829915852
P 8.199900598860822 5.406835654762429 7.443170119184301 0.6650916802098547 -1.0430047641508295 -1.032342656451293
P 7.970187091133035 7.679339403692144 10.211226214950837 0.024105120578319778 -0.5068523648175658 0.2888251307333671
P 2.7999121202733126 2.9834904652873826 1.054837099156904 1.243166173698201 -1.271090925132927 -0.44868706933074337
