# total energy = -340864.8748688659 ev
CRYSTAL
PRIMVEC
9.26501500832178 0.00000000000000 0.00000000000000
0.00000000000000 9.26501500832178 0.00000000000000
0.00000000000000 0.00000000000000 13.56028598674813
PRIMCOORD
 96 1
Ni 1.4626308600867526 1.3739276063495922 8.347223552567652 0.07599769568255298 -0.009862237506060434 0.3732665863078991
Ni 7.068928504683654 8.81571737522776 2.527677689917549 -0.2127461881909175 -0.9844748862357369 -1.2406457212691926
Ni 6.453527677471445 4.589341801694045 6.884394421159615 -0.12393925655883818 1.2119959187429836 0.09353570456631632
Ni 0.3433799864222519 1.3305117459973534 6.232606173984244 -0.6548149808741949 0.40103938554579316 0.3137879713262919
Ni 4.6936288106835455 8.402655210890616 13.367689665367234 -2.0470650287176615 -0.4526177718437172 -0.3641749084192761
Ni 4.00954642717788 4.424859990163252 6.207641591030956 -0.8046257058831562 -1.3840448863248551 -0.6060246988443692
Ni 8.585898677823304 8.201836010477733 11.872722049881126 0.5222023649110749 1.226678717566139 -0.19307570634518362
Ni 8.607374982624092 0.7214342915317112 3.7335129083856726 0.5741687306760369 0.0669173306478396 1.0975386335326518
Ni 6.869990102318465 7.979623890399179 -0.017987100146785385 1.5165508015067817 0.4531389344545099 1.6835082134983586
Ni 6.669346937190833 6.664084408663289 3.4569512837377077 0.6665286697666972 -0.7496156681958638 -0.45707606472538703
Ni 2.671650464214941 6.58842629606483 9.781901862359332 0.365038541971152 -0.5589483141818568 0.5706627744053074
Ni 4.141035520246376 0.9198723830861818 11.786356359431815 -0.4153367760050718 -0.07938718098007617 -0.04587747925840486
Ni 2.116870630234637 0.2843331192411054 13.26499716546152 1.2057010868732074 -0.6326605562643427 -0.420811683076714
Ni 4.8755288504393075 7.725994104410589 10.299620709785009 0.08762216729535877 -0.9571510016098032 0.20803001366217078
Ni 1.025377741549929 7.3986425939613145 3.3196261577123454 -0.650546435405828 1.7204521377125597 -1.077530565841841
Ni 1.5453952392003993 2.467143787826771 0.5485518908883759 -1.6354859199828093 0.7461745037247988 1.7556078596780862
Ni 5.5405160380025995 8.6144256590492 4.323331176143205 0.5941392602606929 -0.21817815783976618 -1.2655928781328332
Ni 6.7191278628571975 2.312353181999871 11.557458604519681 -1.037139306508988 -2.1315481361634063 -1.6901550293909149
Ni 7.9718134827429825 2.8445171143327537 7.206777104057266 -3.1153681624239637 -3.9628839828024267 2.0280231815948624
Ni 7.338114250879544 7.797436635178006 9.785657899445717 0.4000880773761174 -1.1833234905089556 1.5731328116668841
Ni 8.451120504425093 6.029115869743031 12.987824976324179 -1.713912793932145 -1.982926803476856 -1.2176618587795094
Ni 4.432540687609263 3.1751021150216636 10.636105672034375 -0.0794781980319857 0.15599294256027327 -0.43433928524950355
Ni 6.034952829201399 6.469176287828879 12.167075282859095 -1.6608192565412752 1.439762234491817 -0.33476457357795897
Ni 6.990018371815532 5.242525360130416 9.402105734427376 0.48477815862634577 0.6359369130227693 -0.5021613870997997
P 7.906643367139559 6.810184430407731 1.5070899611294868 -1.0483953390387817 -1.5338173018967132 1.6118875638375787
P 5.816900700863811 6.999579867309238 8.303667790488712 -0.5623007755938574 -2.652164901754916 -0.6805553230630924
P 4.496978867026638 5.379471547041734 10.681192941095011 0.43732536446102105 0.5117336041692672 -0.055518087671962445
P 6.496072626412436 9.015721254319475 11.51081110693081 -0.6216824599862841 0.4029659131445447 -0.01840087110469089
P 3.3585216172396044 8.684061511889025 7.712358781815542 -0.3566233213242632 -0.0001586370650513397 -1.2765612042188788
P 2.9606818725692814 2.255252894473015 6.389132117123133 -1.2231228818940807 -0.4018914491334433 0.2382674723904735
P 8.277512653106218 2.9091035339903417 10.0192613554831 -1.1429965087551346 0.6858008877327479 0.026053759664258356
P 8.645695084719025 6.221689206794095 10.772264332669566 -0.7464020463545726 0.6125779265818547 0.3643104055558758
Ni 0.8647557352736696 5.646915470415129 0.99003263577576 1.2682064044962804 -2.3776960397432214 0.5961272372249992
Ni 1.089417525321733 0.36078431712470194 1.995829694596619 0.11558934193224608 0.23089766228896366 0.4347002681333481
Ni 2.7491893748610967 5.871221483886682 2.5807254598775957 -0.3546510280892408 -1.3013499811277847 -0.06346125377843909
Ni 6.2002777570984 7.1146698838042255 5.944070443933115 0.6592833010581935 -0.7359445984666745 0.8494768007595758
Ni 3.4150382088206235 4.220992599810998 0.9077861710013557 0.5589233744811922 -0.34999733136731337 0.6073421321042121
Ni 8.457930290459855 2.6336546376454724 12.85939519121307 0.05944596197145891 2.2354530997791886 2.363029953090614
Ni 2.936166642844138 9.1035628616604 9.781834227749737 0.8396734415159088 1.7184685316236272 -2.822680977632029
Ni 8.279652871574285 0.8297098894844295 9.647194103075224 -0.5532461215907569 -0.44487438045287253 -0.9053399304757828
Ni 0.5894541526675112 8.192719235704663 9.748774801179342 0.2404382547895472 -0.37865973229901234 -0.5462524638817431
Ni 8.419248852779404 5.696872431366744 5.393983340057038 -2.3364236633569955 0.4739743831426224 -0.8976569600092282
Ni 1.6659052894781563 7.176059873282232 7.513686285381235 -1.3795621679631531 0.8492957950970212 0.6958058214642597
Ni 6.098557157267579 3.032578389072349 8.991811956576202 1.2371032553335726 -0.22263593650080368 0.09597053926005408
Ni 0.4432327592263957 1.5444687376990713 11.461533271579667 1.4594674262302283 -2.6396677977291705 -0.9952730052925053
Ni 0.36559841892560313 3.2779252516390653 4.594712730897244 -1.7735801278857908 -0.6179289064811229 -0.32964910672826453
Ni 8.085745372361309 3.6152922433176973 2.3907055609641925 -0.9807694123596914 -0.07814173860874929 0.12999086206955676
Ni 5.72348155448489 4.562380608005395 4.361774502937816 -0.28181604640538566 0.5508467681206448 0.7457577279023544
Ni 2.6559184687223887 3.868810849126129 4.11859750688721 0.2531996682202736 -1.7242450290960887 -0.31528538180742477
Ni 4.268883462414653 2.0944029688274286 4.721270982975672 1.169774033959295 2.420848663871295 -1.5819077296460369
Ni 6.641125701460377 8.809852620724353 7.973054994754762 1.0586000474859252 2.9104795226042524 -2.8033848484065786
Ni 3.3161063785088 2.397026154206254 2.4008081333346754 -0.9433272083528335 -0.8883937895397472 -0.26399778727704215
Ni 6.016506184309955 5.3578099419406815 0.8798697542648362 0.7532388667707478 0.20913430246994305 0.46013722014921404
Ni 7.900528457230792 1.51349579250967 1.4846343442417955 0.21569112975185437 -0.7009225738655348 -0.07233130257455929
Ni 2.6223605843442814 3.0490423207509507 12.191890699070669 0.03625049769160208 -1.8326936462184953 -0.4654774014152048
Ni 3.98975635510951 0.11476666747102361 5.4980313116591955 -2.295205794357789 -1.328851271871847 3.0399636202407194
P 2.9710864844291973 -0.6390655285591316 3.1053458169866643 -1.7894083531672988 2.3166752770854746 0.2661125196271998
P 0.8892079628967229 4.28240111931903 12.735413539809835 -0.6202930358379253 -0.14824852272816402 0.19727508913851186
P 1.033957145452228 3.4565547410951396 2.6056492767648254 1.0705518205311628 -0.14662718507465716 -1.3041146883571155
P 6.0044709298077015 1.3615124862317944 3.541186947235464 0.8102085992875725 0.08625716862703209 -0.4207895715895269
P 2.02758368055164 5.110434041086056 7.230195356004836 -0.3327539709058334 1.1407624772182934 -1.041136343483523
P 2.322720733799733 8.38090095563943 11.464841808440909 -1.136595233214481 -2.5227399394911583 2.4285282919037403
P 3.6830102380497745 5.64426567612133 4.3918515211754325 3.1020850721618127 -0.5831999876403697 1.2095415436652202
P 9.322643406664463 0.687516924571089 -0.011811041138931703 -0.9876964784968281 -0.2727166552072787 0.2915666980342463
Ni 6.465284981523301 4.487769442103436 11.600309298956109 0.4108517436505246 -0.9114082481570498 -0.41295079227139847
Ni 3.8517261614416367 6.711864091086785 6.844215757053017 1.395395535450984 0.5519217463523785 0.36617882622318226
Ni 1.444332455435521 6.403709691745029 12.236462833296565 -1.0913057652490625 1.5628429997051019 -1.0969364811722786
Ni 4.836569462308457 0.5997355398277502 1.7632435372076956 -0.5254512108656758 0.8445040301353326 0.7065018677255253
Ni 1.6550281618525635 1.328890368370029 4.307601033653656 1.735680267516224 -0.5704529723873466 -0.4392230957043662
Ni 1.0337069900468694 3.520631584926997 10.433297272898141 -0.48938634682231846 1.3138990214373887 -0.14174106062694944
Ni 2.420216486784498 7.555619743331349 1.1630716151728198 0.5552250996939986 0.9035846383475729 -1.286026720507153
Ni 4.524004915820381 5.0019685103255656 8.416801962314397 3.0106715561448216 2.079047752271845 1.486531629436872
Ni 6.150839636987528 0.9523972182903078 13.473608243500573 0.16090477803959388 1.6148139934557544 -0.8282644283480187
Ni 3.964536984243357 1.8022399853985989 8.374493271256243 -0.7345569740905284 -0.044943654590225826 -0.9322105296143817
Ni 4.504140723631905 7.621734890466128 2.2627640421442825 2.8063537012269153 -1.8097342092088446 -0.2615043314312271
Ni 5.50446586458592 3.4191240804414806 2.3810236202753137 -0.031511954565352183 -1.2555038693279474 0.02538244462884661
Ni 1.3428620110100582 5.545167075539267 4.985981726920148 1.049158185346735 0.6314228272024996 1.2938194770786944
Ni 8.38327279948283 6.557129075349963 7.52690838830669 -0.5825011618011322 0.8839151849431035 0.6590575582006327
Ni 9.211852357135639 5.4196631821693515 3.1018065812515907 -0.742912030923443 0.36336655358536774 0.07783911976666594
Ni 0.9532403346565165 8.478378178594168 5.60530721449198 -1.6779798274809616 0.16417547837106564 -0.02943784564514285
Ni 2.7596125167510386 7.412280696060865 4.8659460454110715 1.2887459192105288 0.8359592258891152 0.21194528955617692
Ni 3.1877488605147932 5.107413646191726 12.423866291970217 1.781727182472957 1.6528650346912053 -1.1837227828299033
Ni 0.11416351499365895 4.127971849077649 6.66801277502892 3.538192762165649 2.7043981480280195 0.9071343033720441
Ni 0.5576853426884691 5.467378009487753 9.236425956455367 0.3887140312112209 -0.08822483387636419 -1.0088800545529786
Ni 2.7926330302583753 3.8691629196966333 8.64861449094971 -2.1786047233315773 -2.249581311650455 1.2645659795302155
Ni 5.3502867497498965 0.661643443644998 9.724732087219877 1.8981727017579115 0.44182325233137454 0.453338966280458
Ni 9.51452186758953 7.69818979435573 0.5372967506502411 -0.18967773640722818 3.8338696257135263 -0.16810052445708468
Ni 7.05875551819907 0.7412049070685534 5.661975752319218 -0.31926699216299204 0.39197676112289265 0.23749614144208775
P 8.41141991509318 7.662686256824834 4.483545521758881 -0.57914150130028 0.7563113350484846 -0.21744925009354166
P 4.164577923395125 6.36579725031068 0.36400576284482 -0.21658690209324635 -0.31141638577032177 0.21556360303505456
P 2.4941605716055006 1.9322652060949963 10.341101108500972 0.8089271614719875 0.1298543364916925 -1.1623229769978884
P 5.915304425319877 1.7350223014772388 7.287066797660865 0.15646731109353054 -0.8883397963733604 0.32564924154025204
P 6.650372186443633 3.2304698447410356 0.54432055853181 0.5960686160729218 -0.26479431503640843 -0.7997902321677258
P 7.493099422021723 3.517833550392986 5.167567682666959 0.2878666234748397 0.35268079173674743 -0.19335467103818313
P 3.7053481892467968 1.8884602151121999 0.12649617647783842 0.6315187293504156 -0.2506249655145619 1.6724257304319519
P -0.3691561846907034 8.794815501357796 7.51214088087702 0.6384995315436229 0.3887217445207047 0.6192121440689207
