# total energy = -340874.73495163344 ev
CRYSTAL
PRIMVEC
9.19337687898420 0.00000000000000 0.00000000000000

0.00000000000000 9.19337687898420 0.00000000000000

0.00000000000000 0.00000000000000 13.45543634316722

PRIMCOORD
 96 1
Ni 8.310582603258542 7.43910566275323 1.985511009632671 -0.06446809777639864 0.06827667288921144 -1.3264971698173735
Ni 6.584305507382806 6.897146919375708 11.891066307615327 0.7661609741490547 1.7209172502744363 -1.8165885131265165
Ni 0.1701730780379512 2.5315249514241933 5.662679616914811 1.0997112157039381 0.6495588746815781 0.863015715786275
Ni 8.129895979751872 4.613677655112246 4.975429669241112 -1.2684809983139058 0.8635996133142031 0.08854776443342169
Ni 6.470454731687954 8.556073338350567 0.355110718879999 1.125917956006293 -1.20391442728643 0.7849557382580545
Ni 1.0732715566634203 3.509525546481852 1.2063447634710278 0.3007609629390046 0.8073497896825386 -2.098919551495108
Ni 7.923339194519964 4.952361648700614 2.2834950057179153 -0.5283089920294449 0.4728448975238695 0.7322635500706615
Ni 4.398194101211113 3.724650558695962 6.597078784817432 -0.7993114927590944 1.0910031464069792 0.37744797137909836
Ni 3.3026837665756448 1.2600166153431303 11.014781231153261 -1.4434761930082944 0.5048255641955242 0.8171091830621476
Ni 4.598802771789066 8.047569292385317 12.443788656304825 -0.5755496701839636 2.103043086745178 -0.13459210828699403
Ni 5.22917421783595 1.9215903815376503 5.806787633643811 0.09411034612286372 -2.7661732723532877 -0.07157179870071545
Ni 9.208361794188837 3.50017588248947 8.786413388821702 1.1901916783836985 -0.6069796065584708 0.5579903211439615
Ni 8.038762037611765 6.054454440974771 0.10175505011493297 0.48183913060267985 0.15465725446798526 -0.3744215258479487
Ni 2.081463200443777 5.145955772940132 9.575776008959698 0.6805057007720797 0.3454354230282438 -0.20853266433020218
Ni 9.046907714509171 5.8399361916156245 9.373245003336704 -1.2174327734878387 0.7514617202656672 -0.4651385300185474
Ni 4.117042258325134 7.590511381819647 9.948451593153212 0.4412002740353949 -0.5489076421164031 0.26064969674041566
Ni 5.534844796088382 3.6697477136984125 4.348971843608739 0.20538126318541403 1.3547975594239636 0.3032225371056197
Ni 6.88179398046983 8.412583116528438 9.518200649387333 -1.819090453612764 -1.5105837852900694 -0.7191432106386196
Ni 1.5410489443334345 6.91070714984647 8.041412488082763 -0.04115179164796139 0.41402602761344826 -0.13754579159867925
Ni 7.831083660435836 0.6967678504576849 2.2563147878285554 -0.4236355256787543 0.29291447031139234 0.12551174325228062
Ni 3.2122117475500445 4.076747688729646 11.453414695694217 0.5808476853581094 -0.14580906004873598 -0.31344987126058277
Ni 8.892155606363866 6.940833844933036 5.9528998064695084 1.8635137169231457 -0.5641594260691509 -0.11348052311935938
Ni 3.6724597597925643 7.084397613767888 1.1022251768970577 0.3171057228456151 -0.7402571097990993 -0.11914054961861416
Ni 2.0077323201891977 3.5606315269475886 7.194688714046958 -0.7828440912316904 -1.523693068978518 1.3298162068882777
P 8.962218329358898 6.428008911970323 3.9064229199779534 0.09198738624258997 -1.8210025830338123 -1.1919006906550051
P 1.1966742506356423 5.742008344175253 0.2398956460991396 -0.3080852645145597 -1.463157730597622 -0.8352424023277487
P 2.756054787890228 5.35887437477256 6.519038049617299 2.2762279677037056 1.456437638264969 2.6897695994815676
P 5.531277765971329 0.919438786177151 1.6002276287831545 -0.6435923726854981 -1.434443650492381 1.1615012524275417
P 6.013718589302946 6.338272363071951 1.3991500959990941 0.7947318438082119 0.023562103590656195 1.1682617110798266
P 8.231096669258406 2.8786576580990895 1.5270979953575836 0.6665168426921553 -0.669927411035601 1.240252856706148
P 8.729938476427202 8.681498575172665 13.345720495440979 -1.5714878198642936 0.5670076941512235 0.3602138668889989
P 7.844331316102526 2.6794739608926412 10.975949327773296 0.8487864595607705 -0.23386985754341014 1.1405351916988358
Ni 7.825788275519797 5.064603583492155 11.265886361329011 -0.03582138057398347 -0.931657485324389 0.5624223887733861
Ni 1.418988483343403 4.8598119265655955 5.144619055983896 -2.5410274249464364 0.21140921454704883 -1.4374173884087245
Ni 6.25020900871302 2.7133975205110197 2.38062946475854 0.7532864321792316 0.17451465551354461 -0.2797265108662086
Ni 4.245694370330444 3.6121144358535293 9.081100640061647 -1.0134969844996997 -0.2938927750642616 -0.2865304211619194
Ni 2.831017580607914 -0.25893512901774735 2.2342617160636324 2.499837066751056 2.429445404401371 -0.028642346327040994
Ni 5.3191130210193105 5.002851672934797 10.84981803962906 -0.3740394599181816 0.5332642791521913 -0.13234316435181726
Ni 1.988141234675169 5.6477762341241995 2.4296476294006086 -1.015276959218258 -1.1161840165479808 -0.02425347323072597
Ni 3.69779670567556 2.1204706973166174 1.0486893869984926 -0.22021190044034336 -0.27044251446112133 -0.45566889996521526
Ni 3.0108032532087314 6.458852690430937 12.268787216881623 -2.3670696703776266 -0.10546279502120547 -1.1787566970738796
Ni 5.228153753034421 7.935299777464005 2.8880477729484695 -0.31378745710565964 1.8663434730624568 -0.5079173157469704
Ni 4.621087516644066 4.29812419702519 1.989332696281278 0.5892659913287916 0.8609927718189753 1.6254894708917293
Ni 7.2755187197046025 2.154329903298864 4.6082039186903545 0.15753689000862547 -0.5003950392279963 -1.098846296600482
Ni 4.115571318070679 1.833628154321214 3.4977543470955723 0.4668850803960088 1.027526208899256 -1.017698681285873
Ni 6.115397334392179 1.5711848327965905 13.068471240917601 -0.9724999732620477 0.9532254413031518 -0.7560891917353495
Ni 2.2451144971285366 -0.004517625256496306 9.145673078556923 0.9103358410284774 -0.5426261799830655 1.135809246978076
Ni 0.8195637815749439 4.155470572472783 11.891362334341535 -0.715683020004161 0.9242977025252083 0.03509041594522989
Ni 7.162486154526292 7.012082513508221 7.366204944404759 -2.0939776341088 -0.6286851165563624 1.1962252861722882
Ni 6.986763954378408 3.8911793822534997 9.440939512522062 -0.5367252411175982 0.6256558428117355 -1.699924450072853
Ni 4.811206544532433 5.741282067424615 7.831965305250851 -0.08689017422534069 1.1476103533780622 0.9823146453596242
Ni 7.904667446664971 1.1185489363708772 9.10807860366602 0.03775690703379949 2.4120593477144396 -0.25935643185028884
Ni 6.162954671494041 6.069062716376831 3.7350675737104835 0.6341011453656112 -2.474885539012041 -0.44017646075657096
Ni 4.619699316778924 0.8295468692144012 9.222194148606674 -0.2509944330388387 0.5605753082623185 -2.407802115099982
Ni 3.2434968080869937 4.627890615320922 0.30408104343996223 -2.9534110318604556 -0.6479815028921293 0.24752138688857372
Ni 7.444382660916089 7.989053450387762 3.9330506159342336 0.4436572202163198 1.783930360771863 1.8828633250943507
P 8.74608204571985 4.786549908517124 7.122473821592126 1.476739840157431 1.2612240596411763 0.224846056778245
P 6.07057962351424 5.099290193367533 6.111822030236192 0.03356240933647768 0.30424609327412766 -0.9192513983505523
P 9.00416770674065 0.8356797707378215 4.300975982443516 -0.9623844820946005 -0.6836563305859193 -0.8773866397959664
P 3.225045701270168 7.063179300597368 3.3415368147217674 0.782727106037852 0.8471774632024377 1.5141229087915795
P 2.567369926749955 3.3587909439065298 2.7125351817868455 0.8383135850539046 -0.2927964566762893 1.0218921505419303
P 4.766922049496734 3.414659093446066 12.825505926374946 0.9771708963751559 0.058641720902608684 0.1754929602664139
P 5.944354562928781 2.354635192449335 8.29223538159719 -1.0845265375436999 -1.082521077077897 -0.6549805599177817
P 3.5034027576726814 8.022894269616828 7.886688879404889 1.0292671028497629 0.001889246602912875 -1.195503320404599
Ni 5.300983682383147 9.206706986402574 7.250353689963847 0.4273044898899092 -1.5122588589996473 -1.2905030111109517
Ni 7.667570264399933 1.020133839971217 6.683570991117072 -0.007240740722813336 -2.099526074730855 0.14158448044442712
Ni 9.171009105102259 7.111757102500759 11.754723016754532 -0.016940484509080502 -1.3000379471845804 0.3498741755258878
Ni 1.984004215209513 2.3435295935281966 12.664323970642354 0.29740618753415876 -1.473950193227436 1.2485768031908109
Ni 0.5965324654931362 1.557670569208781 10.818964148454198 -0.3402093987426141 1.7860900874273433 -1.750624547530882
Ni 3.7441864839504486 5.197374328209941 4.609186690647862 0.010725871057936367 0.48475758980105554 -1.7022448706759137
Ni 0.9759596654546018 1.071249013813544 1.7751490858300198 -0.08440957389533203 0.5568960596385184 -0.32413743288141594
Ni 1.2837355269462245 9.02167189576867 12.044606728726023 1.3735696978251442 -0.0667509802733044 0.451381585443771
Ni 0.9327416021033826 1.365216423666466 8.003428214024428 -0.25823028866564557 0.7914552299394693 -0.28548398217527604
Ni 5.031847582700751 6.993475119289361 5.55803692721285 -0.1322158947453336 1.5709188347347007 1.0917834762164296
Ni 8.56916470661522 1.7792861052956754 13.169413596541949 0.5990837487501618 0.08303634769688925 -0.6452386500396694
Ni 1.2317745624575853 7.806132836369636 0.8264073311087979 0.7132103900939524 -0.06224383643157022 -0.0346453579880113
Ni 0.9835442011416377 0.00036957373893193224 6.039580476989249 -1.117217857129134 0.03377683934012893 -0.03126821398566228
Ni 5.0787521900647 5.791431936724956 13.04804539680917 1.0469511503930873 -1.654190438370848 0.9754641980966942
Ni 7.593738257002859 0.11969684386865333 11.471149638474657 0.09763764254983184 0.6827230201383726 1.3260703666926001
Ni 1.8388867657308925 1.3826286789285824 4.225437684351275 -0.27653474340178824 1.5038107282322941 -2.191649729440993
Ni 0.1031965715642993 8.476605791103612 9.82667980418812 0.06070014609353417 -0.44410484927669963 -0.7533843912096767
Ni 3.5313046556243832 9.148301464924103 4.662685707040066 1.5829719092444932 -1.672855618880519 1.000129047833226
Ni 7.292618400162648 3.2681074772193512 6.880235703137766 -1.013961582840944 0.6488592775113922 0.09602427531612494
Ni 1.0997852547499798 8.071159496716147 3.2586916209155183 -1.3218943809380397 -0.32438451589521555 2.115910172515833
Ni 0.3620811370107998 3.669554652790015 3.4205465318145243 0.786452120297923 -1.6046172554284108 -0.2452328479647131
Ni 5.485310883019596 2.5970277596304125 10.803436535393102 0.23959570428359384 -0.7994932697525973 1.1762329022107614
Ni 2.3515646046681593 7.3860139129439775 5.836308485213074 1.095899555267332 -1.047566672489899 -0.8605939937186599
Ni 7.00326606535808 3.9532438676149297 13.620130835273256 -1.2568634686796354 -0.335544389166777 -1.076833025554184
P 5.303484280815721 9.58326769154317 11.038382467536 1.9688219886443576 -1.644281406787252 2.3607588976682505
P 5.950201550440241 9.045427580878124 5.051910288433864 -1.047762076330157 0.6944904450869459 0.5535248291734403
P 2.1023045851740925 3.034292330397067 9.948155566427003 -0.6587929916853363 -1.21966217703899 -0.5236249562902142
P 2.8977523012772393 0.11947804150580309 0.05235719901968276 0.24294945124717512 0.3531790715294047 -0.16382349434828558
P 1.8795306836368144 7.2209468362643054 10.510565895367408 -0.17359162947864296 -0.03207194083388025 -0.758503714714113
P 8.829291297239077 8.360484251390943 7.690413966551625 0.15202213083798335 1.1134499054462694 0.3453886289507084
P 6.429810813782032 6.333188425817489 9.618538080832035 0.24534443384191293 -0.3709834467006772 -0.6176108610200718
P 2.626740752770413 1.633295285040972 6.164419176384883 0.3340174109992893 0.5393984170743871 1.0019817847712487
