# total energy = -340872.86565133283 ev
CRYSTAL
PRIMVEC
9.24138475784194 0.00000000000000 0.00000000000000

0.00000000000000 9.24138475784194 0.00000000000000

0.00000000000000 0.00000000000000 13.52570072658911

PRIMCOORD
 96 1
Ni 6.269161246984344 3.743084213503519 3.4830843266098626 0.38793678672556414 -0.6236658089649001 -0.8951272516088389
Ni 7.282857965696096 1.4927146483295417 7.2510740716239726 0.11898474076704024 1.5892711119896437 -0.16340311898141535
Ni 7.518504031740083 2.898597246910101 1.1073747861761503 -0.8268220394745373 -0.023086449505818306 1.0611477536084435
Ni 0.07809154818953284 9.151835588219956 4.265045933242482 -0.5213107063347409 0.24523541906787444 0.17118122026493743
Ni 3.947263364967335 1.0880991061669518 10.649798418866702 -1.051735202045292 0.24890952548535197 1.8010176552714532
Ni 5.162542406068887 4.692793585209954 13.126354568802943 -0.9403863805569546 -0.130703057645233 0.5367015869685143
Ni 1.820793043193167 3.4034725706528004 7.870240371192618 -0.5537798826070398 0.5998316826597799 0.32347717358959777
Ni 1.2725386601143964 2.36315142289392 3.450325466461907 -0.10088674561474884 -1.3892657684041623 0.7133862535501844
Ni 8.846916103176568 4.564236683969204 10.620285132992038 0.42288167823186523 0.38722381981893955 -0.0076865700109803115
Ni 7.597277594113468 7.195425225947786 11.502431665989464 -0.042071989469385604 0.5764775813148717 -0.8915508471114904
Ni 4.883970108534475 5.241371416749901 9.233454572913233 1.4300684042428211 1.6887882309503752 -0.13442987167751685
Ni 5.409555375177076 0.012716145216538922 6.835267212704676 -0.5481393964918109 -0.49806073466786477 0.6552009034587039
Ni 2.996093854493303 3.6885600443337667 2.6704875300115267 -0.5852486426392823 0.1802901245447411 -0.20360617356286226
Ni 2.030295232189488 7.252121120499724 7.955640930466279 1.7491099106585681 -1.1674968078893442 -0.19777645425496262
Ni 2.7626657207545264 9.01804806329275 3.0491255400493413 -0.6121459812507587 -0.11469742624559601 0.9948989097825383
Ni 0.3943853294048074 5.289759306541906 8.355393656049696 2.6018332433799 -0.9035440149176247 0.17017103383286822
Ni 1.2462376795284447 1.475534914348767 6.617164991194902 -1.2584570384190006 0.9758760888231323 -1.6493163981079981
Ni 4.664191499857347 9.060706294629629 4.572025322914334 0.11012086261850713 0.6401242116312396 0.36643825053215595
Ni 6.9669689571265225 3.8331969547872915 8.852570906416394 0.10821464673472976 0.17284575245155395 -0.617709334271149
Ni 9.018972201753256 6.928108934862317 0.32199663965504655 -0.028577040306744333 0.498651059953696 -0.5760091263188855
Ni 0.09990491241127593 0.9265689446554084 1.738255464870148 -0.7851655402760155 -0.7216112125631379 0.15102634258361733
Ni 7.6086444971776706 8.483008860199192 7.575339471199557 2.2543180550044917 0.8440489448757851 -0.9615169918879829
Ni 2.449234920489894 8.721676859009028 5.8877508215650165 -1.2401255870996641 0.1256788649577642 0.3786319643848705
Ni 8.656220131851509 2.2702200593056094 5.184590501459597 -0.876953923133922 -1.5275186133721952 -2.1316499518485936
P 5.466057200652307 3.4215025120172387 7.2587296346307895 -0.2475877213501349 -1.1742662654026939 -0.36825524913623675
P 3.1770678892138564 1.6100894741981906 12.686593116848917 0.2971220806348367 0.8719161035996984 -0.7367786643321956
P 1.307415645613828 8.424483171495456 12.311795826252956 0.5886998344126764 -2.138144301323685 0.6261710918852571
P 2.305060079266621 1.5386535712012097 9.035006004043005 0.7073102225594334 0.22041707447261394 -0.37375535301885954
P 1.3338829711226707 5.2770616440945775 0.6548565269133209 1.0746306185862264 0.0221942767088521 -0.4321836723590815
P 2.3838244002554005 5.338470644795087 3.9920831561633325 0.2606412120999834 -0.272529221786821 -0.02511299301754385
P 9.178395327574849 7.883187551024283 2.20082095747558 -0.3447628224412514 1.3131760272284352 0.5105804644014305
P 5.084424982002459 7.488894635465526 11.171038386468013 -0.3849105983047307 0.35015519710141635 -0.10590451054431439
Ni 6.937969492235898 7.959068560016289 1.2740653368511494 2.0679691258601802 1.0413109213881744 0.5118395336195121
Ni 8.08872518602504 6.23589226240619 7.019513621713875 -1.3883136889035381 -1.127323063883936 -1.2957876565486586
Ni 2.9362096822526254 3.6995942575521874 13.313549903639613 -0.255769742940295 0.30351898530011595 0.2923948503624964
Ni 1.701255733326938 3.0213135930804644 10.649812280943609 0.8334367165775775 0.33152575492568703 0.44953733314618066
Ni 6.729936683391779 0.8865454320694285 3.0608935192054028 0.014956107089200046 0.35820557820971854 -0.5483332576701717
Ni 0.9355977774145352 5.970341075780284 12.092044017591185 0.8486728168010417 0.45953866733326665 -1.5662689946675155
Ni 1.934536004912034 8.442097250552669 0.8617822178817557 -1.0860198342597749 -0.8351115331768393 -0.28218731370187533
Ni 3.3173243833645913 4.999468933328301 11.062629551943175 -0.27622466836053716 0.16350647732849907 1.550926193662858
Ni 6.928358452246654 2.054332073547204 10.547232911827635 1.1060356152600694 -1.2045353486998802 -1.4772954555505846
Ni 2.554411118679886 1.513295211844972 1.2065422360959437 0.7857399247222469 0.04536197307456704 0.7063458017636352
Ni 0.028963423490664705 7.694118063389712 9.641322158318337 1.7318179563473401 -3.7135093447551983 -0.3644631290836562
Ni 3.69047301094701 6.943264805614588 5.4952082242504545 1.1113703972094215 -1.669788292809105 -0.6003142787231532
Ni 3.7441007658100736 8.766737850343217 8.867354349369082 0.06954396963740926 0.4510404000542684 -0.5087518958331239
Ni 9.167204010818143 2.1940525673908464 9.163769912298909 -0.654275563430957 -0.32541424271131053 -0.5733917433006964
Ni 6.623836346741283 7.5628072295366575 5.460866314919655 -0.4305142550764586 -0.3751674028750377 0.033883797231638424
Ni 5.8079884310388925 5.619926254326272 6.843652845095292 0.4973786209991757 0.6605035466185398 -0.0951236178787265
Ni 8.503413837407127 0.009863329788962203 12.275466095093613 0.15391112033058008 0.09502591595859763 -0.02670913386007013
Ni 6.187504372614185 5.448498569902727 1.658954219435815 0.8919269995039866 0.5191448090316736 1.039936666748467
Ni 8.036853294236934 6.583802668632237 3.699197802152631 -1.4557388124257316 0.7949033363890697 0.016267112591139728
Ni 6.573350662643934 5.091919744917149 11.28428878238743 0.22116320861001906 -0.21657147547427863 -1.1274817009489873
Ni 0.8483175205122083 3.1859765839731176 1.1992859009040642 0.6524953316020826 0.24106174730615904 0.5212351159017992
Ni 8.742266663909064 5.107787202284007 2.0583141861735172 0.13808803725539445 0.5777667324399405 -0.9445525961195023
Ni 1.1513101768654448 7.055048593797185 3.6892291205791716 1.26425024806201 -0.0606950038872116 0.983833395996996
Ni 2.622575571526682 7.3306451654887725 10.453310871809663 -0.33270280595292373 0.8760838618241428 1.2013746915837118
P 8.036067776545506 -0.08100628089396336 9.908048849066004 -2.569250424347872 3.435765668646973 0.4477943823131449
P 8.5645733207233 3.1589362926187623 2.8884400410906985 0.19817291836243286 -0.4810690852058747 2.08917069963846
P 2.620219018452396 5.626496878780456 9.146633612825777 -0.40488395610286404 -2.3259608161524588 -0.4298403689378855
P 7.139348504164387 0.3681481143726304 5.105776276993951 0.09393653954916081 0.8910268562872203 0.9466166777373826
P 0.37030505353944737 7.608339531485704 6.7076381464782715 0.7180962574313439 1.204344572845313 -1.3103251880432014
P 4.0652573636045215 8.65832716754146 1.339797457269898 0.4325562252071518 0.5345413460924019 0.3928339669168654
P 5.818671471642321 5.877261850038293 4.264017367135941 0.5000451120877453 -0.1920395517711854 -0.07154454500720582
P 4.493151953587215 7.243461943124799 7.544122074003723 -0.004674265547217757 0.010170769885414741 -0.3452485038284184
Ni 3.754229323337201 3.313905071060726 9.423368723100706 0.14704113268362418 -1.5483761735474946 -0.8034255149274679
Ni 2.3187927767897145 3.5044901457705238 5.4587833068296785 -1.0695298070245516 -2.5407014090655853 -0.5968450892276301
Ni 6.475234882292194 2.7647080667522403 12.591047365555838 0.44231690413834146 0.6424250918502743 0.1009898468515164
Ni 5.229634858301497 7.613292913634007 2.845685699353928 -0.1132684071085533 -0.6596599676713221 0.29266790151822497
Ni 5.214432780626201 1.6926982111826683 0.7425286185229015 -0.8441263350809398 -0.7970489219771628 0.48384664795101184
Ni 3.9107876199312313 8.782771652632967 12.645637148556288 -0.6688989697710866 1.08205133653033 -0.4886286427206875
Ni 7.231651453599554 4.244808225095899 5.500483206583013 -0.23159803079009791 0.3750254779805348 1.1429540855529734
Ni 3.701239224011885 4.808052134004049 7.109730790643684 -1.0338791477004774 -0.27267731732891104 1.1389272237817676
Ni 4.2062069616006355 4.407142387068081 4.789694123486131 2.0684589210124056 0.4909570337435481 -0.6841623236880604
Ni 5.505453223223605 2.028881300344916 5.261199731558482 0.7568034441935547 0.6003063083033533 0.7829713608381741
Ni 5.21930299031306 1.3949038336697683 8.902792286914039 1.7794247595920258 1.0104240020013309 -1.987328532088977
Ni 0.9908427745834811 1.6242103098746958 12.80027693370631 0.17199163198137477 0.18166283652255166 0.889920510596919
Ni 6.193409617376808 0.4092223723882037 12.279442662889164 -1.0078045621006129 -1.0597120496031813 -0.673478361611653
Ni 1.6368247998605794 5.503697360148647 6.13565003945683 -1.1151470906430343 1.980632093905408 0.8847230255563796
Ni 6.345134669822401 7.535813145105328 9.025591805545849 -1.6985008302524491 -0.81549453027686 2.055783639537582
Ni 3.078721074246991 6.582702943864237 12.980925671688768 -1.5702117813653473 -0.8722439192527622 -0.23094085682207324
Ni 0.21703761400327268 4.784237085876853 4.360537160366389 -0.06651212478962094 -1.2402842241647154 0.09086329994047578
Ni 1.0588870894304114 0.4072863023134472 10.644388512318908 0.6402005733951297 0.6832644944641394 -1.0815841670859245
Ni 3.679235487267278 5.654516756902946 1.6527319951812398 -0.6647669498805842 0.5728950061699359 -0.33671012734010397
Ni 1.0336119025356194 -0.020338439238778244 8.200564422515269 -0.9188675326485723 0.7381012397983612 0.37860985289768345
Ni 4.230169871881511 1.8226967684218056 3.202277462277953 0.6379351743997207 -0.2001020170643457 -0.24825903638554664
Ni 3.5260965029771136 1.8061731727479893 6.989419052747553 1.2274747311048733 0.11257780879943191 0.29798185753197065
Ni 8.794535935235185 4.322241786701553 13.197729478661532 -1.448097750940706 0.46185497417126914 -2.0259786403610076
Ni 5.148375363469356 7.1326207761719145 0.1202294895731466 0.3933227336278258 -0.515058297667126 -0.33741075295155437
P 8.989076322555942 2.634293647205876 11.383729777291531 -1.5087737286645242 -0.746488949641424 0.7623503421537129
P 9.040292076037089 3.643646915153258 6.612214381461981 1.395269808506397 1.5483982850346818 1.7032213756565697
P 4.9778718175063155 3.6367620836225014 1.7357806220729175 -0.6355638459540667 -0.21102303485222365 -0.5692522672110261
P 7.045908864422799 6.09010942026164 13.245488954300393 0.38373560416002295 -0.8815158314729915 0.4515438220532481
P 2.6902132654509905 1.25927727320616 4.786096452459388 0.4887201739932293 0.8811098542838244 0.09023235122469621
P 7.388209750193584 0.8607536517752143 0.4956533460453271 -0.22603699176255262 -0.5507377533466064 0.2719813197031509
P 5.018931289306521 3.5301165052803074 11.166926894457227 0.031051727099482007 -0.12342297904405196 -0.3838549033467067
P 7.895718868548721 5.925797601983978 9.236389636663795 -2.378163209187627 0.3391771008233578 1.0236626121787917
