# total energy = -381173.0708804057 ev
CRYSTAL
PRIMVEC
9.16012278681362 0.00000000000000 0.00000000000000

0.00000000000000 9.16012278681362 0.00000000000000

0.00000000000000 0.00000000000000 13.40676561790286

PRIMCOORD
 96 1
Ni 7.482840002814384 6.190099385527682 3.946254998165561 0.10069237021575562 -0.5002921951015449 0.9950714308046604
Ni 8.387631109211416 0.6131850166134327 2.018468731763108 0.3417384337926308 2.751031274505527 -0.1536748359500579
Ni 0.2040737905731843 7.947478059821552 6.882845562695122 0.16462542142429068 -0.47919140856718767 0.21283566258093023
Ni 5.956919305502951 6.787082893359698 5.829301393934104 -0.017193738170467165 -0.11273078943752844 -1.330960604905366
Ni 4.355372636291604 7.611219120568415 9.077064070046953 -0.32726003767079764 0.32658255198779884 -0.41363521993293284
Ni 0.04808148334576585 6.292253072376984 2.2808796789062757 1.993377823606851 0.12413080374435397 0.03174001141575824
Ni 8.607583972251716 8.164179079351136 3.585263727985853 0.7205953697041139 1.3199567975956945 -0.8691799356154578
Ni 9.011517897018 2.560235936783171 9.54301568863 -1.5536261090925243 -0.3056630282263123 0.504633502789376
Ni 9.174412356598447 6.332804934973994 13.26297810292775 -1.1861995265051701 1.9891223907646065 -1.0333345880509173
Ni 6.9800866758126014 5.652226148610169 10.389331320606308 -0.4086891887815671 -0.15480046491406887 0.5572202757471565
Ni 4.833375312121686 7.860786659862641 0.30348860077543177 1.9370056154647093 -1.1934556938469512 -0.599084262970794
Ni 0.6947311757273612 8.28869262538257 1.0820413100619661 0.27521113949435827 -0.4732637302288431 -0.16773568491849822
Ni 5.909176746692104 3.267223356503033 10.025552625129952 0.5669760695823397 0.15624773888355672 -1.4316210934419216
Ni 0.8143513842843602 1.2546619877823488 0.16180990106870172 0.36372882202079293 0.2556987804930435 -1.3299195652353613
Ni 4.338618772119495 1.5359418713979767 11.037897310628585 -0.16078419330132954 0.6207969720575373 1.4565309693097237
Ni 2.1717184982944464 5.489661453442079 11.988222470285947 -1.5142188109394954 1.382309391690987 -1.4022914912398687
Ni 8.161641725400521 5.631826555657032 6.4365075985491025 0.6419939178501266 0.948831168890198 -0.061877968451719244
Ni 2.4606379241296152 7.050931063733377 0.2417814351136387 1.862897166385069 -0.7117237782460968 1.8390910651044068
Ni 4.012280245604682 5.987239311194413 2.0857974646432846 -0.07548296082966355 2.0537740653067207 -0.14790656600771301
Ni 2.8415249805213643 1.5768143382847755 3.756455426586034 0.9277650922485183 0.3849136836285242 1.2293626921562053
Ni 6.463474083369373 3.2355934532847184 12.241167346770036 -1.6113273204587348 1.1052138906897222 -0.3896985066116772
Ni 1.855190463047173 6.0178066401951416 7.266145395370597 -0.3180048376211168 2.048198370991156 -1.143181113962115
Ni 0.3440825999362426 1.6346055515498616 3.9879500440587323 -0.08642300478093504 -1.0630033187599435 -0.1319086479175599
Ni 3.8536727233848427 7.301689418961104 4.122674378713813 0.7981203006644707 -0.22577139680599184 0.48320335794005814
P 4.917300355065849 5.057587632154895 9.486949326443977 0.30477599763566865 1.0801032116650235 -0.5245410403465804
Ni 3.5119726713278596 3.837578388037441 2.6177248660035985 -0.650274412691364 -0.830728316507479 0.41210669910354836
P 5.983795105109825 7.162189912412682 2.703836430204121 -1.2854006568873797 -0.8493665004339566 -0.29652738447363125
Ni 0.7170314941128189 6.310252713217988 4.821542265791708 0.7704377471475377 -0.13155794944636054 -0.10825115639962002
P 7.8748199676328285 7.876752753494126 5.421749220754486 -1.3598963141031095 -0.2043718480842932 1.7293476404299766
P 1.917002970118468 5.173673865426164 2.8108083415228204 -0.9026248455374649 0.9329574350827352 1.2078014210456618
P 8.59197512340028 2.1862372925606 11.849811186298293 1.0281867253013905 -0.45671996693754896 -1.1578950231335219
Ni 7.117818278705902 1.206681265784802 4.283515138815096 1.465920380944424 0.9252978616549483 -1.2668007823980054
Ni 1.3059128735357417 8.053204194471359 12.12168637207603 -1.7788719724123492 0.777384610779016 -1.5782984150282238
Ni 5.504061166114882 8.921519692812982 4.6591992455897 -0.6759985569303454 -0.7418115987704128 -0.9514022720514841
Ni 1.8341679817595882 1.1418275980217956 11.204730622912152 -1.276031299857338 1.0835217504282693 -0.4446612360008019
Ni 3.1688619603958057 5.364625780424418 5.331883838326665 0.2744182112794177 -0.9986282949179834 -0.919076820445901
Ni 8.426634911094874 6.972034928077617 8.775412073845883 0.07089714123119403 0.5601333356288934 0.5907960548200728
Ni 0.9884688260319285 0.76057963280097 7.905566835035837 0.6635467043202378 -0.1102977545160036 0.8133396887173865
Ni 7.078667914861397 2.483602351401064 7.611610257801958 -1.7417766102219487 1.1539311533897676 0.14511563352613716
Ni 7.708133217310309 7.868462842572442 11.64046391316421 -0.7840201138176627 -2.823445366601879 0.5956567253464838
Ni 6.2452799638616305 0.025837957720213706 2.247336226084051 -1.4293058150451834 0.6729991079823894 0.32122205900683387
Ni 7.862866007684986 4.586116123713941 8.43190381359449 -1.995274012188299 -0.7808484009579003 0.2301643836673649
Ni 2.8099225576707463 5.811309997203409 9.43399190985665 0.9409772200634182 -0.3195318157886045 0.9399320666283554
Ni 4.666825963637649 6.579853440562736 11.645102599231327 -1.206015789900149 -1.8854449697785982 -0.847635890896095
Ni 6.287077603127535 6.4707105801960365 8.136847105640506 1.1000799118972668 -0.7596743379834465 0.19221104435204317
Ni 1.3505593109194838 4.8844338353012065 0.7281335626620794 0.9518337031619478 -1.1193734700195561 1.4738252376137972
Ni 4.64708589950922 3.1019381049330197 7.817390579209075 0.7760453231423021 0.9545526447550078 0.21144289599846164
Ni 7.22280244342791 5.121076441655657 1.7391930829647886 -0.1283139885877661 0.38126246002918207 -0.8154418226620538
Ni 1.3836365135031303 8.115502188038619 9.444194454369988 0.5637184818769904 -0.6582216925628986 0.053332649984869446
Ni 3.758535690420635 8.677145943013334 2.103173301137585 0.10838279688147787 -0.37350029958525993 0.6924646729061688
Ni 6.766976424328654 1.2185619447521214 10.982862378243427 -2.369962675654705 -0.08703801265711462 0.38699807696137867
Ni 0.15040921252380934 3.0498170075359137 7.242562659825984 1.5826204394423453 1.834076385498635 0.6639038305493405
Ni 5.516903657951568 5.075770475447207 3.6134448450582948 -0.8548095258263988 -0.7131093457397139 0.6632775098192513
Ni 3.3404676965359426 8.568030563014334 11.024048121321963 0.760295002286581 -1.7318320974147272 -0.19900647000732177
Ni 4.4284887346085995 5.694381032656124 7.3354710349700305 -2.2920579927574267 -0.6983712681985909 0.10901323137662516
Ni 8.792114641331626 4.447789112853889 12.23984004501031 -0.34231744622455235 -0.9620507529042656 -1.5484178254187073
P 3.149021134919157 0.4037168298614864 9.16306846081346 -0.66286716175471 0.5277675177036781 -0.6576917882013577
Ni 2.122656881834183 3.190553130630664 12.784986419244746 -0.13120159454820632 -0.9935755629854245 0.019754042698475655
P 4.209012197941701 2.794964077521454 12.9779764615138 0.49790338315439414 -0.05900938865467257 -0.3566153509044633
Ni 8.608472504140558 1.1949013481657025 6.147363749711082 -1.116300230410871 -1.5480205899802888 -0.39671427580787805
P 5.5803833073297655 8.381805271259823 11.431144120397825 0.5844765403599482 1.8190002078918028 0.014385836408026837
P 8.383948739940127 3.6620979200521417 5.410877071281617 -0.5732590743775741 -0.13652043565795843 -0.4044430119107035
P 0.2789009997853947 6.640704134764664 10.750804413232958 -0.038964811298971606 -0.7597463288719626 0.2545363847538261
Ni 3.1177667967260247 0.1400958305274295 13.127153637552563 -0.5510632550068251 0.7771807222983261 0.4259806288721632
Ni 1.3869982784846309 3.761906615524701 10.598664853556544 0.7109712163507885 0.23486564579777616 1.7260581710454272
Ni 5.499178820787526 1.1556319027278479 0.24807169127929643 -0.41928290513701344 0.17129923390004048 -0.7322900324332228
Ni 8.629449184815316 0.28849256412362123 10.477909705813692 3.369963682550499 0.03053699224659257 -1.532308835671987
Ni 2.6013374067341046 3.8524910675739066 7.289017305404135 -0.937863871245417 0.3195500706210497 -1.0601758766134775
Ni 6.495113146710253 5.737424448590922 12.85401801890983 0.6744584661367352 -0.22431640952702012 0.6500988063454481
Ni 1.8656971236296829 8.780682808370011 5.436175497782729 -0.056551156922167126 0.24090002491731416 0.19826264986276176
Ni 5.488598879224494 3.691611834957849 1.1368142629417541 0.054417141298299825 -0.36191953672619603 -0.18019345106587675
Ni 3.75530216715505 4.045513170271939 11.057216009119008 0.6978215663427079 -0.5826459149091127 0.022625193598683615
Ni 0.7039563351629721 5.103983652948628 8.999398138851726 0.061471991262552206 -0.21685892480771038 0.057070776871062996
Ni 1.3132409715880589 3.705553541502382 4.595557462042095 1.7868981851509356 1.326151870662813 0.5176476556608569
Ni 5.324953289593687 2.5326731279838928 3.1790791611052485 -0.3193096724754695 -1.3285321979695313 1.3116806736298312
Ni 5.461750559985316 8.786151401541552 6.938242319921614 -0.45313919156482607 -0.5502402448848975 0.8811329942122761
Ni 0.8440897221929197 2.7801429992106432 1.990542266097984 1.6881148590324349 -0.7413156329706008 -1.0128935465877458
Ni 7.637719355150107 0.35170565393516545 13.19408024105212 0.4293850265680218 0.3833283414192753 -0.04318939090328046
Ni 7.944867424890415 2.7822589875232495 0.367650679284751 1.019772018875134 0.1653144770715153 2.4562113596413058
Ni 1.715718436866447 1.910664165303214 5.948099023484731 0.3161287036443265 0.3803648879155772 -0.48654887737352337
Ni 6.517399724911862 8.522010107245782 9.078967543516042 2.147380989430605 0.14087357042033158 1.4691594567070116
Ni 3.4814053423271316 1.005048647875296 6.957722236569186 0.3555064341110007 -0.6801231206216802 1.2148351879639916
Ni 1.8106264667665195 7.933582153889846 3.2822578656696173 -0.13578124349908874 -1.037717290499645 -0.5155339517519637
Ni 5.2085739324003235 1.1608165320998622 8.948090460338427 -0.49066624197600656 0.3050027689344941 -1.0296494258898459
Ni 2.2282272944003774 2.4410077814719706 9.016491843571012 1.227482444414357 -0.7177494156148865 -0.1220160713941963
Ni 5.558490614398468 1.7960252313972775 5.934598834847849 -0.4812940567324872 1.0056160390897262 -0.41428802302558326
Ni 7.669211856529939 7.544185343634845 1.1928201683188444 -2.1352849774980194 -0.03537323729297133 -0.5213035072458893
Ni 3.3883476571852693 1.6923143237118592 1.4159827383060584 0.041810251167566696 1.9939439805229657 -0.1704641395932548
P 3.7168204922578196 3.027063263083469 5.459972580195372 -0.0326398975222083 0.14891880932231127 0.04574661010749541
Ni 6.1705974845859535 4.393313863957477 6.198068692159578 -0.03278567907145321 -0.9232124398808295 -0.6401170125423878
P 1.6886044740728738 0.6060566092330412 2.2828775016377887 -0.8958142503735346 1.0962523106210604 -0.6708686919029478
Ni 8.87110237821304 4.231353736878702 3.1619323276750833 -2.3012034067021205 0.08321272537375347 1.2242351411216528
P 3.4287437976986674 7.6009323029274745 6.259203350161033 1.0156173732768121 -0.6600548891168955 0.5671555325829973
P 7.244502773785334 2.9070473372316448 2.3843395992334027 0.472095935172987 -0.5602369510862932 0.7435267816893066
P 8.022728466696284 0.9022491723851347 8.431447639490735 0.43514455475961833 -2.0165432059797204 0.47493648994557564
Ni 3.892181878649769 5.036794153931446 13.453018585730748 0.45375059989657984 -0.383575681543391 -0.8054080925751355
