# total energy = -340898.128626915 ev
CRYSTAL
PRIMVEC
9.04080508571782 0.00000000000000 0.00000000000000

0.00000000000000 9.04080508571782 0.00000000000000

0.00000000000000 0.00000000000000 13.23213210153896

PRIMCOORD
 96 1
Ni 6.361942346270897 2.1112721336857656 11.371601722983177 0.6092704594751764 -0.2736116562177223 0.7655027717397654
Ni 4.469493863485157 0.4576121120910166 6.077809726218185 1.296090275390742 -0.7902894917661422 0.10773359333325316
Ni 2.739445365871998 1.3855757349874451 4.870999642113917 -0.6757661292045652 0.614264056035026 -1.2243721809201495
Ni 3.5103548317555373 4.3445589753762714 5.0114847152975015 0.0968367439150913 0.25706197938915726 -0.26721423733181077
Ni 4.921271943931579 4.610955343638549 2.3559678570440874 0.7127036256608629 -0.07977978843280453 0.5120310808050278
Ni 7.331939385136979 6.145396978300421 2.7010888454080897 -0.36812000910995313 0.1997621172264237 -0.9371946130925344
Ni 4.984286356705218 4.658645591469389 11.449207995472262 0.6793073095886043 -0.28412669681643327 -0.4644852127052646
Ni 5.562771323094617 7.989169765480239 12.468651910634307 -0.33066109293254664 -0.062418928556853784 -0.5394943192223032
Ni 1.8764824206683444 6.461608183633395 0.4519209251697818 -0.7226077721484523 -0.16576801966916613 -0.931649514904589
Ni 2.8631687860739006 1.729026886616972 0.4716398255572403 -0.294707300545757 -0.7612738212600825 -0.4497895583663028
Ni 0.4671926534419816 0.03124502303381624 4.890714926179265 0.6099898541397042 -0.28459180937830986 -0.2962805585701478
Ni 8.575529273265024 2.2938511962343533 1.219936429284477 0.305962304634286 0.484476568225527 0.8752742214386539
Ni 6.750913952465027 0.7396789081381645 4.848001641652857 -0.2274600973623244 -0.8980734787213566 -0.41030049913274497
Ni 0.716471160994702 7.261213165462921 2.55578592709293 0.5647687775183757 -0.2497078530169312 0.15345217841629055
Ni 7.650618730310297 3.994941994548521 3.685003299916028 -0.42018819056010215 -1.2900643809116363 0.15412040812790875
Ni 7.5550483777378235 3.8901590613998143 12.707478343207459 0.4694286727534689 -0.29217759214536776 -0.6797703652679519
Ni 7.9292925121373665 8.74934779550118 6.893305731481318 -0.32871476783945325 0.5957523703840837 0.3794650018091271
Ni 6.748572383898545 0.791263030801372 0.40425870383529805 0.39826182280065603 -0.005021878694623609 -0.3479443054930266
Ni 1.8232592000086 6.649991443169167 9.101153555286247 0.18270516174413695 -0.8158046053181112 0.05388518005422978
Ni 0.17891301600917436 4.794492731546392 1.4194633854034326 -0.42921661931095756 -0.2601907548261261 0.17623549485939324
Ni 6.545235632436288 1.8613390718310638 7.013268176688409 -0.30807446588128234 0.34351223786360197 0.8797217156870463
Ni 3.3114299932679625 4.405937002394958 0.29898937536274317 0.4425804422123732 0.04879593845678048 0.12206929322963493
Ni 5.9137715471295955 5.611953303795995 4.706153215033653 -0.07319185080264169 -0.03647495499758234 0.5163492485644074
Ni 5.316689644287487 2.9440568708781703 9.302374758313924 0.9822807067978953 -0.8297065601111839 -0.07538628735079919
P 0.11764799905643832 5.483917419477446 12.408035119419859 1.1669435064890354 0.8545614143713347 0.15564892895729324
P 3.940543469202898 6.262430202598091 12.475492183906121 0.06009670818158037 0.06590483022292522 1.104024755477628
P 2.312131704502402 8.371912256839211 1.5164820749811205 -0.013746145941498906 0.35045215951654485 -1.4751290440268854
P 6.184823930109006 7.78092385675312 5.847808927755456 0.835946884593941 -0.6585561930841819 -0.541919383724028
P 4.668192681840832 1.1406241568398128 12.623481125468777 0.5697801146900381 -0.7275854278687018 -0.4471194677333074
P 3.9279405866481705 6.163731731400126 8.192688237128543 0.298798182785679 0.3682904732495464 -0.7167626262215849
P 4.663500503902594 0.9736404833923051 3.7084768467346043 0.5051276688169752 -0.15642925876674352 0.28172965733916644
P 0.25339297803382277 5.426951305433442 3.630936572124034 -0.06476043220583685 1.088607649591609 0.449746106722877
Ni 1.3467816395481782 1.0347653678632633 2.4362203732374548 -0.07127072252052886 0.692307321392698 0.9468053967094211
Ni 1.8019861851941992 6.553444683626886 4.800088085931701 0.22322394779378976 -0.6305756487108559 -0.006733976289723887
Ni 6.008564390448335 5.683131563733853 9.271609802040263 -0.5249313338064636 0.5146104114964299 0.1266967646993173
Ni 8.655314379825624 2.495434031473069 10.198017502348694 0.08087404993824782 -0.3580747090588091 0.5771414401511157
Ni 2.3036152659324207 5.068239274498048 6.999838060450927 0.09903349445609397 0.7737310731868289 0.21782206005192808
Ni 0.6959259310050182 -0.1091559706607023 8.988110942437398 -0.45810759131369494 0.4910652771866381 0.5835727975987562
Ni 1.5597106854082594 1.2250019924806135 11.585168145615215 -0.28300441028653195 -0.20595590474196143 -0.9520676735496247
Ni 3.971553431299539 6.827995858248104 1.6245748469413666 0.910451283560419 0.2082760682347058 -0.31346092700417627
Ni 5.6356492544243615 8.034464199912941 7.984493860991497 -0.4894681079028474 -0.2604036421678806 0.5988019558436848
Ni 5.252454722801589 2.7497699654971774 4.979000197860348 -0.2918729164207554 -0.06180674889415163 -0.30376966785834136
Ni 0.7898011325882447 7.459731167713077 6.97148157470279 0.3485171472773611 -0.861200516954407 -0.12634400934558884
Ni 5.312756893992432 4.377151078396211 7.299744173468657 -0.8282983669097477 0.14607825454972262 -0.8171415789619798
Ni 8.17004915663694 7.014733691223646 9.094286159598607 0.2627055508281798 0.7150201896091815 0.057770116930932765
Ni 4.7626690969749115 0.4747200279147696 10.433139012919744 -0.36265435800969154 -0.8052774805345421 -0.1379635958623882
Ni 8.2807990212678 7.055137050002039 4.980852658861398 -0.7739362472190994 -0.4487346347392272 -0.48025790215848907
Ni 7.120700969863508 5.949338075085334 6.9901915212214485 0.5949383591232206 0.8905815412196856 -0.5523917440102616
Ni 2.423704282413376 5.132492277594497 2.655265523866742 -0.8567561080298083 -0.08766536182846837 -0.27407342634548926
Ni 2.4118517866965554 5.183717480288249 11.247140573070753 -0.5749117794896486 0.030670946721295562 0.3244030278379768
Ni 1.0401446470024764 3.382798110116616 3.769464310965368 -0.1173042677408238 -1.1647423850726586 -0.9069874933815347
Ni 3.553262493595379 2.70662724272016 2.964593060062578 0.047652054660324385 0.1489674031720596 -0.5023825019716702
Ni 1.1116664575408215 3.2555758982729053 8.086843913440436 -0.4387816372915733 0.9280219454543307 0.7256244474875889
Ni 3.580909276129352 2.675318934049412 6.977264073757312 0.307035997314439 0.44605503102453503 0.35202927419567764
Ni 4.011233525655852 6.96999074591278 6.024708556429667 0.9278558521901117 -1.0584761203135513 -0.20406974346284207
Ni 1.0102014999284026 7.434724300319692 11.314822753608388 -0.31596055349757846 -0.6750850439771405 0.5266079501779383
P 0.2663674376853939 5.456541861101753 7.977255792287541 -0.08436740780348696 0.4095782762547398 -0.6651806403792351
P 8.602534158624403 1.6764636447423749 8.128617858298668 -0.4019801521925077 -0.8685320176188139 -0.9691182012740085
P 1.817852798453559 3.1616600130659376 10.285746764505303 -0.2576170805616789 0.8427276549612003 0.2724538884641953
P 3.9591042424345027 6.078585427310866 3.79660300024283 0.5575874292785882 1.0310666179523469 0.048535742816858345
P 6.971708498915217 4.0531195764995065 10.494100258815205 -0.44089328431793745 0.4140208854071256 -0.6625126066287688
P 6.3479833429247705 7.798282202883018 10.256239384245532 -0.4351054739915668 -0.10043011769330445 -0.35683903687949514
P 2.454614795651981 8.432874406815202 5.755170508333984 -1.4935736238853181 0.8321581069754701 0.4258793274076085
P 6.868209360115701 3.857413264690184 1.5431045342773237 0.11863661339900215 0.8582684309092767 0.5872962691969305
Ni 5.161205875151038 2.9153432733216307 0.5233505194943117 0.33005456969679936 0.12333170488182632 -0.23893158833703368
Ni 1.5430665628951645 1.2239532590685986 7.006493901295111 -0.6344976094730814 -1.0488231706048197 -0.5105526964872884
Ni 7.026956859956782 0.6770921254540788 9.338326424574419 -0.16932308401027615 0.12284859459782067 -0.6882398361915437
Ni 2.827159258659639 1.5792840288307746 9.186090112693105 0.04726304675202183 -0.4418913865651486 -0.09489196148389464
Ni 6.400899176205131 1.9507255135947619 2.6320695297701384 0.16121022509515462 -0.07209990329004357 0.03354723982782609
Ni 3.941944794020676 6.931874710869212 10.350808919673954 0.9808881973257428 0.6266603728168497 -0.21219545789377
Ni 8.26835887320804 7.112636571557326 0.3888712532555656 -0.3195233311481723 -0.2942804974209835 0.057524319468713836
Ni 7.608099823097324 3.940814693361178 8.229340565797928 0.4459979525343545 -0.7093035988403784 0.3132858348788927
Ni 3.0441747485044663 8.34496161631149 12.509194497813949 0.371984634271682 0.5605195153237185 0.2120604749778025
Ni 0.21222928753171957 4.877252263042791 10.12537282379507 -0.24539739856703544 0.06031628039155418 0.42938091280296375
Ni 8.54063176489971 2.158826769437465 5.712060332455961 0.7840193424867142 0.7939070339140715 0.03150038460112639
Ni 3.652313556199109 2.7024413498773776 11.338574757229463 0.24206936263506698 -0.12190577106857715 0.480287984065476
Ni 1.1629007010398482 3.5165929873959696 12.573860665711512 -0.5400388788718634 -0.4811341341158552 0.11071067368370612
Ni 3.0083098739746204 8.41775818039375 7.899807733890786 0.9537869702335768 -0.13293940317491942 0.7137042990112353
Ni 5.6440029584993745 7.890832926493312 3.5510411677390685 -0.4477136496738806 -0.06455705794577915 0.050384623100139025
Ni 3.054020185450018 8.342927435124393 3.5324369986421393 0.6141095327350327 -0.3659194019142085 0.5669693847141204
Ni 3.556173632894247 4.338772859999639 9.225363370812 -1.104527663255975 0.11424208387573229 -0.12285605079698841
Ni 7.3183239323913405 6.2101472256870505 11.412502326051749 -0.11321647082469534 -0.9509623563005881 -0.031885278744370894
Ni 0.4749279664361173 0.03515155499357087 0.3031761722860534 0.5680093959428604 0.08970913173137453 -0.021679284745646534
Ni 4.529696585817965 0.256211901118876 1.58175578499323 0.10380983279881476 -0.16008716723430494 -0.20281607356139908
Ni 5.973829616577987 5.647836259936393 0.24844765754785708 -0.14509043671515656 0.6707059410728384 0.9291380613366449
Ni 8.056008438885621 8.64641822743405 11.374076191387216 -0.2405542115421212 1.091828727632068 0.533323671635217
Ni 0.05583601338450496 4.606317410531967 5.838268165947706 -0.29293992423268905 0.5067178961222306 0.10732993013693126
Ni 7.974424212075102 8.62016372891258 2.687618045546867 -0.9664864200781161 0.6423962954948678 -0.4981247551365809
P 8.462690982615412 1.4682900624574637 3.5603965930386616 -0.003954870882689963 1.0822868495799038 -0.17877805877558886
P 1.9016068185303163 3.2287699106295995 1.595119903352196 -1.0349047607515145 0.1493589821835234 0.022559373357754695
P 4.785370559022919 1.1414649517304798 8.164225973958676 0.13416093428684636 -0.20379155010079095 0.3906475007885079
P 8.54878657125865 1.7042822025765916 12.339108924076253 -0.6766464749269895 -0.778512553735872 0.08260568791737387
P 6.359989532331284 7.822168010422179 1.306159493282107 -0.08638983755015445 -0.853662042485517 0.8566915733404601
P 1.8005215747394892 3.158938730677865 5.754019613822352 -0.15255846295742756 -0.17256730197918668 1.4799398351519675
P 6.908477106814955 3.828455565391193 5.84612824205465 0.32709677262005604 0.6550438090555494 0.5476274898523987
P 2.5215709995259514 8.632224163150749 10.254413141579782 -0.3980774747039918 0.4265287880661493 -0.17059063786879006
