# total energy = -340870.9934811836 ev
CRYSTAL
PRIMVEC
9.20810548262176 0.00000000000000 0.00000000000000
0.00000000000000 9.20810548262176 0.00000000000000
0.00000000000000 0.00000000000000 13.47699314338367
PRIMCOORD
 96 1
Ni 6.083417559840555 1.1054606511249194 8.953952268524906 1.942151678442023 -0.6629892891548711 -0.5289060021834955
Ni 0.1303904525850192 5.101106107387428 6.4188494945120205 0.32718213324501066 2.904361325521656 -2.32137293967146
Ni 7.951714476463153 8.217128900159558 8.124106780014339 -1.2661888598456192 1.0028436185509118 1.7702276664737902
Ni 5.714660571713647 5.513960711219376 10.294171719582351 -0.7049890306254246 0.2971688747123721 1.0545382187117258
Ni 1.9679194065605463 7.669835960705646 9.85028027643209 1.0159791274916052 -1.2332897951247532 -0.4234007839601289
Ni 5.650903651450189 8.931806775568 0.6872147017103232 -0.028555957260821788 0.22152676259702495 -1.0203605443887522
Ni 6.262146881376332 4.305617900922934 8.402581059286952 0.48426625198693374 -1.7481262065890601 -0.09746023643170311
Ni 2.9723763519705795 0.304165813534179 10.922873516928991 0.034054004260915545 1.185573462885397 0.46316135168751843
Ni 0.8453795619485297 8.457690647976262 11.955143544033968 -1.7935182615706142 0.7386576265224635 -1.5210659157683157
Ni 8.123160186801877 2.1830391597660506 13.167467018199543 0.41420471928315755 -0.3706872556164971 0.3020938228178152
Ni 3.240175674908499 5.491907299314266 3.002714296105764 0.6884905187497691 0.6247706119933046 1.1553660860640813
Ni 6.907193065416739 3.840645421774526 1.060447749765028 -0.3318625694398155 1.0446764954262975 0.05563584419674934
Ni 1.4501476523123875 0.03295580843774072 4.315157497888986 -1.273985987292535 1.5289975119105668 0.6847945579554207
Ni 7.234614869392481 6.7554066596364315 6.398242675930624 -0.3129328224148482 -0.09180535213877092 1.200629328777255
Ni 4.706142851919416 2.876869885047906 9.512479096297916 -1.034294123750709 1.4136143724518555 0.12731048702391623
Ni 6.887174644756317 4.075562601116141 12.225357232149973 0.8624027647926246 0.5518140171299206 -1.3064006561778145
Ni 8.822350029298253 7.717893061637908 2.859373564396174 0.3920091570227249 -0.5801036081032332 -0.21046073459085043
Ni 7.6603331961603125 5.752616381263904 4.489374847886766 0.1917050512499021 0.2697097500601549 -1.5394976401109421
Ni 7.8301951124081475 6.201668046556807 11.645388410655777 0.6351013044953513 1.1159428470714523 -0.38751769691027455
Ni 3.1894942640000536 1.0095029870484467 5.786117309528276 -1.1538277950426838 0.9324128754331749 0.8098234480340119
Ni 4.184448444864754 1.1840978693585897 7.786278896375145 0.14100392535060877 0.08306360139039888 0.1807747774906435
Ni 4.348601335901245 7.8775155649260435 6.62589650190658 -0.33938870261353166 2.2184182557840892 0.9164278128588281
Ni 0.9364274643432468 7.643381074524693 7.601253072517566 -0.20180563001901372 -0.37021725795861404 0.2981636345254736
Ni 2.340083393603901 3.2294298161639214 2.0342573587058426 -0.34703284942235074 1.0894836244386592 -0.7595396121777952
P 1.004217534675364 7.482128736619772 0.42157007538442703 -1.122464964460686 -1.054460571396255 0.5517361127041337
P 1.4770169032264213 2.17702626708378 4.8703694077973445 -0.5157460677627698 -0.15635392544411783 0.6492901944012237
P 3.0738772953651634 2.8351940010050973 10.920123976722367 -0.765783536204978 0.05175939196047861 1.06257651563517
P 9.053270890991927 7.51023187362787 9.965440523050072 -0.5002101769106998 0.06565260500280307 0.2034881599277592
P 1.7855528834788323 5.217137440755399 4.938024118983321 1.3610103731028946 -1.5792360963511447 -0.9840367702570537
P 5.960793223163999 1.3485730440763668 6.560384516795894 0.6023081692247304 -1.3332553144768136 0.3451412888265927
P 7.261419663570258 8.666613346395904 12.476811247583608 -0.4111857299511757 -0.005424256339364852 -0.9551249723187099
P 5.307358455304989 0.9803409179446957 2.6451423933404996 0.5115351150052159 -0.34437227187105207 1.6143625077406327
Ni 9.368786614970466 3.8825791327623635 4.367407969920033 0.18446688163025005 -0.12815895106714056 -0.45440134610670124
Ni 5.815176247854016 5.747892623306776 2.4295106694870108 -0.08384830207522334 -0.7051250419826566 -0.7097887660069131
Ni 5.583260910800946 0.5267386070720403 11.17785791988848 -0.4722198623453609 0.5297161567896168 0.46208765900736554
Ni 5.000240523250235 5.806557461405923 6.9946396778757185 -0.8941126943013956 -2.6180098531397626 -1.7270555019616902
Ni 0.12673115158665144 3.069015415830342 9.697639358491116 -1.058231608402913 0.4547577010048555 -0.6812150681342783
Ni 5.574688164878751 2.3878458351704173 4.748578404639542 0.01158539084475424 -2.6814662218221947 -0.4488220522467109
Ni 1.0648344910725829 0.8691815930272432 2.352139565715534 -1.1023561095259533 0.9301693308146368 -1.2145724212209084
Ni 4.559117036516956 4.3317873358433205 12.100587406966573 -1.5244361177921293 -0.3674191263881866 -0.013248637479790085
Ni 2.379641413455406 7.947607661553058 2.186898276646815 0.0012248735460366 -0.93369894123445 0.14147546567038863
Ni 6.58768102379026 7.795066191148024 10.440639523810928 0.5467332601729036 -0.21607833788794398 -1.0172068292511192
Ni 6.21228499182887 7.975268809512536 2.7559914051134005 0.620296635382351 1.1866805799066464 0.6960670455454465
Ni 8.21063718600795 2.063748157164505 5.1251521532534 0.8360731257591603 -2.7997102277684687 -2.762922626626474
Ni 1.088048124230321 0.6962220701969949 6.824843139174659 -0.4132130447938497 0.30205088539502173 -0.12982322614344094
Ni 6.903749234079573 8.78540711131775 5.182173344577991 -0.732696523843022 0.8675051190161962 -0.900373587609443
Ni 4.75551671189236 3.598785331127502 2.984641548069789 -1.4906595355623167 -0.4866689478911554 -1.6662905640684913
Ni 5.713380645093685 2.2247887086502964 12.965351871939168 0.41099598253787284 -0.08564498896432991 -0.9447742252120052
Ni 4.511999162313011 8.366088417649733 9.229799475389784 0.01906575838219942 -0.9505239832115889 0.36612997526311786
Ni 2.5022657501319614 5.440028834732474 0.749706428322106 0.3161086490396685 -0.35913888865726534 -0.05862680850427322
Ni 0.6998307266168748 2.135018891254506 11.659054159552802 0.8231330206587243 -1.9360021139008592 0.2891514037245343
Ni 5.584255386160341 6.6348173142045646 12.621081997916335 -1.4897933309072795 0.15532805528276475 -0.3964185989443302
Ni 7.073067872121813 3.70553489447445 3.4679271067993596 1.2621938797536132 0.35717508006267523 -0.19426766977075574
Ni 1.141712961216952 7.155461997268754 4.9889403365738465 -2.5740385897651348 -0.29997651936449626 0.6163813594883449
Ni 1.0805527266141375 5.0441539768516845 8.498268005071147 1.1405426478980034 0.962971207836006 0.8105274160795718
Ni 9.099983608567971 3.46249616636444 1.986063977816922 0.16002777475127922 -0.5987610753034204 -0.03880026069664931
P 3.0209583148980785 7.912856272605297 4.4169365260599935 2.0997230212330096 -0.8318122936002772 -0.16256288246830713
P 4.764844522439281 4.152468695576049 0.821979004255646 -0.988828535218742 -0.1297643478810475 -0.2475267862052124
P 0.9855527054763417 2.1619986394306947 0.6242552033554172 0.12059476556663747 0.26152361470493674 -1.5114330206642421
P 5.4186015739795765 4.525314082402693 4.838334409877563 0.031591401653035915 2.0623443234742354 0.21324266821136179
P 4.3920728004540734 6.969485896956642 1.1810011835866947 1.3109805622390132 -0.1253335658032035 1.93200404848506
P 3.3610688878112924 4.4817689530084275 8.015104914140464 -0.4766048787869341 0.05505348933071809 -0.14535500323045292
P 9.062294834067922 4.542717401192112 11.725199662299845 0.5140612238611791 -2.3141769361436535 -1.869523413452335
P 3.803435468743816 6.914163601037686 10.995770402393708 0.429215333759377 -0.47992340163720576 0.02832687196915121
Ni 8.249071817027545 -0.11612157279873167 0.8412174984073565 1.5315459893640335 1.1631871247703969 0.09888668446558453
Ni 4.742128126961241 -0.03753407833303122 4.744184296847843 1.0657083763959323 0.7344402460070061 -2.701825245094521
Ni 7.9218433832605735 5.638150425776462 8.892200873569562 2.2575203639918735 2.1277866122384452 1.3297529577505098
Ni 4.950820622751394 3.2563266913934936 6.8415282257600705 -1.2231622197724483 0.8012200226357169 0.6769377809151631
Ni 2.38332465552724 1.9838402204160517 9.063681574707967 0.6964779078306199 1.6233932504843331 0.0475821206543374
Ni 1.8376155101642153 3.957183200927375 12.407135357310711 1.2277179574639308 -0.14959706633625847 0.5882843441418126
Ni 0.017461329852050216 5.102321577271134 0.24358753117871415 -0.10545482460140547 1.1918675234242246 1.073191572146855
Ni 2.564475708725249 6.335747266076768 6.733415862846543 0.6351966924226351 -1.799369578145069 -0.044031941409233846
Ni 3.2378552324032435 3.503858974831143 5.190771873194689 -0.23318748676440484 1.241070724621753 -0.11305474843585045
Ni 8.048206210640043 1.6035823089198402 7.2498809869697185 -0.2042440642571773 -0.21271482073234982 2.303799449564071
Ni 2.695378131958253 5.143279229109934 10.118377941977826 1.715627976851039 -1.1063387483227851 0.1931135015616545
Ni 3.0900559361656974 7.426815648805994 13.134798502643404 0.937649955462398 0.7736971346250998 -2.2346689133149966
Ni 0.7925867325224053 0.5798905526001685 9.39148275261711 -1.9423553098123971 -1.7031342152594022 0.18428973262243745
Ni 7.273730900195366 3.830682251970213 5.978232453563618 -1.0405964118196531 1.4826811453425306 1.1418068593224076
Ni 4.245820465886699 1.935156968331577 1.1083234510252529 -1.5787409018822811 -0.5028769251095856 0.27786811750123114
Ni 1.5882047732699305 3.1305163503248012 7.081620360212613 0.1218108973619257 -0.05538773274168526 -0.38723384712126857
Ni 2.0397886674872203 0.2144392742327325 0.16324681348682038 0.579647494402421 2.4813348941818107 0.6868802368398557
Ni 7.470627813250467 6.979983136861371 0.4820424645303267 0.05186429296945906 -1.297571745032275 1.2567760511721517
Ni 3.174116728350144 1.7309672359742425 3.525649034928117 0.8860147477846096 -0.9381222671131264 -0.8733857461666894
Ni 1.3751292194142948 6.201281306139265 11.760009983120755 -0.5847771023195025 0.15827068285085644 0.48984400318502735
Ni 4.951262611800014 6.7876166115546255 4.535601377509328 0.34521456526668937 -1.0488799919846838 0.5366077417031274
Ni 7.425867213972497 1.7848438593800042 2.07455386859275 -1.1652121256202255 -0.8808661137041345 0.0982919883043791
Ni 0.9332967085821873 5.468408214895961 2.7220291507795307 0.7374798041642783 0.8054417740265483 0.35343952427964287
Ni 7.8787494510201075 0.6972119415038004 10.605247295243291 1.0138667091342926 0.6988803466245254 0.5026630093265665
P 8.648086638774576 8.536309449999573 6.081371518869651 3.0720229626691093 -0.583880301536846 1.3874078892598172
P 4.132551564072603 0.5069319728307494 12.736822355160633 -0.8700124588190823 0.48255081195772376 1.226174781346527
P 6.691483993479741 2.698186604038027 10.43643510298593 0.41000430804856486 -0.27940949384642205 0.5651570140957299
P 8.561235790720714 3.8824410111846697 7.769000807816169 -1.2284458367688906 -2.6538582302969393 1.7932801774178793
P 6.087505958540292 6.695167235551576 8.450344421663987 0.25180330209337926 1.773610981123726 0.5242065398252972
P 2.6774223268580593 8.990904394610586 8.182677695440653 -1.0712568170179875 -0.9842365449726856 -0.32402404723200323
P 8.244790048119038 0.45392459455394074 3.4957024352630652 0.05493650413687958 -0.1572476409029808 0.007172092268407003
P 8.091788172455026 5.586014134249641 2.2611432287098228 -1.381871275712304 -0.07395084045585329 -0.31597109502053966
