# total energy = -340886.7870387206 ev
CRYSTAL
PRIMVEC
9.12526417292895 0.00000000000000 0.00000000000000

0.00000000000000 9.12526417292895 0.00000000000000

0.00000000000000 0.00000000000000 13.35574651292509

PRIMCOORD
 96 1
Ni 6.290710671278764 2.4156034049175545 11.057088867544781 2.4755260008095172 -2.467095867764293 3.260719566109991
Ni 4.8261057872171005 0.710875409455971 5.5847857175835625 -0.5439886075482309 -0.8705379923052491 1.0075942458620195
Ni 3.0443979765439537 2.093773591515145 4.352210748213566 0.3543047004934156 -0.8094861192992511 0.3369883207021551
Ni 4.001245791672016 4.5187486426378785 4.527838318183136 -0.41399466015488057 1.0976373638940453 0.2362571268286641
Ni 4.657032894432711 3.113311970839491 2.36456854052446 -2.0069802448816336 -0.2744431509800822 -0.8170916995606509
Ni 5.442672504982797 5.232444671219478 2.5914819196491914 -0.7328567035699701 0.17222123149367757 -0.08936151858396868
Ni 5.766765383875844 3.09841041460477 0.10612043350914836 0.09302431214753656 0.25287108123626123 0.32438374456426716
Ni 5.976564330227631 8.38119004246278 12.506868847589956 -0.9478320382017226 -0.8316233175179226 -0.5431851378103291
Ni 1.9386623527657356 6.7065398299193 0.14063309476777527 1.5367655858917597 0.8977675174451636 0.5942122795904734
Ni 0.9026601719970028 0.11253914425960926 13.600022557261356 -1.7377870294465811 -0.10419369850079474 -0.9050568520177252
Ni 8.179841090644583 -0.1623037718934428 7.075393954153776 -0.38032889247131924 0.09346602767064549 -0.1298625640218086
Ni 9.387706669951884 2.4392834651925703 1.4021260259919233 -0.864329549501692 0.9251137706686002 -0.914064454832974
Ni 7.216751594889117 0.6663267827674936 4.843514966019672 -2.158565545292515 0.4230919944704584 -0.50667675847165
Ni 0.8251985428422722 7.606947886742555 2.380728470675144 0.9152075672984818 -0.7285174527646678 -1.1052077200421353
Ni 7.70665052202765 4.100784172203758 3.7971720360009784 0.60353484254298 0.011903179195489177 -0.013337340538854449
Ni 8.250762643036653 4.186735034527601 12.297049825657203 -1.4506536845933402 -1.051705634358937 0.4376495805696592
Ni 8.742304117708713 7.276275692451325 9.248694222083857 -0.6610864157052033 0.8752755069902345 0.8342982932469244
Ni 7.490509517143634 0.6917096173189323 0.23475836865013824 0.21233763989858914 1.9921418943172207 0.4704018353000157
Ni 2.299210661639009 6.938960305913384 9.143544716672304 0.028513276948344442 0.3955382532219059 -0.39188034475434447
Ni 0.59034618397216 4.966589227654042 0.9571690244235072 -1.5172917934378642 0.33243001190751137 2.104100838585731
Ni 6.58620497256029 2.0463587193806623 6.925194845056019 -0.1044099282766589 0.10196352361869536 0.4828444319387426
Ni 3.6914522015847293 4.926164307801126 0.5147141702644972 0.8645964300098337 -0.9355568203787953 -0.8210095465578183
Ni 6.176142980815249 5.896225505310006 4.715393520825336 0.07079506843569097 0.08799857679817102 0.9785382090363277
Ni 4.8670873481786 2.9672073677322555 9.489298234900536 -1.1532097018427105 1.9957087857328726 -1.5816441915720052
P 0.5689045509747788 5.767385901832955 12.188346942414787 -0.6544239160833633 0.38531837526611057 -0.3858287392436258
P 4.455008673072952 6.486128201448113 12.49430062137925 0.10558620797294718 -0.011332908514315966 0.45954946596654406
P 2.5991033402047568 8.601072405617607 1.2062987714656002 0.33459693765184306 0.230788390404609 1.617260141003402
P 6.436322510125941 7.872858081892443 5.66861951864197 0.7541531510549012 0.6492727108997269 0.3250308912299628
P 4.961232697641929 1.2695158633990204 12.513185355382776 0.044924885537148435 -0.0676593510201867 0.990931697604674
P 4.464143062412178 6.446615808002711 7.661243207989701 -0.6597597264739798 0.014027938847975843 0.7490991335707615
P 5.0319443689602705 1.316456221801595 3.497963752240867 -0.18016928269616067 -1.6206827935317056 -0.9716821053464426
P 0.44626921454242285 5.766528127009891 3.489269200630064 -0.3040997975042505 -0.4600086649911497 0.174587417733009
Ni 0.25208907018166415 0.10077302876111013 5.099397408477376 2.905403393632925 0.6212795681209107 -0.24803252219703734
Ni 1.7906414442027183 7.2505241972312495 4.626697779067687 -0.7350475405737018 -1.6559238761221868 -0.1738788217017586
Ni 6.183114682568664 5.8230226368991485 9.01980339823404 0.4424721987692831 -0.4685015329535093 1.0392895200827714
Ni 8.820124369741595 2.796574054791015 10.149178931125343 -0.3350607646621391 -1.7113352630129561 -0.2843023031623491
Ni 2.571180032134796 5.549547597830961 6.72465804174051 -0.5844919669789159 -0.28338287667187323 0.42994809816034335
Ni 0.7445020075729009 0.1606539241486556 8.826225521302241 0.5971240539206296 0.6521011814874575 1.0858452563551233
Ni 1.421360257609526 1.2978954346727387 11.359703612384147 0.5091110789447554 0.07132600123849651 -0.2430147572674718
Ni 4.353462734444677 7.1935825494023105 1.4733122110421728 -0.10655165721001005 0.3112063266420447 -0.8512616605741404
Ni 6.056364764564822 7.927208154724039 8.01582541921064 -0.5344742402998924 1.574845680592933 -0.39977980210707925
Ni 5.67679028009486 2.9124101569609766 4.643953653433797 0.6294060538827869 1.0387087078786368 1.2188882749874428
Ni 1.3628490643596605 7.846020680247425 6.972688194461548 -0.8457618138018337 -0.4199318515749219 0.6077882185026952
Ni 5.333287964513968 4.487987377440546 7.123888345028348 -0.40381129186397546 0.3273088886308621 0.3372204913176192
Ni 1.4460805979891085 7.690653934103911 11.276389951378022 -2.151091862623289 -0.5366946449899789 0.6577419247130026
Ni 4.763031961929659 0.8052844790510713 10.373087360790128 -0.08167289169045934 -2.468737002912142 -0.20897849361836912
Ni 8.296151706546452 7.38026720185174 4.2822528237078314 -0.635344530854409 -1.4866126191864528 1.9830273336104622
Ni 7.628364881526934 6.5247006926937745 7.048602178829133 1.1245485864625924 -1.2569652843648225 -0.9587425144666392
Ni 2.6182755200266485 5.447417642301876 2.551949450622824 -0.6698088831798659 0.6464064450955255 0.3475146741547757
Ni 2.801282691053793 5.4983731168975165 11.358915189568053 -0.4231948385969099 -0.40804744143251015 -0.14954153050797472
Ni 1.2871458735922114 3.655024147396728 3.6564431259604144 -0.9763419727159572 -0.4120740460934 -1.39567604280588
Ni 1.3335204656221262 0.8875706353223338 2.6869622952467145 1.1367772673183003 -0.42980051683888565 -0.017001419654002977
Ni 1.14342296440859 3.6029736411120696 8.114577201979106 1.0941242085344642 0.5228199438904156 0.08807365301048058
Ni 3.4996117749328395 3.0856532954277096 7.164569684801777 0.7945354115266897 0.07758843720844057 0.6329076392781423
Ni 3.9455451797572967 7.297473680897899 5.6970273782343215 1.2039622498052298 0.9754222891151654 0.9227151885294368
Ni 8.44215593174886 7.338446116595325 0.24257871996254227 0.12893568133216504 -0.017752953108046844 0.2240569852180464
P 0.641807198197564 5.945857816614749 8.050563474491925 0.07049733468961408 -1.889853897479571 -1.9240775945491313
P 8.830727926596921 1.8764645528295094 7.907510359691419 -0.36975805893400837 -0.3489652905583732 1.154515822248644
P 2.263695133858523 3.472801749080047 10.191489130536187 -1.2493419634916096 1.3242651951630613 0.41808040018848
P 3.9849115689774965 6.75928385627367 3.687307506641796 -0.0401824857561566 -2.514192049921147 -0.9984755713902028
P 6.806789981048904 3.9633029436475393 9.958258331092228 1.838511538451853 2.3109422312564396 -1.3506398285018482
P 6.856759927124427 7.923740554375482 10.092389675206459 -1.0755875831828572 0.25606901934826864 0.7331891472087244
P 2.503835583260185 9.126450359480325 5.727932822604041 1.0587265457614603 -0.2064636976163154 -1.3560417162437097
P 7.454656354592368 4.026896908987264 1.4224671521418415 -0.12532790937624866 0.9883086581595303 -0.8761013453256395
Ni 2.6300379854195173 1.7052472229874596 0.26314432760870904 0.3718254829859983 -0.0342280679449346 0.44818210466986685
Ni 1.8020206485044312 1.6028252590079697 6.806849295265391 -1.2551086907720579 -0.08469136680180897 0.2355557298862653
Ni 7.194631954770952 0.7447027633825541 9.137801275463405 -0.2669933795702563 0.6092406346785055 0.42726463779090934
Ni 2.709099273366622 1.6715841238142293 9.248694222083857 0.37659050847480946 -0.6645903150934037 -1.3780729850121363
Ni 6.892467085450492 2.1977559756514853 2.4138778174809437 0.7480254408906085 -1.1624890702621076 0.1046194731843037
Ni 4.5595203225256515 7.107677313398843 10.433308628527676 0.25152922249638615 0.9225508950374305 -0.4675833920146141
Ni 7.414669447415058 6.482605849515105 11.626310977709375 0.3090265453819065 -0.5189414347716159 -1.262271269958768
Ni 7.944673910163877 4.184919106976646 8.015972335962251 -0.1544811339014372 -0.2052298252092143 0.15341926829582608
Ni 3.307625344055747 8.68489708141194 12.397151234982383 1.4777883360266033 -0.04797755632054318 0.4990279836771405
Ni 0.1473264759668982 5.017444324344857 10.118941456085924 0.8443343373266878 1.2673355718555528 0.10232939159854636
Ni 8.7188065627152 2.4341003151978846 5.819819669208769 0.13891001893605753 0.9451107826158175 -0.5031895712539979
Ni 3.649421235254586 2.824634241822103 11.709130049402626 0.5591190354317661 0.6229433289765788 0.06032373659072191
Ni 1.55405072252629 3.669259559353963 12.680612963054415 0.03070617083460518 -0.5776348348477666 -1.258260091916846
Ni 3.7625562592583024 8.678774029217514 7.901754143112814 -1.3889991450063368 0.049908454794668884 0.1295278063902092
Ni 5.661067450093375 8.086544390740244 3.3342355266252937 1.212284653627996 0.8705639604471782 0.5810739424363025
Ni 3.1798168954191883 8.785448366256023 3.5867790349578996 1.362098978181383 0.9147185434772053 -0.6487291796914311
Ni 3.6171816772770793 4.9927331092293485 9.048438476901863 0.27684661821525225 -0.703978072862407 0.2664493341413282
Ni 5.437954743455944 4.675301673111162 11.478889598996096 -0.47353986670836506 0.7884362406074873 0.14715246145050784
Ni 8.146469999921758 -0.15595988830839813 2.742108091105664 -0.4256589838666863 1.6559256758943999 -1.25925202351647
Ni 4.571109407901092 0.6327576738142372 1.271548972234964 0.9339010299429271 -0.29994798011940604 0.5913526986544912
Ni 6.20922206308767 5.774540108867873 0.30873505945456875 0.27372067099176084 -0.07089354168676823 0.005612203980454851
Ni 8.391437714019174 8.952121314588648 11.433975049218205 -0.20358046253124937 -0.1901114815105371 -0.5532571773343504
Ni 0.1673883690361167 4.864860783744264 5.622782404666082 0.36761555866970885 0.8763615409655616 0.6387746395818805
Ni 7.551521032750092 6.174317928000219 2.3606419393929228 0.9609562342885062 0.046966598557525566 -0.582984529195454
P 8.897816868077427 1.8293873154658076 3.7060188606278923 -1.3111353426493226 0.38367055525004246 -0.39273626499673653
P 2.3732256785525556 3.423461446225708 1.5348958807061412 -0.2960154778342192 0.008456615407785436 0.3136450179905244
P 4.834126894339157 1.4056465528721165 8.103946269331555 0.8452751039734023 -0.3899867272760574 -1.1789503011419245
P 8.669475385124935 1.882085715499802 12.260521393564375 0.4439266718276226 0.8275118664527104 -0.07569816216426319
P 6.673177864460549 8.287081194055752 1.3439752806730263 -0.8444081279874168 -2.360632399392715 0.3001194727002638
P 2.239166424024518 3.710341498220291 5.548711723641676 -0.8385131026592204 0.0517089983385174 1.190468586194169
P 7.021553071057572 4.128616227632967 6.032309655936318 1.7767883504104434 0.18621163223549864 -1.7660280265701453
P 2.8376012420728918 8.82576378294004 10.252364679707924 -0.21621692034833734 0.39865391603275213 -1.5216994355872568
