# total energy = -340892.380983584 ev
CRYSTAL
PRIMVEC
9.04684106371037 0.00000000000000 0.00000000000000

0.00000000000000 9.04684106371037 0.00000000000000

0.00000000000000 0.00000000000000 13.24096636545161

PRIMCOORD
 96 1
Ni 6.342468869805097 1.6843227769588962 11.383576792037408 0.06229448716384755 1.412159128062568 1.0333194185422654
Ni 4.40804617143213 0.4153024768475313 5.910423404187045 0.5543933478213227 -1.2635174836610434 -0.8793357931025372
Ni 2.6783534865010314 1.602720270496429 4.816030658537146 -0.2973964173421459 -0.09529228224610686 0.03988860866482162
Ni 3.334158995754275 4.4184319449819 4.7588301964961 0.5802550460794329 -0.7720449437336575 0.09768006575199306
Ni 5.2361940030922485 4.411963453615972 2.692947850517135 -0.28438869222856833 0.32545512325157494 0.48879010799921624
Ni 7.172923645938377 6.1294971841473425 2.6053590493178365 0.4958688692228686 -0.15372831489581268 0.10568622388592122
Ni 5.0482277861553655 4.438099777470747 11.64840949413597 0.17711558347150141 -0.2289045431183348 -0.3233825569932624
Ni 5.655686976723972 8.211075799384886 12.442244466981137 -1.1882746638666437 -0.061851743199474125 0.31478864467666434
Ni 1.6632074498986524 6.770891075574122 0.23462168102530756 0.8174524253341792 -0.0980662454468182 0.03372413172532257
Ni 2.4927937292890947 1.6933062901426246 0.30470122601535304 0.08772732541465536 0.0032267344674137975 1.0791269637946834
Ni 0.6452786049827638 8.69162590340632 4.699351739873318 -0.3202450398055452 2.1880494136842445 -0.941974808089997
Ni 8.50389490433729 2.2329232195181 1.5475643945374793 1.4923731758193135 1.0675945376750517 -0.07484995523135496
Ni 6.8538596550383435 0.7838454509343189 4.879349499194664 0.36408491980863106 -0.3131048292163382 -1.7161938766568379
Ni 0.6355487274106593 7.3073235168925255 2.298976015547342 -0.11595675257399385 0.7598239761874334 1.1649976956165744
Ni 7.468782489490713 3.8986637849166956 3.8696460421807357 1.1676641867051438 -0.1023579308436366 -0.45377219716313466
Ni 7.585025350414908 3.983767418873728 12.645493512539645 0.3778629474293299 -0.431260903434496 -0.9778810350683029
Ni 8.069438455573756 8.809261977855485 6.764570952401763 0.4740815981444481 0.42555845373308004 0.35289187930628896
Ni 7.068532146817488 0.5326870491149156 0.4302650472952337 -0.7951254797022048 0.9951516492232927 -0.11051886938787418
Ni 1.9970177917447853 6.234657664759285 9.255157252469477 -1.1247740722098372 0.6383722619371394 -0.7222228780052078
Ni 0.03411382831138268 5.060160569528313 1.1057971935042876 -0.06367336978924518 -0.9669487044265154 1.0742408393469758
Ni 6.42603454078002 1.6807221342125478 6.869082774508898 0.25940528281035324 1.864036422195835 1.2129050608208145
Ni 3.598371989239459 4.100905917063975 0.6967026589998322 -0.5294513331640043 0.15108136419126883 -0.34346261557258917
Ni 5.940481533646198 5.827007006089797 4.988931171038116 0.45974101315205984 -0.5139738063536954 -1.3759042594955915
Ni 5.324002642529578 2.68815121538117 9.241387055674963 0.07671220525107433 0.4326503275828548 -0.29412468856940954
P 0.1582799126457587 5.791724325912012 12.2666299021588 -0.9905403757035264 -0.1834996326209743 -0.5838137099649687
P 3.725018717395565 5.9607645513278875 12.757816377227677 0.2421392966410539 0.19453275050668434 -0.45705421034851607
P 2.31395577499308 8.73173054987507 1.4325663789446845 0.05107290741641527 -1.6659282956330663 -2.009174938540107
P 6.2263707583380405 7.922743927603812 5.790089561730441 0.19156158369350235 -0.33614371331367265 0.2490203400316034
P 4.4331602022458565 1.1660654393525876 12.793422029631705 1.3662171141148147 0.2866623187540934 -1.7207377872737786
P 4.20999272670083 6.013561915819569 8.166723661033195 -1.2309079251561381 0.4696428456468041 1.370816303449723
P 4.621008810248814 1.1957933591126393 3.724789832316463 0.278567714671417 -0.48587961922064066 0.49428738366836167
P 0.2007204534790987 5.5352011473373715 3.5763456452833426 -0.5206273071144711 0.31912892392323106 0.07086166000756829
Ni 1.5171733413269064 1.058154719054992 2.7423897416554976 -0.5476169483294375 1.5249799061107414 -0.1884343509184303
Ni 1.8936847730292308 6.489724301921457 4.802710089743872 0.26459531165172495 -0.7429935348936558 -1.2881219124732848
Ni 6.199420218786856 5.686998093671488 9.335834267090359 -0.5275392037429559 0.2396522685531421 -0.2501922488525175
Ni 8.531053521233114 2.3595789945152776 10.310382604385607 0.3480962576898586 -0.1545731793946112 -0.4268753727722906
Ni 2.418537257776464 5.2520078812847535 6.80632031457726 0.4510751099469457 -0.225175929313838 1.7481763431007054
Ni 0.8854559511099119 0.11118477208127242 9.186715185713325 -1.3833697146347015 -0.2755194147633965 -0.7022526055308679
Ni 1.4900780523185817 1.0690652093868918 11.390713844958498 -0.46673389953012523 0.5989816759546588 -0.28390069684855623
Ni 3.9324899236820134 6.766268139786725 1.5498288188576075 0.8625202642070953 1.0461044861220758 -0.3038761115292186
Ni 5.607838234298252 7.7161321712191295 8.114382257331505 -0.2905197448269706 0.9368385153046962 0.015502209400657174
Ni 5.3424762919970235 2.925449856679454 4.885533015066848 -0.09620065299298915 0.13520145973621875 0.13780393035607236
Ni 0.9511124955002346 7.193505209375418 6.830431955400295 -0.828145129161335 0.9714576480404625 0.6955050023943893
Ni 5.25316587694187 4.635981332221694 6.979949097784463 0.2353122464168915 -0.820193478414426 0.17873820667658893
Ni 8.09098803100542 7.443749880246628 9.286723490335202 0.768588866864257 -0.5239072634173234 -0.12387343631790923
Ni 4.818528491356912 0.44755989337109825 10.174186030794713 -1.0738204639801054 -1.7503139582689986 0.7489572086762585
Ni 8.127609643661746 7.163125917058238 4.728759401459449 -0.9322051302977429 -0.9366287132867352 -0.24800732538605677
Ni 7.466204139785413 6.5044887465497006 7.044088486927141 -0.8117957412690342 -1.437162849195757 -0.3332455658302712
Ni 2.1978305230028106 5.428104642736186 2.4757295776605464 -0.26521751861675613 -1.0463690526373721 0.312852603996216
Ni 2.132403768375697 5.030459790291476 11.48047388801489 1.169931642583082 1.8705734519834043 -0.5644409618653117
Ni 1.0826987988812309 3.359273026568001 3.7702990616411634 -0.5127491899179749 0.28017516836785294 0.35885812419205293
Ni 3.471399574804788 2.847981756586537 2.8727203434958075 -0.28321446941480904 -0.13236861827311397 -0.7844199203592427
Ni 1.4911727200882001 3.2231452089692487 8.089091813116891 -1.4791602766734655 0.04278367082442954 1.3686833162671201
Ni 3.8938237249435894 2.6315089434342185 7.112530553683294 -0.7733189253500746 0.6973345994039603 -0.6461128251145066
Ni 4.198421816970731 6.8732832228182685 6.197977247635995 -0.5294469622886302 0.7620873183003133 -1.300020977903716
Ni 0.7608121935669752 7.727504050445662 11.181758052052261 0.9109917294449215 -1.8299039992885002 0.586475573067848
P 0.06763780258492137 5.764891395294753 8.113031563959572 0.8755655274268276 -1.1476982851061783 1.0727629692498686
P 8.678725108038751 1.5549077154349942 7.998775389334617 -0.31573301086780464 0.06011264902118035 0.3946021145608817
P 1.6658400806503793 3.2337933409100827 10.286324339924894 0.07745165452026016 -0.6526074316999148 0.12406035551773474
P 4.002259162023316 6.127181192833109 3.744200734518888 0.42379493407475405 0.6587040315159559 -0.4193903772491551
P 6.8085711686357815 3.893181399227532 10.32427312416637 -0.016923001007583757 -0.553248435583602 1.268795701340847
P 6.289065366961644 7.908196607161278 10.405122028767604 0.19124199557055452 -1.1302250680220793 -0.7652965692662304
P 2.412077813251608 8.380966427861457 5.686173926449899 1.7248903759895713 0.7220223319586275 1.0124351188940885
P 7.1044752463934735 3.892095778298985 1.6315787888295357 -0.7581553302357589 0.9391131702714859 0.047036018342880286
Ni 5.638760337079706 2.874154267805597 0.34515869928588017 -0.5074347196835971 -0.6975060919848182 0.11432950138321601
Ni 1.5708663430846388 0.933154515973849 6.937618023728085 0.03492509401195921 0.32546232234042655 0.28333453993244107
Ni 6.936140674581154 0.5336423955320372 8.955699575539008 0.3872179062816686 0.8886501285249276 0.6024122989027625
Ni 2.966793920374961 1.4528141139461979 9.261288296663448 -1.0362211655700928 0.3289705926040012 -0.9819672893225347
Ni 6.4335524657102106 1.80947677633825 2.6468026282651276 -0.3452366767538764 1.1487303259151185 0.19182152222310836
Ni 3.9823651585076876 6.4899142855839544 10.559432187551307 1.0332116893198076 1.461685774037786 0.5981797488786537
Ni 8.11488073827453 7.246022121793891 0.438481388356122 -0.4957048328411786 0.060520168872244165 -0.47704916541320425
Ni 7.634004947974531 3.8531038932819968 8.275259518048813 0.4694937216634495 -0.4132528968928496 -1.4325407770427134
Ni 3.0957928272095865 8.408622621016198 12.464781052773672 0.3630942737605876 -0.06188825286436438 -0.04924742417190228
Ni -0.05379523106183697 4.797367930091313 10.152907860595187 -0.0755454386364828 0.7614815663955143 0.508448248549776
Ni 8.860041896788282 2.3951330799251997 5.967915174510586 -0.6236444688086614 -0.04153154358488331 -0.509220093718794
Ni 3.475135920167205 2.593213665179714 11.278694954130458 0.9652358355004667 0.2855647148145405 1.1985004553597103
Ni 1.0196513634558502 3.4491714862927836 12.527582414121914 -1.169676332039166 -1.4898632649132661 1.0787281856943682
Ni 3.037983512764446 8.170093609332229 7.997583015681429 0.5231351611379893 0.2120566183230606 -0.018051972405704397
Ni 5.504785667655906 7.992685055925467 3.586488058808295 -0.1029433710334614 0.025441322891240056 0.2768551028556845
Ni 3.001995178983105 8.234280946732584 3.405550332699648 0.42814832594744334 -0.01619306482009469 0.8465580844508841
Ni 3.5065375055254338 4.377241677584603 9.40446269877258 0.348784799116451 -1.1739739309732555 -0.3692782910841124
Ni 6.876784350312833 6.177128802387353 11.727245476598856 1.1794192703585429 0.0958142161878479 -1.0879111377452166
Ni 0.4236717095225234 0.25770921943907876 0.30547834966337145 1.0907596629376053 -1.6650651763018227 0.7115096053527618
Ni 4.616250171845348 0.47671605277544854 1.6365038891087118 -0.48371860701357977 -0.6912624250679514 -0.46935488209274007
Ni 5.888416963281286 5.4795811684314675 0.5263705446789849 -0.4838443339581667 0.7933393343360594 0.13860560032176128
Ni 8.003459843641298 8.991528684917496 11.298291316574842 -0.4430440121123531 0.497813137433433 0.3597024744702192
Ni 9.20760343706268 4.84660083920093 5.756139481242448 -0.633882858707218 0.1842066859903279 0.2761573054577115
Ni 7.788036464053241 8.889245099766203 2.576401015732946 0.9117247509562039 -0.7943268950603094 0.7496272381600896
P 8.704056263038186 1.5657186905151104 3.7237964891668427 -1.257010792890777 -0.27394384274616046 0.9196743448205839
P 1.6474659464347172 3.3714048404445167 1.607373965543468 0.5022973984570317 -0.107981190567685 -0.691067535448326
P 4.69493054864181 0.8673360331283514 7.960283794628867 0.6950941401092159 -0.4149385121253886 1.7693784310996175
P 8.512643199653166 1.80859018591327 12.538374390835783 -0.6534468968820746 0.4210623656349394 -1.3684863697649656
P 6.147210898964804 7.785023865976522 1.4464831345645532 0.29917484939880734 -1.072848072764507 -0.36594896960056333
P 1.9391813367764315 3.264615928439753 6.077550222716357 0.17222277415557435 -0.397917809197676 -1.73179404508794
P 7.053324406976757 3.957929640774304 5.978243048277498 -0.1011176306786323 -0.12019701590758654 0.7995243801008489
P 2.6082314213579507 8.37420843758125 10.20948680465464 0.4811112512977198 -0.045964125434940196 0.4871667134631803
