# total energy = -340854.17565913015 ev
CRYSTAL
PRIMVEC
9.42817576855400 0.00000000000000 0.00000000000000
0.00000000000000 9.42817576855400 0.00000000000000
0.00000000000000 0.00000000000000 13.79908825188844
PRIMCOORD
 96 1
Ni 7.338703395727639 4.5864869165523805 12.666072386115484 0.17877574478274375 -0.3927686608965687 0.637390100529528
Ni 8.118950931533071 6.355391811851622 0.53779445532565 -0.0534105544106564 -0.7432886975365716 -0.9781677130707863
Ni 8.960113910489401 3.7206786863351846 4.028533135960479 0.6149582538885732 0.6692080163710733 -0.9574667330780092
Ni 1.8716625821745927 3.927938272589046 7.907871048488504 0.8874455666938652 -0.7835282617829086 0.03536012466684878
Ni 1.5801245334031826 8.277476277631076 6.935090736861296 0.041727718756089424 1.2197117993300026 -0.35142249384961416
Ni 3.525638015779135 0.6934687210941647 3.266837421465683 -0.38257423686207015 -0.23969366331403882 0.38804374461707364
Ni 4.270067912127787 8.161792561880956 6.102963721488903 -4.167202866161598 -1.341767979933515 -4.1722016049277695
Ni 5.905347273333593 1.5863942702388656 2.4995112004471736 -0.9409995886609214 -0.30452120131238525 -0.026713247625128184
Ni 8.476872765357179 5.069841199792917 7.5699171479640865 -0.6211026762234142 1.3829079445069345 1.2142664599447153
Ni 2.097382536434871 2.1953601382339945 1.9717652947748632 -1.497030472085667 1.0916497788520425 2.272428391451957
Ni 0.8339834231662965 0.2217723770977212 10.630748930543044 2.1719774478230462 -1.233644864471327 -2.817179845308142
Ni 4.595198550892487 3.820655061381172 5.529101780050615 -0.6380051084057077 0.993003235421722 1.6761255478810426
Ni 4.3962640437753295 3.9746171704438824 10.060446125428772 0.3826647396933474 0.6148713506017216 0.9530529202810296
Ni 3.071907060565239 9.477862178657114 12.118552767562758 0.815404284555899 -2.219074144200533 -0.9016941061930793
Ni 7.274601229192589 4.008388895775336 10.09236332860146 -0.20432505400675777 0.8061966499147019 -0.4356613464950368
Ni 5.713832740486635 6.71995108136343 2.593469570948475 -0.24529198333742272 1.352863061405412 0.9276848738298863
Ni 2.4047033513159546 0.6139694008352744 0.6013903288259989 1.1644909311834848 -1.870740830799204 -0.12000212628796107
Ni 6.9872398622530705 7.762160478792095 4.6972924941990675 0.08584964877596828 0.4012944389793927 -0.3172895567216471
Ni 9.230485704830574 8.487507747538608 12.165758700438818 -1.893078575064456 -1.0267294240295735 1.2884906086666132
Ni 1.9920698139467832 4.86157279873993 12.36358256845937 0.4514232373149839 -0.5008580949073438 -0.6890427917088133
Ni 1.333294893766823 1.251477185105084 12.432660926125058 -2.6038911543501926 2.723827974617857 1.7124979158624893
Ni 3.0879443874186174 3.606644901331298 0.5286528961739534 0.688242150184389 -0.3035346690293998 -2.2061906033696452
Ni 6.259290417015357 3.8203816442860825 7.266116813886677 2.6035121737442193 -2.0377072416518454 -0.6420941908734168
Ni 1.7221505720388635 5.73738432336714 3.549512042268333 -1.3789415036600188 -1.2192523431950808 0.9159953533070998
P 4.5963487883270036 2.4178745127587353 4.066688020171494 0.051124072369324855 -1.8921887162603348 -0.8349976333067943
P 8.287045875959222 3.496118397685115 6.008191699425318 -0.7407620744599758 -0.14508323762630496 0.424772724606991
P 3.9905602155403335 8.613666166483378 0.4291677290815584 0.6792278625009205 -0.9008348435165777 0.11452387678220921
P 7.179112665776354 9.190067115635728 12.381783661634236 0.6417797449567915 -0.007892001153567052 -2.235412219238924
P 6.382045264535043 2.0921687552767767 9.801657787743718 -0.39544697905968024 -0.2508828471616389 -1.498913805151309
P 2.768140667920324 4.859328892925054 6.214143597710593 1.2202468458978661 0.3065965957841752 -0.5127466188148136
P 3.2367021434989263 2.228943300051592 12.288695511749376 -1.100706489737672 1.4593098176064416 0.42727106554881256
P 1.8725959715681755 4.981404911794862 1.5131392307412879 -0.010527896114517352 1.163823472802815 -0.3322371791704149
Ni 1.916220140498559 2.8320825554685976 5.400949301946825 0.9152402203086302 0.42132281838517766 -0.30049691064434053
Ni 6.49005444527126 6.331840228971117 6.779092141848952 -0.19608235438199134 0.7167520846986237 -0.4436189107792166
Ni 7.104582936925115 2.268183367284844 4.690434439200157 -0.1954148960013215 0.6064964962744651 -0.23980962006661277
Ni 2.3078005615458057 7.454688813099927 2.1728183129701835 0.9286459521915748 0.32310924872721775 -1.8141981585174691
Ni 8.627563297454502 6.81928634046231 2.7886167798898525 -0.15107390799210113 -1.001424626716198 0.9906887283559327
Ni 1.0413985743190886 6.451238645944183 0.028392951098735558 0.19098231415126465 -2.6010613982108817 -0.04442403464132994
Ni 3.172713115072189 4.0278486504051845 2.960691357275917 1.230941863717867 -0.5145541043371977 0.9978811323393137
Ni 5.184006979256503 8.649747794859557 12.382404978412389 -0.8982272306904013 -0.061862798943067655 -1.2200717537725827
Ni 4.654369781540225 1.439182734972169 10.847408407962584 -0.0023106504110476335 -0.8450447331301512 -0.08685829254614075
Ni 8.756418174647402 7.611931927303716 6.981069121262162 -0.9036759125097986 0.1076016957410792 0.14629525565653514
Ni 8.680332796806859 6.287480662336698 4.978586830080298 0.6820625037362382 -0.5810585158173348 0.6144255213135548
Ni 1.450402264046549 7.1390146345550605 11.29318763979721 0.9304642363472363 -0.715665279392348 -0.5044391273903829
Ni 0.08006312516531712 1.1668498800869036 0.6917744779221763 0.5197343629865564 -0.2672648880640881 1.5251886796874379
Ni 8.403455561237685 1.3998578141576825 10.211766459662371 -0.5226067994383451 0.5116029921286738 -0.08750158255709446
Ni 0.6405823123632175 4.793887925441633 5.947807062565921 1.0752065456943547 0.3913620103570292 -0.4350676787750959
Ni 5.222596502366954 5.744521452366556 11.845606138439894 -0.6784092232543671 -0.8357933897352121 0.6015260396430672
Ni 1.04219054107728 9.522834576711562 2.8082528414051557 2.1304780430276793 -2.6032041555854977 -2.723155116920549
Ni 0.1556506953292828 4.998488766150137 9.895657642218069 0.2716918134871901 2.0081567816882386 0.9170639037809303
Ni 5.359323906263305 3.6596406769002807 1.1520127599992132 -0.505093216034614 -0.6156179989597592 -1.4124229232469159
Ni 0.16461029069010913 3.1521502638862877 11.580940276027977 0.4952613175458567 0.9980132870418036 -1.33337641343571
Ni 4.677723372731183 5.0278198207303015 7.822399921745823 -2.891825912058807 -0.10140867955648987 -0.090341880219367
Ni 0.31806422108297977 1.3732515023527243 4.184021666667847 -0.7271066884600703 2.8791151493603575 3.5124938147376477
Ni 7.057093215960702 2.355261997983141 12.027878230655244 -1.3953700815296872 -1.242390728984757 0.3355413038429834
Ni 3.345361868357942 6.943879682242084 7.707742934328644 -2.071651459807774 0.6975392592155988 -2.9333710824904444
P 5.161860194554218 3.626689202854097 12.667465870482875 0.8777311676195786 0.8412027336762417 0.1023252778334883
P 2.1810293111810046 0.6337563131616619 5.2920057889994565 -0.0009343388888112941 -0.6692216432178281 0.5687295619383366
P 4.09747572789619 6.797365831976651 4.188920546757802 0.007209373264245648 -0.1040376325389047 -0.7216991442912538
P 3.6306301802936694 6.828620234398138 10.871018445532384 -1.1064295082643785 0.13942732489210827 1.7801644659715277
P -0.05663693702152557 0.166959792072744 8.657037660305196 -0.9387658142343961 -0.3742898853660909 -1.5712620770067325
P 5.929558828512592 8.522835121859364 6.902317455335706 5.430583052913828 0.16752331179737598 0.7430431571846687
P 6.724014625087007 5.123996640972108 1.647983827951796 1.5323258049528514 0.04769782029659528 0.05418882733757765
P 6.501226833467176 8.936420904973504 2.174708662196581 -1.3786514832234256 -1.995845311310737 0.10296985339602265
Ni 8.146830047056552 0.6232646392507628 2.7771078058217045 -0.5824440833109518 1.2127135136352987 1.45221640109477
Ni 4.480778210685196 9.125946092749292 8.30045462742946 -1.7735701005834617 0.9105674974233092 1.3626224547850212
Ni 4.19811207524067 1.1368399968568603 6.033389441781779 -1.8048750813443304 1.6775566239006143 0.5799092327042399
Ni 4.756995473955877 1.6382115238462542 13.809161377821505 -0.18692562758338774 -1.0450742450853487 -0.21651619675631098
Ni 2.309733337562821 2.391617043454409 10.14782174366139 0.013214956028377243 -0.1757315586397812 0.6320260080041373
Ni 7.695107293265212 2.9895802304160912 1.977699388555884 0.10191724376179222 -0.005044247292126797 -0.442286050900406
Ni 8.812892947047013 8.462334518438947 1.378132468908864 -0.5753493812476994 -0.3820965258947032 -1.5900208456714746
Ni 2.635033683489991 5.648966891720471 9.26585267748924 0.12681452122410417 -1.6225057056730574 2.891848537766626
Ni 8.91454753736631 7.564027366608821 9.483312607025095 -0.46103993446914143 0.0657608484458932 0.44849783613807276
Ni 6.390936034213313 1.1750146802368306 7.167177538166893 -1.6793625667611014 2.7755377442873232 -0.47749885135611314
Ni 6.738213457680298 7.217947321454817 11.044293229684136 -0.9157264159164294 2.0035339382042463 -2.035103485480411
Ni 8.337401762334235 0.6913040119551078 6.322535562379936 1.10587286442996 -0.9582897431999366 -1.0084257406243793
Ni 9.221632647855076 4.6331846707586015 1.5233782295436213 0.5295546915110879 -0.44281466971036637 0.1662022789931073
Ni 8.349790385194517 2.729183445957855 8.056487381933422 -1.888888191132192 -1.4935365999997956 -0.9913677567008282
Ni 4.30698864814062 5.990087716460087 0.44517959986056643 -0.56432551933337 -0.03728716648623256 0.13649832417077137
Ni 7.111239228964201 0.6586589536189391 0.3646007534848555 -0.08391412231615225 1.422926393881401 1.5200829830297562
Ni 2.1003429836023964 7.747028256805221 4.519008520301754 0.1473936309270365 1.8209876706354768 0.9770130306410529
Ni 0.9401795657167955 1.5258559541156778 7.209554359453125 0.7093815032661653 -0.3424922812395198 0.07970136978638531
Ni 4.8350230559891285 6.8805694824652255 9.174586051148221 3.041834354900871 0.023101619014469894 1.8564784073429188
Ni 4.107413025076355 2.2111146198165903 8.630695337419635 0.9556543624596187 -0.3910113118858298 -1.8517318937968688
Ni 5.890365902157804 0.3228348779835144 4.90677618709885 0.5387584694975431 -0.18766404841130907 -1.3264773723230316
Ni 5.567950577992617 4.202920444843976 3.339972723131963 1.0628086862506343 0.7768850454347782 0.8275540325445553
Ni 6.199930622853763 7.448833915994725 0.2252193181309929 -0.6282007207207762 1.050368146494436 0.8170590465505025
Ni 6.814902238765178 -0.03359258999329066 8.918364062886738 1.2499289463433312 -1.2855929754038442 1.7543629315273914
P 8.211554473187324 6.403739496804076 12.077748565982077 3.093784008495285 -0.7321853885345584 0.8180003274178493
P 2.8236631945749657 -0.22300558247833374 9.825599697097905 1.0244761092190227 0.9249687604503037 0.6888229623885234
P 9.329104422576805 8.5002734974266 4.43130103028475 -1.259931823192314 -1.106809003090984 0.5672956577052876
P 1.0439158972290545 8.400004848934136 0.14161968426332291 1.437020152970306 3.178261973734707 0.0858614758505102
P 8.774256283058097 2.670747613014152 13.394816626564099 -1.4139712415706422 1.4490608861849237 0.6750809302120826
P 0.4956721947831227 3.08501222477817 9.243981195517184 0.4985356174217543 -1.1937184605900344 2.0444743851723497
P 6.989992889555355 6.460911954204951 8.878291487739816 0.9627914877250321 -0.5555631997597077 0.5260726464997585
P 1.0250784021949273 6.518951803769558 8.279549533465913 -1.2416993593446872 0.16673681134033866 -0.9571330038876742
