# total energy = -381163.09301479586 ev
CRYSTAL
PRIMVEC
9.28237306192492 0.00000000000000 0.00000000000000
0.00000000000000 9.28237306192492 0.00000000000000
0.00000000000000 0.00000000000000 13.58569125277132
PRIMCOORD
 96 1
Ni 0.33282319987857295 2.1926636051729096 7.183705573458575 -2.1533150955268527 -1.605339735416732 0.3978812995327857
Ni 8.437807086643046 8.556602897372978 8.208270708545541 -0.37415927332549753 -1.2054254646143174 -0.08691305704347613
Ni 1.4128421600070826 2.0743411954702657 5.092378563481768 1.573236427124284 -0.10305984200666767 -0.7743705065430405
Ni 0.16032886085729522 6.21995112091997 6.771896804533031 -0.5896989651011522 -2.481527469808591 0.24769416502101216
Ni 9.040827171676588 3.360358292029696 12.864969952478772 0.28408915871027846 0.6864670605618372 -0.539633930123961
Ni 1.623617005627066 8.314240136147903 10.53180463535614 1.110825323339229 -1.105369185320664 0.5534839486331758
Ni 0.6518453674557502 5.428257520579617 4.365231800856115 -2.5890458618072443 -0.09090058093631442 0.2766010778633494
Ni 3.2662907231957283 3.092246227869411 10.288280649258247 2.0151077590847746 0.9234986036626804 0.740026481845532
Ni 2.8579498488543935 6.050325035181671 6.996998064770969 0.0023777562035571954 0.39345848787474175 0.5817897375564045
Ni 1.4478831183994478 7.425174442155654 8.460516412393224 0.1322356922396755 0.27436473233366293 -0.4820404479802085
Ni 3.9169386645236335 4.383999830994797 8.234939894653381 0.45798726368574677 -0.8407075392073781 -0.30830175140074
Ni 8.376998260569302 8.277964622135356 1.0278028268186892 -0.685149113081362 0.33696055278801323 -0.5091090220622264
Ni 2.0903068771748665 3.0631924001162707 3.245648581931373 0.27833914360037876 -0.29686214210523065 -1.208183486975429
Ni 7.840839108860319 4.314354185745017 1.2452953258396142 0.05962593919274892 -0.018448950733806934 1.2792071264821583
Ni 5.9273707213100755 5.530150129923457 8.901481115175834 0.7929269293889893 -0.9755531582660748 -0.8311330081450654
Ni 6.193552051868874 3.266791971342268 8.165013921736463 -1.8320346724782577 -0.2575803137864725 -0.4153930831643039
Ni 7.142619005476554 6.213685519088223 5.286097048559773 2.029146753676344 -1.418619024755299 -4.223284539646514
Ni 0.08844337898232987 6.205387077551064 1.915270096165862 -1.1447749408117962 -0.24403985609787648 -0.8122554545142722
Ni 0.19993953151894825 1.1106080923897548 0.18892413938008207 0.509333993588839 0.04943074382730197 -1.137426727976841
Ni 3.817125306750626 6.64577070377861 9.283415494567604 1.6198865228826553 1.5286252161728127 -3.151849030958817
Ni 4.669163614510519 1.117913320006918 12.480644433780542 -0.33460053719626887 -1.4516456161929645 0.13013690072911782
Ni 6.3341335922271185 8.883314582812998 2.372238538382716 0.8311342936966459 -0.0842311393359388 0.5933789850559006
Ni 1.1462895345249209 3.8258414550765676 10.423458920244254 -1.4276076014071544 0.5161782702041819 -1.1246681427595921
Ni 4.006448588173323 -0.2615614934748571 1.3562781631446836 -0.763318362493937 0.6079499408915401 0.37429657023431023
P 5.554739136223159 2.9696817736673475 1.213828081084616 0.7369660977526533 0.2928633053584827 0.3608831250418817
Ni 1.3665973773022444 7.5400252443248545 3.3429222824285785 2.030561888856316 0.17535849157107863 1.4125093123131351
P 1.4299124441086877 2.2303129104018984 11.797447851233343 -1.0305917351984573 -0.8661653171588501 1.4165135483765219
Ni 6.050807718582042 3.676618025377054 5.24057164976895 0.6739815265003167 0.20376403929696524 1.1017369878847154
P 6.932781679538062 -0.5595433059823722 11.860498370406892 0.4164498065635925 0.423249088873613 -0.9258293086783861
P 0.7515918921425524 4.2781065188517235 7.694297356744794 -0.1913687509564059 0.6769686341530986 0.6743934172267546
P 0.05685546337723877 0.6861901478668102 2.294297236307703 0.41974621792667716 -0.6493652706135333 0.8791267624155247
Ni 6.2987306212844745 7.45960276392447 9.844096819490083 0.7252482950950929 1.745582357121284 0.5884450380893931
Ni 2.4314340880144485 1.118303179676449 10.264343265549046 0.47283512733185673 -0.5680417918426928 -0.8415706585386216
Ni 8.850510676333894 5.919155821130674 8.923774590611844 0.3112176394959543 0.3532515766385529 1.581340287178341
Ni 1.8018385688412153 5.948562379061008 -0.10338335846114095 1.320781607489835 1.0565364800886774 1.017218656325661
Ni 5.74915844046901 6.725459876705353 11.986791553876825 1.4451926614787691 -0.9967354487706446 0.6318887110953246
Ni 9.004393857321611 2.9509406624106096 3.108718727144402 0.31428445134673616 0.7886745818705385 -0.4886083310057133
Ni 0.36372607635005966 0.9557038503627902 9.198097490602681 0.5447468258704941 -0.3085002405647913 0.04430447834433015
Ni 7.865400268040769 4.563075372532681 7.279363212801844 -1.2501109804471502 0.3192093994521793 -1.2127654499191565
Ni 5.118476883644941 1.1050015390469763 10.201455187904472 -0.2269584751355575 -1.2201190620707503 0.029739950266593946
Ni 8.554913505471676 1.557804980461008 11.127265155750013 -0.09930526006024187 -0.22061556363666524 0.5127098520396073
Ni 6.423689927742228 2.849521454094057 10.719817245699366 0.3479769585031749 0.3363604573101691 0.32509156926456917
Ni 7.58019935503271 1.6792648322660673 1.6537318086237152 -0.747398605939887 -0.027710578541390987 -0.7541973740292753
Ni 4.269019075602419 5.43412398036875 13.25555921653413 0.44339059681849446 1.4814984378883387 -1.3844850591860671
Ni 2.797855765508123 6.0593196547001344 10.923602464387045 -1.744145881785074 -1.641160344659767 3.173970288337889
Ni 2.0786946284466947 4.161946902077668 5.879996273800907 1.52912812395116 -0.195099935864064 0.34650037395764843
Ni 5.413674912464543 1.0584782851496162 5.817202876361788 -0.9621597676783041 1.8549555429404894 0.4803689738150566
Ni 2.1279097705384356 2.758544915497085 8.349861242858022 0.595769082554632 0.018793221447103117 -0.11098372483943468
Ni 3.3884931648475134 4.038547034298038 1.319619287123765 2.154583934936947 0.025808476422671683 0.9181764201188187
Ni 6.905435808432391 1.9138582472197752 12.954581982232384 -0.0378144997446123 -0.5569227991113956 0.06063843961766331
Ni 4.085701489565115 1.780424134136265 2.4749600636429627 -0.6419743774661009 0.4547196486780685 0.013075859347351672
Ni 5.690874419874133 4.934676614207266 2.7008085549141683 0.6665451248269294 -0.3159440984373462 -0.4433201485918752
Ni 3.941620494554176 4.223711812579071 4.10958967669697 -0.22043147265031715 -0.38617429550850263 0.1111053380189635
Ni 8.554421539698222 7.964006917312848 3.379318467291218 -2.2011005904412477 1.0042145307565091 0.7785315798992657
Ni 6.083528083703389 2.4159789368294717 3.3470520102136816 -0.10981155890820442 0.47707821887892676 -0.5226721054586417
Ni 3.9563980325040164 8.262797224515985 6.879943627231609 1.147076078141147 -2.346948988368352 0.372508625095952
P 4.671196454215932 9.076944885346704 3.598388041499127 0.05502623563720846 1.5852378224605344 0.5975629412302612
Ni 1.610556706697779 8.510515915010568 1.3829009373871057 0.1311054352899742 0.9376892933407657 -1.081251466336854
P 2.603557132112364 6.232547301195054 4.605467970407629 2.5229165742783386 -0.38148563178358175 1.6059251756065567
Ni 7.698985883389558 4.923862649564323 10.662118014608785 -0.8510821975734826 0.579775278229537 1.2523403839983014
P 0.9654039302356436 0.17798579093781366 5.312480337576626 -1.4408729510574927 -1.786047407114866 0.4068001992889704
P 7.8681664152198225 4.986945657043664 3.437995132267552 0.23613397098723848 -0.2825115298105135 -0.5156061997507959
P 6.418018397787862 6.513023486303321 7.021547156866409 -1.2759922190892863 1.2621293450642648 3.834016435704036
Ni 4.429901165895524 1.7151226394898307 8.018275383311556 -0.6027737960072393 0.3309385149636494 0.8237372299016266
Ni 5.754412263634594 9.055734662849604 8.150341274602473 0.47221394880809 -1.1203198930932257 -0.5100834701603538
Ni 1.114720183665998 4.198027486255449 1.2081574793675576 -1.6498303616299392 -2.2737147143635483 -0.6155624631314753
Ni 4.012407871693296 6.567594557664569 1.5588761663149096 -0.3991000024312352 0.46931091622868204 1.1477530496035135
Ni 6.419986260881685 6.656788880629401 0.9645341718776662 1.2756376639633449 -2.6566501912197795 0.532799937921263
Ni 6.41035115762042 8.635428809602903 5.053252432695104 0.1210609065697786 -1.9991466077698279 -1.360619051201747
Ni 1.5172131629643688 7.542902779980917 5.919598590326784 2.001160552876063 2.5288424528444704 -1.069622623848674
Ni 8.46937643750197 8.03253867779254 5.927898888338559 0.3208145391557701 2.1780344526504036 -0.6133184042923051
Ni 8.17833691182403 3.2709411921108473 9.147558682109151 2.9668396465615356 1.0156677668987732 1.0650820556658431
Ni 4.835448045938554 5.648342586402923 5.792938753120028 -0.5685310727742854 0.24042437083247628 1.1409681654711965
Ni 0.518518001662707 5.7600837935889615 11.552320799303834 -0.15419471300926993 0.3645505465911399 -1.979449900671849
Ni 7.368691201939086 1.3275649984837292 8.73288258813794 -0.6660126493622271 -1.3742649241199558 -0.4234504062511417
Ni 2.3822839225342967 0.24930690452926754 12.443365495237606 -0.19260210914287473 -0.35385552877113896 1.2956336474692978
Ni 9.16954583923339 3.5241550474712007 5.456570614960649 -3.4824731000058415 1.5987625964198466 -0.5956706093035549
Ni 5.882917436610463 8.532700786681497 13.728341109537004 0.21952130213122195 1.9016858571174926 -2.1796524478698007
Ni 6.733266352469055 4.316591237658279 12.860596098281556 -0.4564178623160978 1.3280051218214677 -1.0461921607398756
Ni 8.730944428637986 8.11614501216076 10.520800382064973 -1.7997968954904746 -0.20178454697309117 0.40502716654894766
Ni 2.485355393259813 3.9105802389610456 12.599152490944867 -1.0013474936213593 0.9822254280799279 -1.2542183177473045
Ni 7.851439578922328 1.3355107098436934 4.298417279396977 0.5298441977270488 -1.4832357322944199 1.151158732850953
Ni 0.6620782555436292 7.83849066847005 12.827895226143685 -0.7548954285375644 0.8112210997124868 -0.6071248738870835
Ni 2.622214702011345 0.2571198779541295 3.8229323593520204 -0.3645076091683464 0.5500520401334913 -0.38031963649993855
Ni 2.7918871996150654 0.706913045776997 6.655018732082269 -2.1980839151021114 1.7758316429241285 -0.7245091029362233
Ni 2.5893643836668203 2.1110436986446794 0.408664829161969 -0.42468530709950725 -1.5789291066336872 0.3388559700385132
Ni 4.677155737735903 7.020973506209813 3.915966800061731 -0.2565770693329387 -0.8590634160067462 -0.26082530308633145
Ni 2.1997739029553074 5.361888553028515 2.741823648623441 1.3167179789434227 0.7176180322433448 -0.8178725435907334
P 8.624921163271734 5.94400473387673 13.188364117778544 -1.4019461920853082 -0.3982713358823528 2.2180310476479996
Ni 4.631699956743212 3.2991596062864215 12.856574046024228 0.8441453612443333 -1.5006403009241123 -0.007049707757929794
P 3.4564030063305715 7.699087989493483 13.292553186223383 -0.855493953487933 -0.6414393308982372 0.661009796830997
Ni 4.80932744807998 4.564727634941645 10.840811122375605 0.7915544745214947 1.6911037664574295 0.027972831063842143
P 3.55455481932153 8.993941905228947 9.0957695379612 0.6354998254853508 -1.2447607718788305 -1.1717298721340852
P 7.274196643943251 2.2137810039391694 6.411305385573462 0.6989428244313446 -0.04819070077261378 0.3477949243993559
P 4.115776378357502 2.898031135831409 6.252732749703673 -0.7372010965815948 1.237009924288818 -0.24407533732150222
Ni 4.0948446270529235 8.04740903947322 11.318443055314908 -0.2405760659189921 1.5711893147872682 -1.1105461015359133
