# total energy = -340857.48486423003 ev
CRYSTAL
PRIMVEC
9.40406120948857 0.00000000000000 0.00000000000000

0.00000000000000 9.40406120948857 0.00000000000000

0.00000000000000 0.00000000000000 13.76379415716100

PRIMCOORD
 96 1
Ni 6.879569100649969 6.4500480145453585 4.083882800290698 0.5014625612605622 -0.4740944536602544 0.04104586219771641
Ni 8.721185191512127 8.610386543780715 12.467519563538817 1.0252736654196535 -0.0046634669139403555 1.1458200942468588
Ni 0.1605903299707189 0.4336033890226393 8.082774517692057 1.6318876611085897 0.9862859713025465 -0.4078576940192073
Ni 8.122861208889196 4.048730419946103 8.721276410904675 0.2372724554670559 3.190336645511054 1.3270553563136886
Ni 3.9007951349806596 7.7571560813234886 1.3497413777177298 0.19081056446009073 1.3179940174423688 -0.12180884047939668
Ni 7.41646575625019 2.855129370492547 7.155204952339158 -0.21825940469966282 0.03267563585615018 -3.247650905851491
Ni 0.7375172524015542 2.627447647506193 12.011800644057006 -1.154490368327347 -0.3164557479664421 -0.29555627880961355
Ni 5.875836044550447 4.204819025874297 10.403598051413955 -0.0382569865986696 1.3842917122283387 -2.3199940570460624
Ni 2.0120270818264196 4.418168959763497 12.612411694336386 -1.3728649584486357 1.1899199127795506 0.7353465598713594
Ni 7.635335873997676 3.585571007331963 3.956787855100979 0.6964354846284586 -0.6100407619822977 0.5600785711315579
Ni 5.362844512234325 9.36756392629153 3.299980016575683 -0.5912791651040784 -0.00969563002120911 -0.4900363217014916
Ni 0.9810222485735197 5.453998076354218 4.41151652695029 0.006444727184079223 -0.44975921934899965 0.2657852181947681
Ni 2.76814180543436 6.37866178683112 3.0127019372603288 0.37510698195074754 1.0477793027213373 -0.30516809086776475
Ni 3.713428621875867 3.971297380952685 6.280006603181831 0.0906036185211859 1.209085687074724 -1.7978595692584456
Ni 8.96633025593773 7.1795022249706 0.6390501499740121 -1.0540731061498492 0.21335553964014223 -0.12499315174464924
Ni 3.064172244403731 2.5234481359409506 13.48729312663507 0.13971940221123033 -3.6954663712105584 -1.8088708327672847
Ni 2.6033074226949102 6.041855338986905 10.860720997216111 0.6719711809385072 0.5916604597028972 0.039627127473318854
Ni 6.370602506479242 0.44931663469352856 13.102457317599322 -1.0086741091897595 -0.6697934565608981 0.33689344699550366
Ni 5.668655174734563 2.925678636770009 0.16665783018429106 -1.6141172244990458 0.7438232298838029 0.22160029614743773
Ni 3.65610146548725 7.792976150005288 5.88344392997013 1.2479898203390893 -0.17797176082420965 -0.03635231337678901
Ni 1.2141019026240254 2.986410063272255 4.165542964742889 1.1774120101205272 0.9941710304775782 0.44361968211016506
Ni 2.845932198749098 8.429640489681434 11.346720052993149 -2.173370471515831 0.044131957322207864 1.0186067949224393
Ni 1.296387437138527 4.219856119553004 10.337875889692642 -2.4709756624346735 0.4602030403901429 -0.7926867883537252
Ni 5.457421154590022 8.380786392332537 8.539800601665013 -0.04915820689220566 -1.443972158808107 -1.4017163354626891
P 9.113983419070552 1.7732767789402293 0.17172285748594943 0.4762079004588315 0.6775419901580654 -0.22896907780768308
P 4.977212179224478 2.7695524145974657 8.943672111153818 2.349341399859928 3.452542630994996 0.2778827727892505
P 5.081794742577136 6.7680933605202656 2.7815661026365825 -1.4134752757708302 -0.6111355377083734 1.3068027767122397
P 3.1839611745346708 4.407090975802573 3.5306606946428003 -1.6830934945584435 -2.7081910394115485 -0.5022302926645221
P 6.478062712524638 7.3984005549013485 13.190669291411087 0.5012818127083237 -0.3054498837742417 0.2673654181976943
P 8.501609769183087 5.118630449856371 2.8211101795089806 0.5146399791827846 0.20605669198588383 -1.6525675580554442
P 6.4287948364878975 4.412310229706065 5.492910200321544 -1.0175570135016863 0.803409574087868 1.271174485985669
P 9.00990867501661 7.594268339229125 5.576882823395121 0.7359440842460423 -1.53138349564424 -1.3463543137526166
Ni 7.618502604651281 2.786084753989065 1.632633402941934 4.5617772128083365 2.6908813444885076 -2.909792523839556
Ni 1.6052168032478111 8.612116891020792 1.316187687757988 -0.13914013266899264 -0.9253096887294902 0.6559663208698187
Ni 2.2224899689617965 2.2680150286857628 6.339025550160066 -0.5878223169037297 -1.5703639906724955 -0.18803942947285682
Ni 9.182059417282035 1.7288237821802235 3.0668213684120436 -1.4437533579290813 -2.020802495476707 0.668847547707861
Ni 1.4695632220624752 1.572979681840301 1.5657413760213512 1.0539743757884557 0.28519524729026363 -0.4742752022124929
Ni 4.545838493085654 5.601265672982458 4.452119501101126 1.8522605126068292 -0.03190379068713215 1.9349713586435
Ni 5.618315235733863 3.6809563989411735 2.524459072507843 -1.6961948078270916 2.0720893186761407 0.28991476425312007
Ni 4.899008007221895 2.156962471304991 6.77789803460996 0.18075446577566934 -0.8263420145143253 1.371563980249025
Ni 3.357531930024289 3.417078444829526 10.970899917321864 1.2841708982453366 -0.3617007358471706 0.06016535663598671
Ni 6.464502056436649 7.5640530909554 1.5965584842046678 2.077523859428151 1.839035272165807 -1.0068167442660467
Ni 8.794254746161005 6.7381978503235125 7.744845224954011 -2.5759998272565636 1.086668266477051 -1.9086229505569579
Ni 4.099700431039657 1.0879746353201973 9.001287031811708 -3.0836291794494697 -2.782735547587343 -1.604503869778998
Ni 2.9371139750522532 3.502965734740491 8.508887572058605 1.2927861507181735 0.09658374736402076 0.5409354225442039
Ni 1.481929562392369 7.9594750515572015 6.864307249911274 -2.0238891048218304 -1.968369988708604 -0.004359305409960235
Ni 4.468396050031148 1.000309977863719 1.2014496788370757 -0.7036713402552655 -1.3589928284522337 -1.6881719375226152
Ni 1.3445926542723938 0.5645398931665493 12.887549130787944 0.751519570086796 -0.9266554041241074 0.6880074084657635
Ni 0.7824225844998622 3.18657550351696 7.90787778958912 -2.596876927815889 -0.03587125997531242 -0.08373928730118481
Ni 7.752416434535453 8.727006305325212 9.011059732093706 -0.3047281751168687 -0.6736678519146398 0.9325995375226842
Ni 8.465564003035192 4.408830727103737 13.249757828441368 0.7337396203955557 0.4226600491393624 0.6273913374456033
Ni 5.148516555992039 2.7934199216372146 4.591161365496241 -1.6097466062351762 2.4286049107779464 -0.5244729061128064
Ni 1.1386155042756934 5.772720514727418 1.5701876161034605 0.7856519929941308 2.8714506908365647 -0.022929869323295996
Ni 4.725126917716394 9.09156413743826 10.496282596678872 1.3310356811176753 0.38148537467326554 2.0433675252614165
Ni 7.32425893728851 2.6221343529918286 12.498047967046752 1.8747250122579326 -0.41288702891299855 -0.8109333932687388
Ni 1.2337940065409816 5.893901245899287 8.574499706265197 0.962297064587117 -0.8590862988248817 0.8024806345156954
P 8.345370698277497 3.935467908209799 10.87258516068394 0.17673531731394723 0.6835689130784356 0.9419362415425777
P 3.704071581093933 0.501104799101684 12.703734531555853 0.8860571709867708 0.6921749095798917 0.3213012489842015
P 1.4646260899916053 2.13489113993293 9.698891568146239 0.3256968069487359 -0.4511028778610876 0.27294805449179443
P 1.4298404680294177 7.606352557726398 12.918297589325324 0.04591861690898543 1.282271624340095 0.9596406008008764
P 4.18609554024934 4.374741005662015 13.001844208431642 0.9445669942972056 -0.12442108129126313 -0.9862666880288368
P 7.564711375231516 0.7866431271158747 11.273180295289905 -0.7295512933458209 0.9693588565299048 -0.30390876453936694
P 6.4622826980200285 6.243798146777123 8.837167357714899 -0.3067027823447363 0.6152387612434694 -0.8539006408588843
P 4.286465084234857 6.14556332465844 9.461947785394933 -0.6135009526167563 0.44037315014840933 0.04207096102812109
Ni 6.552881422535767 1.3708770050115975 5.127618851443681 1.5928364607433987 0.0003185596816833223 1.3176998832407179
Ni 3.257171790099859 5.82354946490466 7.466651468649056 0.4271867333651223 1.1150059370794798 0.12029728893087671
Ni 3.51309390853159 2.2549998081408402 2.8843684772254035 -0.520347056869891 1.156899749099788 0.5005418492185056
Ni 6.788058182208756 5.5010936142797755 11.916692672249875 0.5634582862370683 1.2661289531419615 1.662768924068478
Ni 7.955854488038564 9.1709156048935 6.468020115689433 0.22400144938976257 0.33397601623839257 0.3282553117045314
Ni 3.162642168049599 6.313566875984334 13.446800179998956 -0.4000124869431756 0.21649922747544648 0.03398921246125114
Ni 9.231261464891164 7.127986778333978 3.1390943990868205 -1.7601862230773881 0.6913986935354995 -0.29182817922574905
Ni 6.640141705365488 5.16614917053086 1.0881570741052924 0.8388913119342456 0.6293266067951033 -0.3861676106402833
Ni 8.416173874204317 4.973281281689956 6.339741199208815 0.4511481292767262 -0.35898256558505914 -1.0630871367230013
Ni 6.9278683583947105 8.225873294040264 11.232577321139068 -1.4975974003327304 -1.8650676916738267 -1.233017258189657
Ni 2.982535590104258 4.158889591523574 1.0505267236641747 0.5915627577827683 1.929173006794168 3.5604806270295715
Ni 1.4742934647894232 8.187410684192916 4.202237611105813 1.0000706837914648 0.5730333315200131 1.2790443756520486
Ni 8.145327510826927 1.9020936077150457 9.446270275156177 -0.26687073794946303 0.07479081985864539 0.5188992686797709
Ni 0.6338929628736976 3.8503329431858235 1.189877041262956 -1.683392770966417 -3.6342527758157153 -0.19453120784478756
Ni 0.24701553217588154 6.104439365523364 12.129715344813233 -0.43193993177939155 -0.5383612340591245 -0.7555266343636602
Ni 5.853633056323162 6.376395408109063 6.691420169662708 0.11650696865050901 -0.17944551715625867 -0.3738790230809174
Ni 4.772579809963271 7.147312123868526 11.817840943723859 0.3335147603312579 -1.1346525076658136 -0.03832280683959851
Ni 7.483488499619887 9.009203370435058 4.171351853276558 2.051046896183545 -2.169731332101347 -1.2690697809378402
Ni 2.8549036730264508 7.933115468329299 8.911272299489497 -0.11630642260392872 0.2566567735309386 0.024936872450995764
Ni 0.19178548140974802 0.5041018733702294 10.624217324523693 1.9971720005419602 -0.9995541491663624 -0.16526639744239924
Ni 6.673544930347831 0.9887994070927761 7.911882979206232 -2.022078019755021 -0.7782631567292274 0.392277323082447
Ni 3.7419229269706036 0.7521161168335898 5.002905014521286 0.0760761143289722 -0.24366601769822552 0.29586198297549043
Ni 8.187796250697497 6.142723298210053 10.009733403328223 0.9132288463055562 0.5526323992661579 0.9937244298584629
Ni 5.514202875435571 2.2118821880552413 11.106940945824002 -0.8377111755832153 -3.0808415894020036 0.33211505177025386
P 1.4591905426831044 4.663013094234304 6.447428983532524 0.3879874374578414 0.12415291523154103 0.10550650377494733
P 2.731672856537533 0.10723732979762476 6.908832657941653 1.3904281641433796 1.898735516239917 0.7595810069386918
P 5.812151742866766 8.873972971998654 5.83181563460046 -1.0818502762631175 -0.699595370413679 0.10140019491605762
P 6.186941193442874 1.7546661420483207 2.2678325899006677 -3.70675839918461 -3.909880176911885 1.9198704984463195
P 0.3053517443191739 7.866929686396378 9.279343488824786 1.8288287639464504 0.3027599956469044 0.7299187039875686
P 8.26681857601468 8.997890284946951 2.0551268341959528 0.6615708115407897 -0.7588104473212545 0.25688817281545434
P 9.336464696275591 1.3820490295833951 5.365099606083077 -0.48553457717639614 0.5254208718483726 -0.11096058491098308
P 2.570223935789537 0.34994015955883767 3.2111755869154157 -0.051076249850524946 -0.3604244402379083 -1.5138079486543219
