# total energy = -340865.10465172346 ev
CRYSTAL
PRIMVEC
9.28205610704663 0.00000000000000 0.00000000000000
0.00000000000000 9.28205610704663 0.00000000000000
0.00000000000000 0.00000000000000 13.58522735726941
PRIMCOORD
 96 1
Ni 6.719419646642772 6.70724158903049 5.1610413237674 -0.9999470137294069 -0.12936377000851912 -0.40962275633943007
Ni 4.7106156280948275 7.239084839844932 12.466823305974236 0.06897344184591993 1.195944778817392 -0.2838726718240982
Ni 6.117988821194731 3.4613065684397055 7.387021321871453 0.1344283290156201 0.11571969686252329 -0.9233803329172614
Ni 0.7199561844941658 4.513149166476159 4.745740784814643 -2.282856785874133 1.0511806150934027 -2.4906044924091946
Ni 6.330482931650507 0.5280023359973985 2.3807295093130527 1.0353557322460039 2.521449502814509 -1.3539280123348165
Ni 7.272871524074131 3.6763253981565645 12.926031683135177 0.3320412611095249 -0.931047619654532 1.9558602862773673
Ni 7.515411650148015 6.998187637701974 7.304654212389844 0.4040054101526527 0.8027631987531207 -0.5901519934781707
Ni 5.860569559181451 0.24815298540173988 6.403383272108665 0.8210573690766182 0.009521309226873925 -0.9046634732340484
Ni 5.334685388387652 6.361568537552591 1.3786016037852764 0.001461672147191031 -0.2736116562177223 0.718390134522679
Ni 8.045333515348325 0.0921392581509765 9.478874681024864 -0.4185473125225695 1.41274739646587 0.32001749717577144
Ni 6.821531545875026 6.079412596014362 13.106293853759666 -0.9263407010971658 1.0490178031141288 -0.41205476281969033
Ni 3.2471880981652186 4.821053531654991 1.8900447516879255 0.5864146379229255 1.2776392677744062 0.486350388209472
Ni 8.412234629142755 7.126335704314146 9.329424295647305 -0.2743611327892372 0.9725241416317638 3.2043342453417263
Ni 6.976532600804524 1.9759826681538668 5.039888214637406 -0.40734681582105975 -0.18207138481488 -0.27418732621553427
Ni 7.28312819607228 8.72529053546093 4.425170125872305 1.3523223584105937 1.5157722714695443 -0.6312677896818741
Ni 4.674471301614472 5.505020400005786 5.046096981967326 -1.1330627945811904 -1.9619856824488147 0.709290743324572
Ni 4.648100980214705 7.2426862776144185 6.74005272916285 0.4696245908143589 1.0924632758922734 1.4382077455205038
Ni 5.747774013370129 4.006153979859947 1.3115071894219983 2.5800236037039763 0.9135227233968912 -1.4824775139721567
Ni 1.0100454993869812 0.5262832992063965 9.921169295547772 -0.3307747356922755 -1.7975109276697752 0.8456360868572468
Ni 9.079660873511015 0.9914628230609224 2.371940330385408 -0.31179356660408236 0.6249588167447108 0.4250493753071454
Ni 1.8184940221877137 6.673482750969613 3.9685709346830182 0.38745547621377147 0.8488304254248286 -0.42031546016658583
Ni 1.612191043155255 8.75092757442825 1.816996826537667 2.582178959484082 2.210948429769605 -1.3075761645431543
Ni 5.0715019695319725 -0.09283819697582774 11.01518770012286 1.15583171284659 1.1273017237276972 0.24345827256279362
Ni 8.419205453279055 5.333766464833067 0.9747792554143401 0.4233336781676193 -1.3385299326121916 -1.0904997244079992
P 9.297185858376743 8.03186525193718 2.7132006923900764 -2.1361894915901596 -1.4914174967742637 2.6136826865193177
P 6.84199847959079 7.967856193023843 10.937384577629027 1.1548276970621079 0.1504257328851409 -0.41390621420613233
P 0.5738566213712062 4.824255841011879 -0.5629622721185112 1.4150493051261694 0.33570508311435737 1.2378807569295454
P 8.917178481359338 1.4265684851290197 11.37518296417374 -0.6434954420963176 0.4656360384802561 -0.2553126007982184
P 3.6535008221896423 4.396687208502603 6.997003247342731 1.097952838251935 -1.5943593251458283 0.4251601898533969
P 0.5180983821313123 2.2804619546292444 4.227152310120886 0.5826497715638546 -1.0554609876363115 0.8040652053939958
P 6.744267710841004 8.586588771055187 0.11566555755958215 -2.0487588714803167 -0.1940205867569562 -0.5940217608462222
P 8.614639144610306 5.113224811732589 6.713615576959114 0.46405198182258783 -0.6468445610742085 -0.31720111077289886
Ni 8.98587497860667 1.763386455080915 6.605857402997018 -2.3459994799708888 -0.5138712193375602 -1.4342837278757494
Ni 5.441846726142072 8.012799908693562 3.1155277015221876 -1.6425644240961457 -1.341983695488747 1.9285885950456079
Ni 0.12180378126308998 7.768746807474249 0.47246965072090286 -1.0060091607630868 -1.2589468335712253 -1.0935845339809103
Ni 3.7465998449420748 0.41301993776728585 7.341891965079595 0.7605443992932257 -1.2551400582306256 -2.196685234982372
Ni 0.925813624833492 -0.11714697371424697 7.687526960127456 -1.1152273090616664 0.3692296972343641 -0.04288522939930033
Ni 7.338569917198927 7.490340816603217 1.811019182404809 0.19261727865152634 0.8899464787388479 -0.1467878790222375
Ni 1.2879038489477048 7.014867492526114 10.395525060069604 0.998085535040636 -0.014340070771755949 -0.07115605131953551
Ni 1.5154163261844813 1.1751918416413456 12.741108992139406 -0.5405140187360691 -1.9919470046975951 -1.5735907251399093
Ni 3.9580172368894475 2.856654869522563 1.0311909514041613 -0.9493073371956682 -1.4743458860039578 -0.702722346078435
Ni 2.8760729308982445 2.396571194470737 3.484963744839419 0.3840811604248998 -1.260681813984461 -0.2559980569010172
Ni 2.0875529825590746 2.3587282517228143 10.331157713790537 0.9767343230583696 2.8885454415353222 0.45280571948480725
Ni 1.230197306130968 3.4646945189187326 1.9559334269629143 0.10978764764880447 0.038163398443598784 0.817675597088579
Ni 5.955098018574349 1.628573872183973 13.39564524519198 0.03935227654537739 -0.5963084999978697 0.5224666743160551
Ni 0.6121710925693608 6.856311410107664 7.69726754980606 1.387397604847172 -1.3182848092099102 -0.6135739719465368
Ni 2.202724734733769 6.535272935537538 13.134293176006198 -0.266810831245805 -0.10122741678361921 -0.4370744247924795
Ni 8.232933151325334 2.662102973521468 9.321666353153141 -0.283494462549073 -0.6662373637785236 -0.3376964025127733
Ni 3.0347125518216567 -0.12709084042159302 3.68921817408908 0.41673674167639196 0.9009893668165708 0.920996148955801
Ni 4.050550054219357 0.3719561215502609 1.025593871571687 0.44108688838598226 -0.4807548963995656 0.32121434569735
Ni 9.126767308253646 8.510745090605523 11.757987024696162 -0.03560952167349351 -0.41730392703377167 -0.8835125501880461
Ni 0.1786851492919215 2.6554663034050185 13.633318789249005 -1.005333217741985 2.0630817158608923 0.2795287930331057
Ni 0.5019810199072521 -0.09745694809463236 4.82790461726751 -0.6069238136198708 1.096773473231853 -1.2332304026417276
Ni 5.894040653503013 8.765602505133293 8.698376285573296 -0.6834151611093907 -0.3026748921322658 0.20360000291527516
Ni 8.205291188238919 3.2520983058457804 3.2207852895690774 -0.5111430217731197 0.08277486650538649 -1.249190782625726
Ni 9.01923468825495 6.88723922105593 5.289693406026178 0.906178110106362 -0.2039365603190875 0.10252453832848794
P 5.92318630967875 5.9373692914101275 7.950197081280423 -2.670525920760607 -1.6346667665156234 0.7396439016951326
P 2.663226102310406 4.3566258543451255 4.082265911731101 1.4419594992534521 2.019922663974915 -0.6322694914735112
P 7.506361645443765 2.3759743119694767 1.2638837441542112 -0.17561303078404594 -0.01781054581885965 -0.009152355923229398
P 2.583400419790873 8.856798706383806 11.655215171274705 0.40336340569327944 -1.699946047339408 -0.9569010903825261
P 7.36356649429487 4.434855023214268 11.071498221701116 -1.4300097830907437 1.5325402349565027 -3.2018040227207054
P 4.944124313576675 1.159235987193546 4.046278451998952 0.49102388242574146 0.11556440223158161 0.13983972983917853
P 1.0464033131577966 1.976344668342037 8.132810396716794 1.6485430102770833 0.9677344335526042 1.6132993565834408
P 1.7164378152921012 4.576740532864685 9.991472516707214 -0.583052663429228 -0.3790194296312763 1.2476249808005029
Ni 0.05886772803571293 3.7642264694891203 11.1699232882477 1.248173139994489 -1.2040378402381715 0.10497659941340631
Ni 3.7371507118252274 1.3830356419875534 12.271617025017601 0.9075541645182822 0.5848907450792313 -0.010053527581260106
Ni 3.35211246039787 0.65813490620523 9.419181778201246 0.38319001606919817 -0.9929924367884447 2.6603176127690378
Ni 7.2637101346965975 4.329243788829704 5.104431919982502 0.008100774730263468 0.4712127612370853 0.47428265841166056
Ni 3.8101355189939587 7.602236002972167 9.999691777389895 -0.9581971834861304 -0.22895930761567024 -0.6906013944451849
Ni 8.25577629140447 5.859780584412363 3.0778824665693425 0.1419997136049748 -0.4383118967440064 2.8528117355791385
Ni 3.324192035628247 2.500390992026665 8.040919897669482 -0.8630388557147265 1.4745677722067767 0.16444981507837486
Ni 2.1580130704667235 1.5662448654259888 6.01817423084894 -1.7924229716239066 -0.6536798388284872 -0.8764276183168067
Ni 7.685690969429507 5.095885930924858 8.805522772037945 0.4085868588757479 -2.1596240684640162 0.11194506031143947
Ni 5.213768043482773 4.509547728706673 11.844036325835386 0.7951815297511208 -1.6229340514597277 -0.6079440273542691
Ni 5.408125016305623 3.382715399382393 3.4115222605102273 -0.5441171627062952 -0.7995053539374554 1.7963253920021063
Ni 4.64271738767269 4.275324324904592 9.076806641258136 0.44704644840352686 0.0003594402219477681 0.7145309086775887
Ni 2.627165314335012 3.5620354413120285 12.444489750775368 -0.4520698697600472 0.8662630190789792 0.7404430005576602
Ni 8.394951440671665 0.5560582787861824 -0.02998753866463439 -0.2699529764192125 1.2317414768010269 -0.16638791264135214
Ni 2.1673508189102875 8.178066917677317 6.083559818682934 0.49902207013986966 0.6051955180748545 -3.3302193127730257
Ni 4.204715724099232 2.4059739173070502 5.74066859942028 1.7708133637739312 0.6489700920576437 -0.1522692138517829
Ni 3.3079948477216674 5.51327214788484 11.0616351088819 -0.11794061577324204 0.618243095287432 -0.05549366219193023
Ni 2.753354867108623 5.674937719099109 8.618794721129376 -0.06536104190431324 1.2340395288065844 -1.010244539000673
Ni 1.1910734396402898 3.739471225851958 6.63377504314981 1.1171690061690696 -0.21734383486392891 3.2886684859144326
Ni 1.240156952333696 6.080572853027727 1.7897994739387737 -0.07583982994845004 0.03200432082073843 -0.2606682086831769
Ni 5.872617668008236 6.197396811189453 10.078839869813622 0.051052852811757234 0.16163574266834743 1.0852281915964148
Ni 2.6325674709892413 5.929312466709319 6.04696159965895 -1.6574277143612228 -0.9771405573578527 0.4717650341961294
Ni 3.4465945095102337 7.517750728286958 2.1055610996121152 -0.4101272067796743 -1.9775768520188521 -0.8513171964024243
Ni 8.716435453934926 6.092853013257185 11.729974707571081 0.0662429302886343 0.6357813612815115 -0.5160638561135047
P 8.183970305361319 8.759838348290895 6.459965757930854 0.6652258917948737 1.830124085719106 -0.9439936382922388
P 6.725740726851586 1.513197914774927 8.00241885714358 0.5311235786601046 -0.7350208011008245 0.3724204362575199
P 4.639255180744807 2.5696536946965205 10.604818717579711 -1.1971521688619318 -0.5013347774334462 0.07142627426178666
P 6.001220555369647 5.52307399913375 3.5014969431770693 1.847017519040335 -0.276622160909272 -3.0945913348879284
P 2.261693637181047 1.600458524236105 1.0648681073712973 -0.888762742843392 -0.0051162381806428014 1.2228009797782877
P 3.919181114138084 7.552697669529522 4.810121125972258 -0.6795330524461651 0.03441858668918588 -1.3343094667729407
P 4.165805344899013 5.4438887784855945 13.406092199340321 -1.3461640521186815 -1.0551956497900665 0.9316968232027566
P 2.7460870171769023 7.859655264985448 7.962043769489688 0.5491043315082414 -0.7177399025331896 3.346447087485798
