# total energy = -340854.17531558644 ev
CRYSTAL
PRIMVEC
9.42853711436033 0.00000000000000 0.00000000000000

0.00000000000000 9.42853711436033 0.00000000000000

0.00000000000000 0.00000000000000 13.79961711800196

PRIMCOORD
 96 1
Ni 6.103799218571165 8.356220165505073 7.105256945978104 0.31442560491029076 -1.000804990854328 0.5970003838585718
Ni 6.584381184154931 5.884463159530236 4.416111816731492 1.3136647939393955 -0.07256527296223632 0.3471567765947247
Ni 8.17420225638823 -0.4657904765486718 0.6116857742483458 -0.6313811753312869 0.27243666207301465 0.032242404973473505
Ni 5.423143695284243 3.308633960816122 2.1777318472778626 0.45291576270011025 1.8808699488134057 -1.353306576700734
Ni 2.7763647547361874 2.4288194479267626 0.6371880814526575 -0.12846362679175297 -0.255731690613508 -1.3598106963678387
Ni 4.883765372215232 1.9787859426143541 3.9152415249712114 -1.2367967798367474 -0.7316130609708561 0.3677893652434117
Ni 8.400185434099315 1.0020177825119143 6.5039802767111095 -0.8349346412793428 -1.0233165416932826 0.4482337838434087
Ni 7.400760499295618 7.4563700112340365 2.474768480731218 -2.552254661120824 -1.142295626033368 -0.8097110908258636
Ni 5.476000074383389 8.031869060012792 12.324576411492542 0.7917262242126688 1.1057131989236442 -0.39230097723153085
Ni 4.653416781817222 4.325812831018267 4.026355892086005 0.2405660386166631 0.9618358086799823 2.1454488054048984
Ni 0.3355720075197346 2.1849974779831434 3.2424956014749196 1.873874234221863 1.4518351064959514 1.5133058122069227
Ni 2.7721030559575905 8.55570915390674 13.143445803286829 -0.5285139089513995 -0.7029357476408217 -0.8469118682458768
Ni 6.436730292843366 1.2767936398230855 12.332938581064969 0.42616857651325313 0.7790805104242002 0.9886490722180844
Ni 0.6843251099343329 2.0156043800710375 5.504956997588758 1.8486699670420936 1.569191824741265 0.9440183208825872
Ni 7.938507685442732 4.010663977755875 3.0245860801003666 -0.5058681465274255 0.4137344645149584 -0.8025976197095339
Ni 1.3059372480634461 6.014133830552455 11.118461914488032 -1.2131074066396077 0.6674321554175732 -1.1525540705365829
Ni 0.9714033224807104 4.761005818902552 6.571874229664203 -0.1423658386951419 1.6716808818461275 -0.2720720796447443
Ni 2.4057383890550694 1.3095389492435876 11.762434771252808 -2.089310310540118 2.7664067285203324 -0.6788702220511856
Ni 2.9129088293194623 0.9561102352707896 5.213536943698257 -0.31192880663036604 -0.47793593889353175 -1.1649645283857937
Ni 0.3255117584118521 -0.15174099071456357 4.781428973159895 0.7320905148279069 3.0189098848942137 -2.408464945494962
Ni 6.126031709101986 0.7480582494560224 5.848029406388081 -0.9609755175622159 1.532868564830199 -0.23831349513706057
Ni 2.497685483057009 7.3339027425721 9.102158879816344 0.3566194646695213 -0.4597641530805114 1.0763074920680173
Ni 7.229481693959355 9.154487260836724 10.715913350677054 -0.6730682706574279 0.17834765610638964 -0.3907968818821786
Ni 2.5295822241366404 4.156674303608422 11.630331537653424 0.06623778808231173 -1.2095068337725428 0.5026452687147537
P 6.256324663574178 5.368363894612456 2.2873555626738593 -0.06847824737705625 0.013341454303912505 -0.301171568113862
P 3.9605135888103944 6.008853849764813 7.7103842298052285 -0.5956058175038904 -0.3059733603778795 3.239673544072969
P 2.1086923270645928 3.83591547075916 5.080646427249288 1.326234145963974 -1.8102893103813662 -0.9122960500786418
P 5.888753143920195 8.714740289523098 0.647534958089012 1.433197436790106 -0.7233904159507477 -1.4233953630980194
P 2.39118072774057 1.1804434189857367 7.32939024470609 -1.518723126567752 2.0516333648146348 -1.1252893212833588
P 0.7382035424573731 0.33646111857022504 13.401718892075483 2.2558085235070893 -2.7739475169820675 -3.6792151994590183
P 8.248508557437173 8.250724263660558 7.630636719983878 0.5228615957616285 1.1384166026939364 -0.3627708289828978
P 6.54556389682864 2.9771925954090057 5.657470185493515 -1.1272402743621426 -0.6126668867512353 0.006532916022511329
Ni 7.862136534764337 4.074881744085572 11.544953305463538 0.16679594671304823 0.08538967842041423 2.145974081780749
Ni 3.116320089163377 3.613062567372177 2.5574416656211496 -1.8737811602874246 0.3600765699801863 0.6891908872509034
Ni 6.348922326637452 3.015943882975451 10.13721237069208 0.41336782520415905 1.26671413622147 0.02461831276931244
Ni 3.6629395287411537 6.696411062224152 11.66891499725912 -0.4393596212822304 0.72828553925952 1.1676413038870084
Ni 1.7339079765132066 6.39105845903026 13.305645870229485 1.4678415092265367 0.5383686902582921 1.1650609447543419
Ni 5.650861723825553 9.204911077358707 3.792893998730709 -0.44135531155602054 -0.8145951583910424 -0.8549517078312178
Ni 8.915398416527742 6.5165334310337295 0.1555227769537123 -0.9740668035285354 -1.0363119255116862 1.0920313305611773
Ni 6.416939793426829 1.972336823223734 8.111676912471713 0.5776006391757214 0.6716924733558239 -1.5257440379702754
Ni 1.1887311031149106 8.644620258955786 7.4940615312281045 -2.271736764701571 2.369826150076841 0.8577686084547227
Ni 8.896795912788425 0.6229283619111753 8.8955918885981 -0.2618177489065878 -0.17287197770379906 -0.5165605932442653
Ni 9.31322611180234 2.986375990564655 7.61752633911742 -1.1006949197734464 0.06515663920299102 1.0247113651582802
Ni 6.283733420984313 5.76390988390382 9.349185609527318 -0.08460369218400914 -0.08104220008499592 0.35551363319985224
Ni 4.666899589899951 1.8045465766221624 10.943937806674791 -1.6814580158375494 -0.7043187440312773 -1.3162135285031784
Ni 4.027984200446765 0.8753783861740287 13.001750918874468 4.049448912477865 0.3572054190799784 2.499792586666366
Ni 6.3773587945937535 5.574415144850191 13.36161743799334 0.035207401139068395 0.20279473340516044 -0.4793315336894778
Ni 0.4628808299931961 7.406445907179455 5.574548087223594 -0.3313272657616358 -2.395436394445778 2.0013428440901984
Ni 0.786158025107421 0.8136865249389904 1.4576122390181643 0.3233979836122301 0.5108051788177267 3.2255407042160122
Ni 7.471983668706064 6.514657152146691 6.624547695143207 0.34963454871125593 -1.4861865873926274 0.1927851716879583
Ni 1.81096741040142 8.121025307026978 1.3062625325941135 1.0186736436046326 -0.20100061761921514 -0.7344811265472705
Ni 2.3940187174139282 0.4383260907695237 9.40801308118506 -0.1230393704523881 1.222335610106095 -2.595270245450401
Ni 8.570870241596971 7.475368513532427 9.745454767615849 1.7495896785084641 -0.40578538487121085 -1.451642530869171
Ni 2.5179096951811033 7.205863208471777 6.667864280383538 0.9472885069934266 -1.0323254300601123 -1.0935205135121941
Ni 5.472860371522167 4.677120124138887 7.063348041329906 0.48157893496275767 -0.784406550622804 -0.39552822591957687
Ni 8.410283397355682 4.016971669089682 5.319987013499396 0.09608289646820227 0.3726477217769776 0.5102035406779858
P 0.7604869470886472 6.1763235261042775 8.248417100627101 0.01473139267290366 1.2001752719589718 0.6659288313991694
P 8.184281362570356 1.923044431156246 1.9938376592739826 -1.2403315324628832 1.959470629336445 -3.0108160521424856
P 7.301996572955347 7.085357075530966 11.323247855044157 -1.0079292606039352 -0.7989682504870627 1.6400267452759563
P 2.774573332683237 5.738132263415582 1.7426850017189497 -0.6051662074988158 1.043135119081107 0.6664929314327553
P 4.260991638312838 8.187373922745975 5.089947679118946 -0.9762717815996541 1.2702406613174897 0.2862961936639263
P 5.535494143615571 4.902377304491671 11.359264866845574 0.3611412637992748 -0.21997381628760826 -0.12164557542865502
P 7.312264249879887 4.286420402927607 7.919807124917359 1.5977354407069129 -0.9357653368451756 0.3137231795266275
P 5.006656925047604 2.659790321774745 13.808311355457564 0.12192402590102228 0.5372060374087587 0.027990828785971145
Ni 8.54914689207067 4.967255068419824 9.500677686861893 0.9979387250501265 0.7547280497217647 -0.4148397817639952
Ni 7.229349694439664 3.358077209477543 0.5776412124125987 -0.12622959525491165 -0.2840783600770011 -0.5526619669525128
Ni 0.29588446621719494 3.0620965721817157 10.426383718479274 -0.48241840014491755 -2.6236333699741268 1.747297797150494
Ni 4.312773164180214 6.13335768244484 5.683744689888019 0.7790432294283616 -0.5252506648190954 -0.6885612240867045
Ni 3.9254677163324194 9.247716635887093 7.071075670354105 0.7676488715484909 -0.5988711185187234 0.7698651624735192
Ni 0.5214480740264048 4.977673601938297 2.2341993560942717 1.2172661660029875 0.23328081780915955 0.36525425752638385
Ni 3.70026710720236 4.867180575419763 13.80003121415809 0.6966008065617293 -1.4078052219692463 -0.546540170325491
Ni 8.849389228145094 1.7847560772056248 13.039451867405656 -2.1095058116513865 0.47097956218035664 -2.2682318368721064
Ni 4.582080469961328 6.685681386980694 3.551745019060834 0.02810138622190644 0.3803905989471901 -3.214722016333954
Ni 0.3550466509427255 3.13809058137528 0.6921489100371643 0.6805805198740731 0.7834668124173539 1.3661086135614087
Ni 1.4489964417971868 4.3849674729141 9.304846970863093 0.9047999988119126 3.6149630743481675 -1.7987566271514182
Ni 0.5166338629725297 0.30611725755438784 11.020194872054025 -1.024212828255307 0.5578694792953811 -0.5939664821282545
Ni 4.514355287822696 7.038402960669433 0.473638790848017 -0.6666965628031293 -0.7657560254011523 0.5225381509839389
Ni 4.19808443864293 8.980379894364225 1.8314989928356513 -1.7836333983567345 -0.3246285135852216 0.9926124277412066
Ni 3.0379406600782533 3.7547546232234033 7.649390080317128 -0.08203001791956195 0.4383612619247031 0.1550442054937588
Ni 7.2756249546284995 1.7985688840875818 3.890071102273551 0.17243154773227076 -0.7508431128450618 1.1717800086457304
Ni 7.591744947214333 8.482336278032756 4.831798104166577 -0.018104680020510754 -0.8141197614165205 0.4810860544867392
Ni -0.12973478507464067 8.085564578915688 12.346710845237308 -0.4401278669068227 -1.3715842919639993 -0.34898483094239896
Ni 3.8566865380362594 5.341181422093219 9.970471520272051 0.2076636314616875 -0.8893751796164103 -2.1945008257365433
Ni 5.016820888063815 7.802293609658685 9.440193621232028 -0.7520934403123951 -0.6700490242151298 0.6563139340172245
Ni 2.356483711136064 7.7179459165761015 3.5057233865205477 0.6948861378634678 -0.08386192892197816 1.3628373990093046
Ni 9.633890659280393 7.297112590726779 2.5240740727506754 -0.6601194238062438 -0.1523049521857248 1.5134001716929422
Ni 4.407275391741889 2.6252535903012926 6.291797648783724 0.5303010827588093 -0.9789871236482881 -1.053376851413773
Ni 5.916152472793209 1.1904848110193773 1.6719342020182568 0.9734337979302268 -0.19987755975836544 -0.7571088912491154
P 2.4010241204946747 2.6205676073522604 9.564252426959953 1.3292382228976205 -0.9830929182865457 1.3918235018290095
P 2.858345885001453 1.13677986357936 2.3714090853982746 -0.22488745153914172 0.6295091551195546 1.1352058090661223
P 8.11031448885776 1.7125240543232556 10.636634439150606 -0.9668911117157026 0.6200022440703838 1.2121694682063706
P 8.311180043679062 9.333723751502935 2.795733798543426 0.9834335894554161 -1.1845079977353599 2.049998914535005
P 0.5313574665403547 4.712797708603954 13.118881635526037 -0.9118587054309071 -0.5609692012666275 -1.338335042992566
P 2.8695564156380717 8.855583777033454 11.024514084909057 1.3347565816126883 -3.8572059864466217 1.2865586817512231
P 9.495479734347203 5.854970695416406 4.361203787954862 -1.1084359971714457 -1.8999879005897795 -1.4956284495318177
P 5.438747924219149 0.2946266993652816 8.856056146743205 -0.136023698527198 0.5797032873410211 0.09520126519419733
