# total energy = -340867.3270028587 ev
CRYSTAL
PRIMVEC
9.30600708173485 0.00000000000000 0.00000000000000
0.00000000000000 9.30600708173485 0.00000000000000
0.00000000000000 0.00000000000000 13.62028202973278
PRIMCOORD
 96 1
Ni 6.059299487795882 2.005854015173119 10.751033757422078 -0.5192250274503057 0.48221708276738884 0.9988910616610667
Ni 8.383530621177362 6.649849398481733 4.950455228701072 0.4609800277654835 -0.18684875159886533 -0.6536698115261581
Ni 6.806367133520503 1.1256918545234438 1.543586483090987 -1.2017279611580725 -1.023411158289618 1.5539660089304461
Ni 0.19228351249726988 2.515469581270576 12.37646471260528 0.9371599031998569 -1.1748689319836991 -0.4131978752851981
Ni 7.7777281646963665 6.965081086257658 11.12224107848525 -0.5388487152185043 0.26562966645351027 -2.304415228771199
Ni 5.014355857716901 5.247452725976078 11.093024868891682 -0.9842416871790081 -0.028940594293750156 -1.2307654860410029
Ni 8.388816433265003 5.105061509861671 9.359122163224775 -0.04096615799971654 1.2116598755598036 0.3854790692136909
Ni 7.724600169611263 8.749033359829049 3.3790288944808866 -0.5779757631269529 0.174311538363803 -0.1575713427909867
Ni 3.229258945260335 3.8556462896600987 9.747654477885765 0.6607007502310104 0.5338530617761258 1.2735044196704262
Ni 4.1592454684403375 8.273207905862265 12.475810992432047 1.1003035978722986 0.2932525703771014 0.012362635330410966
Ni 2.2326693285746257 1.3337276454023135 0.12462325657403525 0.26483622401793744 -0.9638523248893788 -0.2665586060256829
Ni 2.654426880729457 2.3196898018695626 2.4380166139744124 -2.1051714459420907 -0.3197403322549848 -0.4258698143259117
Ni 9.148223844532247 4.7616233142730024 1.094309206454519 2.7901791483495817 -1.186931776685504 1.075289078105832
Ni 3.051998120180455 4.537208950728206 1.5578609675297748 -2.464071993336305 0.17183967978454276 -1.5055117700838008
Ni 4.109337351845241 9.230302828005817 10.134524739661451 -0.0161311012339077 -0.4581513000674367 1.2804695381343496
Ni 5.2145187665074895 5.174521547576719 1.8861368855931049 1.71232719461258 0.3010054748496429 -0.23595296532468396
Ni 4.824094540583441 2.6066126157535847 1.0340248918352697 0.1024872573326493 -0.08143557886867264 -1.2861375350534043
Ni 0.822226682246835 7.87605543673511 6.638511889914176 -0.5952682316588135 -1.0708791219635945 1.5641817731211836
Ni 5.9665837380966575 4.060778606293645 13.01785706300876 0.4544939058205076 0.536534979483663 -0.8576215413538971
Ni 4.660820644319975 4.826756058641655 7.734767913074213 -0.5938597813470611 -0.259434850496708 -0.11705281385165003
Ni 7.300106651340647 2.0536310561202056 12.873713525739241 -0.35937722992031657 -0.7004492337735421 0.3656386374489961
Ni 4.0751936114411 0.5383943933527874 1.837920601106341 1.504916302591647 -1.5841157930409493 -0.4998923885599648
Ni 5.315070174266209 8.63080984440408 7.768164381100472 -0.64579580809472 0.18023381738550895 -1.0399130125993832
Ni 4.21534207982114 1.4529748216189018 6.533757889305495 -0.5281966348212968 -1.6743455731624841 1.5578401471738719
P 7.486729319660255 8.755166018571575 0.486237014818285 -0.06345482602053588 -0.288397042057013 -0.5312745024156721
P 3.5623023308104576 1.7976879401934978 9.20744727433109 -0.838852231166194 -1.129836574334409 0.104838016953013
P 4.302343941101683 3.461983573231651 2.903653851262415 1.3305314877877472 0.7311098960821926 2.309238104081139
P 2.4000471740117697 5.733310055700745 6.936101249246884 0.26811412343826085 0.6526524260052373 -0.024265557415584015
P 2.3149623502137153 5.289004048108674 11.09920871067379 1.255610827219457 -1.1532408121909623 0.6883912741677436
P 4.130033911850368 8.437728807090068 5.947922401865416 -3.5721014990979514 5.313564948954855 -0.7151921964106714
P 3.0150160475813665 6.70895185018702 1.1222346728499255 1.1247005386594242 -0.5930431989830367 0.7813651926933188
P 6.734636430049497 4.291344240595361 10.429104536266795 0.5962383088815666 -1.1202553584038772 0.37865844674743177
Ni 1.9140316421647625 0.3727967870923436 5.7935366730753755 0.49804762204174235 -0.8396127634813024 0.47937729932574863
Ni 6.041413341964113 6.5296437035239 3.8918727144748275 -0.7393693078775073 1.330813280694224 0.13499731414521265
Ni 8.765384014473387 0.24573814843497127 8.109856769739068 -2.328712153645351 -0.5924736996328118 -0.9950464911039959
Ni 1.14536475373695 1.4285558587351554 8.617130013825154 1.8975826335823964 0.9827720446120171 1.0369804123336204
Ni 7.584116684972148 2.753470715322336 8.92866721674405 0.7943595480704577 -0.8217469389444751 1.9262422063006182
Ni 8.093583354954461 2.3926675103049058 6.66075417771465 0.6707414222964642 -0.7520960114155564 -1.0396703004609578
Ni 3.6247828631280927 4.344537377730839 5.784588016555173 -0.012811292832055355 -1.0191814364789866 -0.5881984692962257
Ni 2.228704969508896 1.527506633256069 11.275046647253317 0.4375721903645044 -0.6900964297843082 -1.0592088847145178
Ni 1.5835194905721017 5.640445409886374 9.014256426132157 0.43667821779532534 0.39010242691831526 0.14937903678818143
Ni 6.226044524743661 6.82328545460383 12.693858185852964 -0.47503187787285933 -2.2610327480205066 1.2920821826726137
Ni 0.7792822508369169 3.5974325079774325 10.085832918206945 0.19903500925241205 -0.6389978113362801 1.1288348725427721
Ni 4.026997800170169 5.578858254259608 13.11506482238176 -0.2841513794067816 1.0638831502617356 0.5767570602285035
Ni 3.700636127787169 6.736162615229732 8.747067931109138 -1.1950186674586967 0.7639806786682842 0.03590314165451236
Ni 3.6084135964693616 3.2497973031431204 12.637565217720315 -0.9157043044292423 0.5686938236043948 -0.6662047107683752
Ni 7.447504499326797 7.610638805482315 7.251411107483261 -0.24256995642056936 -0.40346907803320836 -1.8017709884977098
Ni 0.7103973243666164 8.765914456883591 3.8722733327181738 0.7388244911176308 -0.5294305072283979 -0.42382604442300553
Ni 3.1080668135396676 8.250231374093984 3.7468851223525825 1.8996384876701606 0.8989944478737292 -0.5295683183578428
Ni 5.321174914987146 2.868651166394032 8.513261945101583 -0.4910485650160898 -0.9142842841532641 0.18980809133750537
Ni 7.17964038818131 4.564996688217104 7.394505857741727 -0.8189449507193057 0.7117497463880259 -1.3386764854923847
Ni 6.527922092192538 9.271435379814566 9.53102365876016 1.655224536062317 -0.24925456752959657 0.6087870920808548
Ni 0.20165093934131684 8.452181036266309 1.4958066503417418 0.5978815009119445 1.1439244198860428 0.746838619671359
Ni 2.689026615486229 3.0443858062936777 7.661190897775413 -0.7248875693215644 0.5563628128428677 -1.1691610829656445
Ni 6.954072079744141 4.436303914696017 3.72280489813079 0.9130200727288598 -0.5771265277527802 0.0885361944691959
Ni 8.086175773226007 6.580017120478824 2.211034723044087 0.14539691221198184 1.2264000099834556 2.1711678074375573
P 2.028449000646342 0.32541525145111055 2.2129964293611195 -1.971284334141921 -1.6624501072764786 0.10118936445683217
P 5.884383776529534 4.694396718285128 5.5851053768906525 0.015645934067373055 1.4477750774939646 0.35442451390073154
P 0.43746423110116783 5.494797091253175 3.3530679262046723 -0.4051487797284764 -0.3152424443846312 0.9208786495413301
P 1.4068542499528014 3.2604805994047594 0.4356784083201499 0.028499650101589624 0.8644259658702403 0.45681818307831
P 2.172971292408759 8.396400829130188 11.456305333024833 -0.23429254690312554 1.176330089910258 -2.961902100050602
P 5.393892055220985 7.340839044839944 10.599603616517662 0.12081768021072094 1.2953878500070788 0.07968620027773374
P 5.469884909988011 8.580687689643463 3.141953708145184 -0.14608725341078713 0.1160426274195808 -0.34126097993558
P 4.414816344079184 1.2572508782610676 12.6365843645618 0.30715092562574847 -0.43462544903135475 0.0769124941873385
Ni 2.9192572335288696 9.074436513470804 8.157201081351515 -0.6221655702702898 0.18560459477911903 -1.2385898671814282
Ni 7.019753878537389 3.378973989038427 1.4400320268099405 0.9942057403702556 -0.6771244430046726 1.0096282455729126
Ni 1.0201431209001766 8.296445005832048 9.46335874983333 2.065800400343636 0.551324993308644 0.7414323610541231
Ni 0.21945798411191478 5.391072335040431 7.196330712088322 -0.44312088809687555 0.23477360030460212 -0.9887215773272328
Ni 9.143645288991545 3.2432365680695527 3.20596880104953 0.07487026694632912 0.6499537961271515 -2.6268683319716564
Ni 1.7771123582819262 6.806190319383769 4.743699013811728 -1.3956855558875771 -1.941388060803121 1.114249261419113
Ni 8.95930259243509 4.059782863523614 5.250523708350941 -0.12579456460002206 1.0833019211079795 0.8680810461243242
Ni 6.734543369977533 8.913005206632256 11.994987281999993 -0.16647353037662296 1.9596385223728767 -0.018691919982548454
Ni 0.012023361297942275 8.977802934741831 12.006809633542492 0.47471074708801475 0.2665295525599603 0.2180616868665599
Ni 8.751750713930441 7.134394581191685 13.456035064861904 -0.36402629865655367 -1.929787243339399 -1.094923821617624
Ni 1.9826727512465134 8.00803323079658 13.395642800559173 -1.4241371263600506 0.13179397671656656 2.6827273479228055
Ni 5.388103718744731 7.532859197333552 1.1173797288954856 -0.2697735134185547 0.5418869878241958 0.7492258889566128
Ni 1.5551640866442147 5.516675514172263 13.219954690695513 0.3205772263339834 -0.4636390626548854 -0.3608029066232496
Ni 4.809121175004193 6.693503878240747 6.142420744075465 1.3279259318441001 -4.462178846987708 0.3528340294851601
Ni 8.55898608086111 4.598479702110289 12.366848815369085 -1.0635242242604201 0.9460466641665256 -0.7230703136071676
Ni 2.101798949369547 4.006701398474494 3.9638286233199898 -1.604275812928592 -0.3989971583047838 0.7256036215519825
Ni 5.899580486281499 6.417934393136517 8.622523775596273 2.415431606620782 0.3320865125251635 1.5320725512914646
Ni 4.698212181235713 1.2257314318863535 4.151584763316138 -0.921800132914335 -0.43790360556199426 -1.525221332697586
Ni 9.130030600462993 1.522518613398718 4.590294138180204 -0.7407047388594792 -0.2199977275470082 0.8257534890007068
Ni 5.859192415048473 2.5508231026102686 5.562441526964175 2.269672425973375 1.2826642317928232 -0.1322017536779465
Ni 3.5806537770020537 5.680247202666018 3.8226006581051504 1.8024045083166509 0.872019461946782 -1.1614048360589933
Ni 6.198303317290747 8.756748039794989 5.302839289007784 0.160737142113478 0.14014826221853283 -0.007229942089535936
Ni 9.106737664450028 1.6229769610854727 1.3711945609763423 0.9901948194386495 0.46520075071505046 -0.49503274647481843
Ni 0.6062444918228316 6.483271869663492 11.06481743047822 0.8954116156184772 0.31292485199504816 0.8890321944546947
P 2.6057192390627155 2.195175425579727 5.319510070299684 0.13492686591859343 2.644333835746272 -0.8207984589882767
P 8.510455253331104 8.892978679145282 5.607701292964595 0.08127977001709873 -0.02700583916488252 -0.3357181957404799
P 8.276855860683312 1.1039530217123035 10.806358900806286 -1.239225186772582 0.8287544806105598 0.019147519462728312
P 7.261505333489358 5.335152537796364 0.8408396272406543 -3.434598130701433 0.9997253846369042 -3.0524681804656333
P 0.1671433340557907 3.286202403296023 8.011763078480957 1.1256844998392486 1.062250499754319 -0.6158098032555911
P 6.533933772841509 1.2426590589768776 7.497393073306781 -0.9548627197962586 -0.7202115040021339 0.6811772729178075
P 8.522227352434738 7.48720392602728 8.94875702507996 -0.39875650304888743 -1.6356952077801377 1.6917303442978346
P 7.07383108635654 2.190466585938273 3.653314150591994 0.7457237893406253 -0.26323828340319827 -0.6095604799117696
