# total energy = -340870.49214994 ev
CRYSTAL
PRIMVEC
9.24742179461622 0.00000000000000 0.00000000000000
0.00000000000000 9.24742179461622 0.00000000000000
0.00000000000000 0.00000000000000 13.53453654013863
PRIMCOORD
 96 1
Ni 6.548876293017311 3.214126460304139 6.346046113363218 1.1361902844665785 0.2709904165447914 0.5684814504832726
Ni 2.8565009097694496 0.40510828821551237 1.893928432378213 -0.9154873033224298 2.3182724463692654 -0.5410238684929521
Ni 0.5633982598653038 1.7694387128360767 1.3742288651163195 -1.2335343070353917 -0.7585811049192677 0.0912340530163332
Ni 6.252681366747662 8.577446264795881 12.802751501943598 0.9887925397744841 0.34568713402773366 -0.274564764159611
Ni 1.7570934044823467 1.9368817827694054 7.885478322807417 0.4065716282179321 -0.8840583953891872 0.03153740848664891
Ni 7.602481317198777 3.2508479730177444 13.29727681232807 -0.19820762825511026 -1.7615869600796563 2.7305609224663168
Ni 0.5278363738689704 6.417156014222903 12.740520050934414 0.3869065456888369 -1.7113146941876656 0.4024383227758489
Ni 8.854175367781183 5.290570335713618 5.927883239527509 2.126556853596402 -0.8389306498126132 -1.0598074375304651
Ni 0.4379246146236641 0.39917699175252913 5.778827743474748 0.5620549781316385 -0.8798644119124976 -2.872115835224389
Ni 1.4096585129782269 5.024189097932678 3.992999824649671 -0.7560809642052334 -0.7211903229756353 -1.4673002920110858
Ni 3.965497991657915 0.4202074788372134 13.23994372074583 0.016107189974507743 -1.243306041710175 -1.0553607146130213
Ni 0.9584767941928344 5.039132931864985 10.554367535288119 0.473369659679088 -0.5734413655917092 -0.24836470872547545
Ni 2.1883469288840023 3.386368942249143 11.779580668266226 -1.7550185628335195 -0.5793253351763119 0.1756441411322975
Ni 4.440140420026389 2.1758351669344917 6.532295665393161 -1.4453916648634528 -0.15252503861633088 0.5203987360434328
Ni 6.156841085265969 5.5168085146454615 10.78450812629882 -1.1206942457135087 0.2907745411502541 0.726322244885562
Ni 8.729880768842989 8.925297290289452 1.9789390579699786 1.2422601169441638 0.9695797142914593 0.6507014729264535
Ni 3.893784234142426 1.53962178159495 9.092448141687965 0.9450485619193144 -0.3107216736961423 -1.8419632444458793
Ni -0.2050153454698126 2.770083751293338 9.883379219563407 2.4731839829399016 -0.27000208448959306 -2.982730349649863
Ni 4.503355796735079 6.988507981739924 12.647361521829184 -0.7399328936904611 -1.2281792133710654 0.12384258307997383
Ni 6.991291455758256 8.587618428982475 3.518614474612458 -0.08440597435090624 -0.35817472497178315 0.18825334525587578
Ni 3.7745664698755417 1.9519828228755038 11.223731078969573 1.564856687701021 0.18692897001749742 1.579974774289382
Ni 2.6519016982890893 6.021542054162278 8.586702934205682 -1.4328133139778096 0.6970018986548899 -0.5722974817952531
Ni 3.1638482269564006 5.255596585755709 2.0497243743178917 -0.4593890291292798 -0.1528166017148207 -0.03457773797486948
Ni 2.963021963647067 7.970510217469755 3.415859895710477 -1.3879059119421582 -0.4882769158082236 0.9281528146052401
P 5.209960558245852 3.9971796593881623 12.9551906297017 1.5795852521604472 -0.2534153837755055 -0.3217085117249492
P 4.4403438633101215 2.4356044979941447 2.4084438948737388 -0.2275336309127372 -0.5610393923829305 -0.6281467275543892
P 4.970812978219022 5.703846871770965 8.226548213757326 -0.7526320864246845 0.027718034740558718 0.5104645076488563
P 6.316516320729535 1.5898445304107618 9.938667706144143 -0.737877039602697 0.4750478187124593 -0.2925264908443543
P 7.938921023959386 6.810513603318502 11.505479682609858 0.03443529885973424 0.830392530434615 -0.14548458682978171
P 5.734992189025919 8.102988784867163 1.6230890124569495 -0.32975297929598046 -2.011099923476962 0.3645685443132689
P 4.669236052352467 8.458653881940435 11.197514637634121 0.36298654453812973 2.4771445102495466 -0.17435190468343523
P 0.5671832296849156 0.7331004749902552 9.923955057761532 1.4522207719701443 -1.0732231967157388 0.5232989404093633
Ni 3.530989374716549 3.725814061155792 4.050711135791214 -0.9955450280069692 -0.8017576403067418 0.5916208647142133
Ni 5.483785970726981 7.428121175618563 6.773602518454147 -1.0388156657701464 -0.8619330242450575 1.142586674911226
Ni 5.717893705770452 3.6207356051082735 8.900825837483103 2.3189787284076706 -0.8270261850655435 -1.461357701274406
Ni 0.24677577842457699 6.696206220127146 8.000752061596499 0.289300784818205 0.6256692125481741 -1.1209032764005211
Ni 5.940673348878854 0.8634687806900443 1.3127908429136879 0.17948048415925222 2.103612843205719 -0.692975036883684
Ni 6.056201391772601 1.788118505251459 12.104910522250675 -0.08046267343244207 -0.06593465501959613 0.3924555005315241
Ni 3.2448001590377147 2.586799847494886 0.28126218924372776 1.450009109030806 -0.018067656134988237 -0.20812257337597703
Ni 0.8777218321998603 4.250901176467786 7.984835398871076 -0.029252726217530268 0.2762264681327501 0.11613133047864514
Ni 5.139217780039083 7.361179087848786 4.24203474826587 0.7220084480015565 -0.4255371135768414 1.337349024930213
Ni 1.291855604275478 4.160424399739024 0.7041014843786726 -0.762054665290165 -0.11039545643613245 -1.458507119199488
Ni 7.150689268562188 5.44696273637151 13.102893227917646 -0.03969654725867357 0.29569434704937464 -0.909273461202234
Ni 4.814568536312934 4.682274917355284 5.633886425464365 0.7105490412117054 1.1061253467603982 1.4601161155578208
Ni 8.94649238148552 7.128597177433302 3.8754382736608037 1.944654647369535 0.650866280639092 0.4097327995547331
Ni 7.534281580038656 3.8124716526035867 4.151408163300906 0.2780771481882437 0.5412053883761389 0.6967435027871807
Ni 3.360004542161888 7.473026656791382 1.2144888976988388 0.060145302031328673 -0.38509031841570457 -0.8775740732164242
Ni 7.581554401240356 1.5792284899687528 3.1594076149178525 0.5071310724002492 0.4191576924130588 -0.9036535439122954
Ni 8.958338329051907 2.3683387504547935 6.687130800188306 -0.912936254765802 1.377244318463254 0.08970733195916163
Ni 0.12633458022870508 5.5544085324479076 2.0402633368821603 0.5422839661522983 -0.03140036868815237 -0.10904614149708963
Ni 7.295596371111216 6.054083732137392 2.7034560758711463 -1.3350023790749073 0.09553473727421612 0.23416322041411283
Ni 2.2602271399952722 2.9339295740734075 2.3001944978266 0.4118670722889165 -0.3611122103335523 1.9261298490924696
Ni 0.4595922490833086 2.530085408443629 4.182320445521768 0.030147213007341623 0.10667712704428081 0.00876591911808813
Ni 0.6582703362648731 8.666471196272557 12.653302990456355 -0.7423517875445989 1.0696424213430158 0.45945870602495065
Ni 2.4889806177078007 9.308362498712615 11.078369928000942 -0.40731981923786625 -0.668503534104881 -0.3095358809181572
Ni 8.089774218846578 5.580301314013784 9.604202323977931 0.4402777622211256 -0.07224517061865622 -0.43692375814722817
P 7.908691201481226 0.7736439472114234 13.6916728869129 -0.32038053694214497 0.09330456239211674 -0.4206278492006821
P 0.8247914382260167 7.4776688626292644 5.9451944134886965 -0.46649581537739016 -0.29651967116414735 0.4795958430944579
P 1.1369150488696727 0.11958396217760166 3.4033536822141586 -0.037194092551794004 0.9379206926252814 0.2268551167884738
P 2.5528248191116614 6.285306271520667 11.573206876506402 -1.0793995007297796 -0.11512217248784044 0.5889615727144953
P 8.722741759068398 3.4518221950788828 2.2832088331193847 -0.09290372740927226 0.35598877306405785 -0.03951451315485453
P 7.375605066149774 1.304959201232209 5.267032872528037 0.7128368088046175 0.5212487427485539 0.7204138498209269
P 2.0064963754936613 3.1628680002256924 6.038988240484486 -0.11189929467516857 0.3277449477270162 -0.7696790146046422
P 7.923829231275275 3.972489042680702 8.096670946165089 0.18698193474261993 -1.0383461823328957 -0.42349334367393515
Ni 2.60657083570483 1.4966490116175832 4.434997003916767 0.520021298099356 -0.5932242046455912 0.5122167144532727
Ni 7.853900226203434 9.121028224083501 10.204607841896262 -0.7247453873167453 -0.34760671964794976 0.11282257782038634
Ni 2.1024291311952323 5.6675969775787385 5.986298279482326 0.6603191985218757 -1.0959491775583448 1.9321539437993627
Ni 5.524030751217943 0.17825977943247348 5.752882251603541 0.36379978446804445 0.23924397737112993 -2.1410720164934416
Ni 7.07981702644759 5.746791899482369 7.15063378403026 -1.931422722060293 -0.3995900546937763 2.4142445282912166
Ni 3.0584368637173207 7.774048737338669 5.812894321335653 0.4953842162769662 1.0351610997366947 0.11218957222207776
Ni 7.86228763794638 7.392463116433557 0.7071688542520301 -0.5438973333860053 -0.9609570056194546 -0.9451691466575786
Ni 6.423018879763177 3.660286828950149 2.0750336435563366 -0.29453169419984115 -0.703726361862917 -1.4805227042386309
Ni 4.731341738422618 0.21890404855330883 3.3648483417991044 0.3447731068538965 0.9154759904685201 -0.81830577447341
Ni 3.3023746083338383 4.878227789277038 13.161822424534982 0.362571311377582 1.815827466590776 0.04881625017175464
Ni 7.629640995576983 7.58656650395775 5.781913608192081 0.8052646250187356 2.1756165872375304 0.26996454638343825
Ni 9.208601310308088 0.17143518200546753 7.896725962171195 -0.2763074578823306 -1.0661745173990733 1.7801665228540566
Ni 7.50817610776706 3.5794088762447376 11.038226869151847 -2.4140946329769135 0.9783561749325087 0.4577743763439922
Ni 5.366944793910965 8.597716613793166 8.988434988653443 -0.27789202876063107 0.677517050457401 0.7392566935590429
Ni 5.469193538830212 2.2662564591313266 4.304781280679778 0.3019084462798865 0.605818239260518 0.42518255845090003
Ni 6.910959100950126 1.014303480733261 7.574468101771095 -0.44450954091428607 0.4407040511252668 0.6094776903899761
Ni 2.395822088602573 8.545727607377684 8.342972331841692 -0.8952159546679034 0.016643007873319723 0.6696199070975113
Ni 4.142197731001045 4.248718784878662 10.230228749255698 -2.0493353128090774 0.6345675434790684 1.6088855437864615
Ni 9.065488207624696 1.7661743728743788 11.999842238367343 0.04177451283362483 -1.1504082278381735 0.36737567474476085
Ni 5.489796795019059 5.968202924136573 1.0570367424811433 -0.9716972748550943 0.05847717030028639 0.19410131939622055
Ni 0.9953092759702933 7.375179684738335 10.199884258744888 -0.18248456109289862 1.0369017365768851 0.8018553422268706
Ni 3.4421124019916793 4.0986516208604336 7.723889795734574 0.359493958003839 -1.4204419368966503 -0.5940310168176028
Ni 4.037036048155636 6.73690412429551 10.166562098354005 1.1938341602322922 0.26308633120636626 -0.5560447673818165
Ni 5.245609370008871 5.206187610074825 3.314473010520494 0.69457452016032 -1.112792988588561 0.10723222821680241
P 7.364554396874338 8.202675993895786 8.173804617707635 0.34218991950775257 -1.4473930115641975 -0.5561890062691646
P 3.9969484738384673 -0.03079021625062192 7.200969351394324 0.35828039731171196 1.130022207982654 0.7094534941546814
P 2.3254769495412804 3.1493667641234855 9.593022190794667 -0.022787687318476885 0.6715829443611531 -0.17539037325027856
P 1.0171609341274952 7.375679045525676 1.469783401258589 0.7005909015577289 0.29682049023401785 -1.1144534070101193
P 1.6838538223388682 1.2657871216918335 13.131532493813902 2.044002587742254 -0.5887350585259861 -0.6206694453407375
P 3.4790188631450407 5.982148036494195 4.146332253371796 -1.5497861665211439 0.09203880830581569 0.9425797886638477
P 9.353674866452899 4.01063465838043 12.365531540875407 -0.0014567870511845878 0.9703189064503289 -0.6105938062722903
P 6.960127643659327 5.735121652933748 4.985947309044277 -1.5161067719908277 -0.07051790351490436 -1.5460781215419372
