# total energy = -340897.75448861846 ev
CRYSTAL
PRIMVEC
9.02944439446324 0.00000000000000 0.00000000000000

0.00000000000000 9.02944439446324 0.00000000000000

0.00000000000000 0.00000000000000 13.21550458152734

PRIMCOORD
 96 1
Ni 6.335952085337131 1.9820172159914897 11.220716250946925 0.1409851562975314 -0.048886955508689996 1.0922868982154093
Ni 4.399000826198819 0.3464435274963084 5.936761252661659 0.636066239511782 -0.6108563159050576 0.5046129339640857
Ni 2.6140241452604314 1.5627620549803245 4.696526435873493 0.3916029227232417 -0.21061628633210824 1.1780277893276552
Ni 3.463116976084991 4.328300276777785 5.060190016728788 -0.2811812410348641 -0.12051943224401179 -0.2434868118078839
Ni 5.075405533437521 4.621964896039634 2.6258942528298936 0.2862807670449586 -0.10096696403338096 0.20039049483904198
Ni 7.156547989728385 6.108328822201138 2.437005500154481 0.833533390056442 0.12113701122335266 0.23911028000674303
Ni 5.042466120373929 4.569034293139748 11.505894095444937 0.22419505345780744 -0.43500648651985724 -0.3780095003095232
Ni 5.585849053146389 7.769466673598084 12.306779625719821 -0.05965859220289725 0.4576977574697859 0.2897445572238429
Ni 1.7712970727170763 6.496721342353926 0.3909081233544102 0.2983757505362797 0.47851495132545335 -0.27040754745812784
Ni 2.8658463193093713 1.7285245947340064 0.4909110256465979 0.171892130289033 -0.4737285856804036 -0.17217700851930348
Ni 0.603162369227372 0.039016229124940675 4.644826546241307 -0.0011148303307335638 -0.6444657764293868 0.44095139124938254
Ni 8.545439063910317 2.3217320015429 1.4610661318686675 0.7996634767818744 -0.04215529321181127 -0.4290680095482352
Ni 6.941611095932947 0.599134334093691 4.781369804012045 -1.3434070581988347 0.1639973009219885 -0.16558058624870836
Ni 0.7284558422568997 7.595523457244727 2.420261298513821 0.679356674769301 -0.8185392306404549 0.3073926093229093
Ni 7.5754510024091015 4.06147116618507 3.7052577798798785 0.830448323373215 -0.6590971531893165 -0.012849088048526257
Ni 7.628137810310982 3.732844538320637 12.494109896296887 0.8330289396161975 0.34374440847906607 0.254338152700091
Ni 7.85530057178408 8.740754975088652 6.950879820579268 -0.15067230167830825 0.8911099029193299 0.2850898320606509
Ni 6.893619599103728 0.6766322492368384 0.3529745246094928 -0.47427391666091223 0.29967235786051616 -0.8288223577340177
Ni 1.9010592177655656 6.4159981096816345 9.335392645885833 -0.07471522942570359 0.24581674549264115 -1.1911776964460519
Ni 0.1542265216259284 4.85286584748212 1.3775049448307275 -1.1001758140451827 -0.017486586820537626 -0.2466209865614914
Ni 6.165151115624709 2.0991020211437936 6.922598697866417 1.223471266372435 -0.40557198330882405 -0.45489731190651334
Ni 3.4768597904168956 4.305654430296565 0.6957584183024366 -0.36326730900334214 -0.11271330593603168 -0.7952082692239982
Ni 6.080021514099613 5.619221879539766 4.840640882748897 -0.4743837027658991 0.23253776899554793 -0.02751697447334616
Ni 5.354749453927752 2.8511915310960463 9.129283839851436 0.1157523498726716 0.4308554404659612 0.4204144476382954
P 0.06457858613783284 5.711259006008297 12.433674922180677 -0.12379090390643195 -0.2570565800725186 0.256215572228462
P 3.79994233943784 6.129665399248635 12.479096639142051 0.3434165928260021 -0.2876874175844981 1.739032214707592
P 2.544948895826088 8.494648439326241 1.340594382132988 -0.30414427758894075 0.11017948377058444 0.6498499235594356
P 6.171002195576794 7.756951863700569 5.795540742707002 0.550537207300026 -0.40426123491720056 0.20142587808209178
P 4.783330096384881 1.0353973565211343 12.636084364856481 0.4334571397548664 -0.31531623504536016 -0.3714434170562313
P 3.911401800747321 6.0653215786644346 8.22678365146423 0.4518955489657121 -0.3931342717661036 0.14223291266170343
P 4.755681937722403 1.168184365433742 3.933647642842928 0.06504325355357832 -0.642244600408352 -1.211210960947843
P 0.1697616806653777 5.701064763313999 3.524919008078894 -0.5296261681789717 -0.4364385909806935 -0.07783577733255627
Ni 1.5699043454773918 1.1037412209614668 2.619088760607846 -0.7899742745185685 0.5417792586017379 -0.5690674048937295
Ni 1.8246069122805222 6.536297397029837 4.614682649154823 0.44756966789684854 0.11291616597545713 1.0092713764541263
Ni 6.198442677018751 5.538435440756881 9.1038569245041 -1.1047567485476457 0.8079483424984859 0.36907388838279015
Ni 8.654307074685464 2.28416951296161 10.158970072808227 0.46492435712521224 0.25741782006667924 0.7822288262451947
Ni 2.199455265877557 5.277204585673878 7.074734903120574 -0.015806370904637292 -0.6099129781551819 -0.07986334928554632
Ni 0.7847047659629441 9.088677525572848 9.063219007170217 -0.25194959786325644 -0.07254778946073957 0.22057391176545238
Ni 1.5446670484618377 0.9397755406375146 11.37455811824267 -0.5050435937436011 1.328181499498332 0.16544868865653442
Ni 3.9075733163342283 6.642962223378582 1.5548441352118307 0.3687401591924553 1.3146508120017488 0.720377597266353
Ni 5.560548550020242 7.705366648011889 7.969464351682527 -0.3739186180696012 0.4886651523855778 0.13854646494905173
Ni 5.442768477651409 3.0452342906181418 4.650404034028968 0.20235147522015476 0.36771017526604416 0.7105989206130343
Ni 0.7577988276277211 7.3974716244221295 6.9132414846652654 0.2668925923263339 -0.2894511943531402 -0.017488386592750524
Ni 5.235660112125196 4.543318435572558 7.037626595591121 0.08200276422605232 0.23597713369440004 -0.020685810484125662
Ni 8.237724629207966 7.340161741002551 9.1101080088418 -0.3380049348921276 -0.7406026660639762 0.0017596630035840663
Ni 4.566487989827267 0.231383123771871 10.410566510747904 0.987548382954738 0.33494455079924895 -0.17464526755413795
Ni 8.050264334631967 7.255167581143012 4.69959193223728 0.2889655129659733 -0.1935721863656279 -0.2641427974953386
Ni 7.329046494982463 6.1622707228705185 6.965521967570474 0.4695299742180236 -0.6074388055830764 0.156242339566918
Ni 2.2101100102347497 5.141365624564041 2.6128774058253774 0.6019083626831505 0.3322659755258213 0.6740784570894972
Ni 2.0924292617539924 5.191849248039519 11.507783958151684 0.4147528784771438 -0.6173486084976207 -0.12359807116933552
Ni 1.0020606479052399 3.3932110177685617 3.972382153303509 -0.03792685695276049 -0.39045543938235977 -0.3685349851601847
Ni 3.5522105036887375 2.793439204902313 2.9077808648548586 0.33531427543384185 0.11609996302007747 -0.9308121066049583
Ni 1.2236973894235905 3.2204055114058874 8.288738281067994 -0.7387435013680502 0.517531956018599 -0.3824114860319608
Ni 3.71870442843643 2.759750347955969 7.1419229986814825 -0.37852989158936745 -0.4530813417436971 -0.12202404181399631
Ni 4.075223009961346 6.5798554366731405 6.026164490207314 0.24702902063318746 1.3416813337569797 0.7191866622820453
Ni 0.8205363100584085 7.412984209850652 11.199267708789233 -0.04316676519546114 0.22290101723673225 0.6435232100104594
P 0.20161394862676182 5.498416943306815 8.121760378102042 0.1932988780995832 0.4783354883247955 -0.6263065890218569
P 8.470648176189446 1.6175075761986801 8.062647314641673 0.409548708568385 -0.5778202113856952 -0.9224776185973339
P 1.8133833129279877 3.2001885854603325 10.472626784850805 -0.2525576637609005 -0.16806092946840087 0.33778716245436663
P 3.9838360034874913 6.146866490774441 3.924462892029253 -0.4792487441676843 -0.5399614886667088 -1.920285474496551
P 6.969385666816612 3.9936600389625974 10.417319632192603 -0.8502134218152841 -0.3975352290472767 -0.3589157169028658
P 6.302200022280194 7.7371412627516865 10.112239989357565 0.03818268171730843 -0.5317851235035035 0.26021929407121636
P 2.4465911582982063 8.331621821216821 5.760612143048588 -0.7959024670775454 0.5114482117183643 0.2921655079605098
P 7.04340905176599 3.9680435052834824 1.4421684077456434 -1.111939382339014 0.9707122852340057 0.4545921219612687
Ni 5.470181870760254 2.9128806950353185 0.26645890337352446 -0.5306450963617894 0.36111992364303613 0.23326770518303694
Ni 1.4279975977505768 1.0454110103280216 6.898585793507503 0.4962198248043841 -0.20565714255462 0.40191021818652073
Ni 6.828688864635445 0.7649357004581663 9.245025063681409 -0.3530569441292436 -0.8400112844713017 -1.009582994157274
Ni 2.787651331060821 1.6146000951113784 9.169234616468723 0.6475367020452267 -0.6152755280186759 0.30140939515628085
Ni 6.37907671165065 2.1214228076276753 2.5400468104773424 -0.1579554656032828 -0.4877364699237213 0.46381569744206574
Ni 4.03774178637939 6.685328376364979 10.434619144662049 1.1309945991982522 0.6390947419254607 -0.712965621072998
Ni 8.04941556686114 7.420234853680165 0.3602080124947022 -0.11427370844461611 -0.8859797807816161 -0.5832933186851245
Ni 7.6627386411387475 3.7375488788376687 8.298319424489534 0.45248921668565306 0.012953474836874467 -0.8599368197506351
Ni 3.1775427389791133 8.427505490987185 12.407283662174573 0.07909767476411539 -0.355401018881388 0.5656336966218323
Ni 0.034659522216173286 4.88414384278154 10.2608881202514 -0.16755005127025338 -0.5226798187681257 -0.09822693939439857
Ni 8.625376734922375 2.121847191513089 5.815773921652424 -0.27177794544309325 1.061566843423733 0.03769545766824475
Ni 3.729729380012814 2.554429812415116 11.400618900584814 -0.19707017221655737 -0.017283983891428295 0.14381208422336522
Ni 1.0875604566495265 3.2104550637095937 12.799374642741519 0.2657368814553359 0.2766126478275753 -0.6718241138376818
Ni 3.078074379793659 8.369554517017301 7.977340736006916 0.3551858175467883 -0.17692892138199207 -0.04332643070177699
Ni 5.577117580440113 7.698441064179714 3.570578199427213 -0.420761803675385 0.7943292090531545 0.2763917900660207
Ni 3.0851354052913917 8.439153474225133 3.5130245210096316 0.747566756086635 -0.4668483136208025 0.2022830838760645
Ni 3.4946748841598967 4.232254077008752 9.452469324538203 -0.23695903799169515 0.7136335936743 -0.3520038202743809
Ni 7.120908772798012 6.047777368252549 11.352699639310558 0.49788178588783927 0.35906021290053003 0.6514077549648588
Ni 0.7263673317740025 9.134547102975002 0.40102471282712104 -0.6718225711757848 0.1454920430289494 -0.46044292431509093
Ni 4.657396435749484 0.4637233686470153 1.6462817065741602 -0.3994242185398734 -0.5041673617862349 0.43723589007100827
Ni 5.76686232444185 5.641876755465357 0.43984229417591064 0.6819097802084578 -0.12933985874911919 -0.5884992883660962
Ni 7.900574205857779 8.72346358911914 11.274609392616705 0.13285301410870023 0.8487959726424672 0.5810122359604316
Ni 0.12085730701029991 4.9081441059183355 5.761550302318683 -0.29019758560086156 -0.3883579334233828 0.14223754064739375
Ni 7.870813157212603 8.874508134548904 2.403899945314471 -0.5967111347529271 0.05078160142824158 0.44485304029663386
P 8.476923640026945 1.5726673554547654 3.556569919430816 0.1455709758960009 0.8772339162681859 0.40607900485222964
P 1.660857938621462 3.1713665990296893 1.7586531417650617 0.950416253989131 0.07502144781221273 -0.5672578624888167
P 4.786643902468855 0.9632430665564501 8.176551949486687 -0.5699510930502637 -0.19987421732425578 -0.09194624859200938
P 8.623001991052933 1.630537064425315 12.359800523063411 -0.9257866283659087 -0.9395363738518336 0.18603705433084736
P 6.078802539109595 7.773584100231034 1.425754683768944 0.8840198288417679 -0.4437425808412745 -0.7994788715748941
P 1.8761650396360905 3.1113930295208125 6.066854778318546 -0.8315580114976261 0.7353578727252691 -0.15445130910476623
P 7.126786941083209 3.922182957325701 5.952818313585723 -0.6786267385818119 0.47325935935346886 -0.01107914063229705
P 2.6190535457748014 8.477402200578581 10.22322359894872 -1.8328180876115017 -0.67559977883003 -0.5699850316119927
