# total energy = -381161.48913025175 ev
CRYSTAL
PRIMVEC
9.26059750548841 0.00000000000000 0.00000000000000
0.00000000000000 9.26059750548841 0.00000000000000
0.00000000000000 0.00000000000000 13.55382052483209
PRIMCOORD
 96 1
Ni 6.563003928302379 3.948255719373896 5.7119318718938885 -0.5340019286491641 0.20499662615248565 0.2739083615225347
Ni 6.571801495872227 2.4487056967943808 12.627918288651966 -0.5345179490536343 1.2090003264497695 -1.6559357031967288
Ni 1.1763644324530238 5.418458908659883 0.11454155158020385 2.3561746207316774 -1.6680651394704111 -0.27228908075155683
Ni 1.3812644114535324 6.7697745479861595 2.390392640762188 0.42495887247586817 -1.1715946321078017 1.2382826203536546
Ni 8.648240436097801 0.3345316741123643 8.838026194013308 0.622941786314682 0.21764336838221873 -0.068611687631127
Ni 6.74446533517732 7.536042683320025 9.950035956663013 -2.1322166229853408 1.1155656662376916 -0.09533316278637129
Ni 4.071041980856665 3.7755548376790355 6.595953134000824 -1.7133484367882428 -1.3015351005553972 -2.720112730549799
Ni 1.6573320817953996 5.480458608533715 6.1916836047921375 1.3009602018885336 -1.5129839100911298 4.197075999571945
Ni 0.7427091754415523 4.511438952805873 3.572773683373244 0.5854003377257982 1.0963006473604926 -0.0011451693480367374
Ni 6.727527702456 4.552657872019977 0.042585783396535244 0.8223210662803903 0.39728094694462546 -1.1596469728276222
Ni 7.325364091515741 2.6764237878918458 1.456479909936766 0.09858457984413345 -0.08985979837662589 -0.5601091672591773
Ni 0.6154278199604627 1.3493338714737007 0.7694435941967078 3.6447688448556907 0.36647064643198823 0.15464362762123043
Ni 2.3494135710218305 3.5879166123103152 4.927857459798649 0.29236605400709 -0.20736126972992033 -0.28914471885631493
Ni 5.389954789733571 5.267650079317784 7.2530962411982784 1.6402722856278589 2.7005499779265234 0.972330537563719
Ni 4.7332950857225855 1.5150707838922175 9.819308732873775 0.3522678725690449 -0.381628070898717 -2.0091584834798755
Ni 1.968247380311312 3.3933051570678097 1.7562500794312956 0.14277541542873476 0.17470594558874428 -0.8579493570069612
Ni 3.5418451400366315 7.061761185330734 6.934269614287712 0.059008617323724186 -0.10557386667777302 -0.37374763970937563
Ni 8.94648723731313 7.770502489355226 10.418414749842807 0.6311500331570873 0.2734285936726388 2.0190176356621423
Ni 1.9094333259575098 7.3176500138466 9.579067535855566 0.978626912095392 -0.35036062824400305 -0.8694969526352445
Ni 5.56540606886869 9.727238947046198 3.0585549328558153 0.8518602133900879 -0.5777775310732178 0.6770902473326275
Ni 0.6032186482930003 1.8154938255064044 11.556516245785195 1.062370570271951 -1.4029152408667966 -0.586707486572996
Ni 5.192194731360803 2.744868863585273 2.537613914655277 -0.20269266060965735 -0.4612389378538251 -0.59128636419293
Ni 5.0701956206606 1.8197814821220255 5.512854030505132 -0.2529867808785191 -0.6003147929437854 -0.9584098137175686
Ni 4.671906585279922 3.5670895286633773 11.032687773302259 -0.8654230396761868 0.2799064880874986 2.059417636745744
P 1.794935299185283 7.791468481963793 5.785380448385199 0.7689691330218111 1.504472787296325 0.713207818990791
Ni -0.1437068771638702 7.475570982024114 8.222330742786774 0.05889960254968567 0.13323328026625442 -1.874538093058107
P 6.567689790608003 0.26522258467760396 9.115419055849118 -0.7494459753872189 0.7700873057866544 1.0076942617749935
Ni 6.966395552873569 8.167800640809615 0.6997362990719438 -1.0773359333325316 -0.4959776268865909 1.4602130461470013
P 6.100372261895057 5.21510544943218 11.162994565967633 -1.594478624332512 0.13431545758683966 1.751094545188765
P 2.768872332154798 5.281013121426512 8.357895702679684 -2.14685134217938 -0.37896209403077963 -3.0373331245964077
P 7.7843748643232615 3.178496338804418 7.553734128673119 -0.43051219819392955 -0.7208465664829715 0.32263796551775403
Ni 7.7535463354390215 5.5807879212197635 10.041957572931517 -0.6431699404360988 -0.9784417926677793 0.016855895215074197
Ni 5.753257287978575 1.9703217541383082 7.892009862331262 3.6553399355033176 0.3645811427187592 -2.2421112285256544
Ni 2.255650021922122 4.563418686247519 10.335587966322036 -0.5423315315607821 0.27156531521165495 0.12157769830519706
Ni 4.289610601681487 6.276203225525295 9.121355098809406 2.004481646829496 1.3770502001745768 1.7256151699707378
Ni 7.440519620706345 6.728889010279966 12.380344550579222 0.36181103617278976 -0.6961812025258074 -1.023786539351166
Ni 2.4520024694837144 1.284917155667521 5.759004414751047 -0.016898061306919284 -0.4058553188771977 -1.0456933667265862
Ni 1.582645363426101 0.4876797303682989 9.869783619231104 0.8902318711897506 0.5559581212052812 -0.4990547231500179
Ni 0.19392431891231354 3.2172334179040805 13.090334183138891 -0.479370100236897 2.2385597637289707 2.1856855414377585
Ni 3.7181669153312935 1.4788248055044388 7.55968406252957 -2.1624314560058244 0.0921755909939961 0.6831444239465074
Ni 3.756589134117929 8.77273990810733 8.7038568061549 0.23143090908461433 -0.6868213585774623 0.9917207691648728
Ni 1.2194169499606329 7.784458209700239 0.386140057596588 2.4655038406868246 2.6269747756425335 0.16486299135639348
Ni 1.0790818563253757 3.584351282295166 7.6354635313970185 2.69325344426511 2.53351131907505 0.7892505089786666
Ni 4.386504232716573 8.439265794222836 4.64656125614106 -0.14701850697580487 -0.06994171929646019 0.7105845224353311
Ni 1.970358796528076 9.066652749719827 2.4937270173181485 1.0579179338172362 0.5248097206269349 -0.6446084726548382
Ni 0.3573581207470182 5.367896046626854 11.484734576833437 -0.4060522653793523 -0.2938292688161778 0.44510063753106566
Ni 8.261823486637699 8.810319412526749 6.7163788691956405 -0.15186040844913845 0.4929136432492866 -2.0278126082459527
Ni 7.694982317216152 3.3742653687271678 3.754218421172791 -0.3457568109234045 1.1661942870278368 -1.0908187983103148
Ni 1.556011885183063 9.284304571397897 7.472844662137204 0.323967482962455 -1.895925814705264 0.25750060958847265
Ni 5.3058963467530225 6.451358165542271 -0.1317421852688753 -0.22633575394989405 -0.11899939605505958 0.5006853167749055
Ni 7.212468148100972 6.623401544818753 6.231802365030138 -0.8817559725082557 1.2433906310041811 -1.6502643638435643
Ni 4.4803789089855846 1.1485641189323001 11.789953681862807 -0.579969396518214 -1.3912349763153913 3.494557284863885
Ni 3.5693305932443287 4.976672847094382 2.4123226615644615 -0.8635631036493128 0.4230734825276972 1.1595806383660612
Ni 4.048510947280409 4.147738248870866 0.10675061095229424 0.7732027114871846 1.5082708208861768 0.25121734768292214
Ni 5.639546411988914 1.027917055458621 0.48860856829172616 -0.9451303229998435 -0.23908482608544632 1.5582209275520584
Ni 5.803829410609045 4.846153986747589 2.0987143813124316 1.6217456875785814 1.4313871230542445 0.30972974209651816
P 3.8393696146514893 0.6519136478219878 1.8564664128285524 0.15522418271504881 -0.039542538179312546 -1.1010469037962265
Ni 8.312451172852821 5.216929787128243 7.4273038220969445 -0.5633341019543782 -0.34734112469138884 0.5737398706687346
P 2.3573406424321366 3.7707485876066653 12.409023694797188 -1.0255207484334532 -0.0867356509253474 0.4421050452378515
Ni 0.3680068817455125 2.2115510569035726 2.8343753160409184 1.8853614089258561 1.1491792405270789 0.6690396091140091
P 0.5525641063452972 1.5904242652773364 4.874712743198807 -0.2256785799818694 0.09102296544679163 -0.7449162058376655
P 4.506604920941177 3.7960207580257377 4.266959180338485 -0.04872317623731608 0.47177557571909073 0.6738447438121362
P 2.75118459104068 2.6178227272792083 9.749995013140294 -0.5037852958564678 -2.5070181578805273 -0.6562092901185601
Ni 8.723760608236875 4.5486109909378465 1.7819343464365345 -0.483854875481128 -0.7052384276320692 -0.784286737215488
Ni 0.1998575836933687 8.700905453750151 3.8316925793721155 0.8671829597900872 0.43321237073391206 3.371653668658413
Ni 5.403586389168116 6.177188917676002 4.285108099205212 -0.1640906319667432 -0.8319187372711544 -0.0468832948150999
Ni 5.880618284597666 8.467556919407981 7.443270018146604 -1.2313591537609436 -1.3710047653114452 0.4156867031453228
Ni 7.670478776384762 1.0591437900328646 10.88789277593896 -0.17803963794766758 -0.28667903092464175 -0.1621237380483595
Ni 3.768489001830831 5.8861098188807395 11.63672783658836 0.37243200622174566 0.8181733626606038 0.1037985199449051
Ni 3.232485621890966 2.0242739948350885 0.13636785369112758 -0.47868541546504656 -1.4392788670974954 0.004831102840056195
Ni 1.6088991571740194 7.346080047993375 11.921506950943867 0.31599706316246867 -1.9970884396892188 -2.2207407332696785
Ni 3.957683007569798 8.480401368059962 13.687732545939626 -1.1123479306313424 0.9115404028595397 -2.2550611038181034
Ni 9.536100215844423 6.5651246051165835 5.0067132991363135 -3.1522123278355068 0.4532374077055871 -1.7099923758318163
Ni 8.813625445813523 6.579691524892766 0.86209309342415 -4.198393689942105 -0.173719670416075 0.5984160332591758
Ni 0.3517137866061518 5.647297532047824 9.111596281225083 4.035408632334715 -2.7765245336806244 0.5046237325973632
Ni 0.030842419780402867 2.49389741231108 9.307896869441 0.34424423093362 -0.26109963979364065 -0.6625848546276009
Ni 4.593413761361984 7.560888866256767 1.9976701505038645 0.5673931025151002 -1.0515662805675954 2.552128677065921
Ni 0.14900949525912877 1.7541423674535086 6.97364382249138 -1.0382893609530313 -0.8986182954812331 -0.34547039003123725
Ni 2.097099333118556 0.24017266859713865 12.176264134452326 0.29991327022672865 1.708777529588109 2.081707044271563
Ni 6.517627000836841 3.4104280017379685 9.620813383064116 1.3396735592983315 0.21908781413822914 -0.49094829199279966
Ni 7.414552905479129 7.822121059496635 3.155559691060205 -1.4192402032790654 -1.0148480992109556 0.5461223660617821
Ni 7.590578341655647 1.5517705315546515 5.328494982690605 -0.0281306967979451 0.7021711015606552 0.6079082890203273
Ni 3.283242956470275 1.749752844266026 3.590704978200085 -0.3785622874891997 0.24118310337537174 0.06338643467644567
Ni 9.107306772489974 4.0459920647761995 5.660604084512156 -0.45140215426906133 -1.1560412577542347 -0.640922796273135
Ni 8.345946753800341 3.286030396300301 11.054807636352091 -1.9117902925413461 2.733021468191667 1.3647150756479915
Ni 4.400672946802751 3.6960711298348086 8.728456657199686 -1.3695520920253188 0.6897938109422248 1.2813408849957095
Ni 7.886167351405138 1.0617460179140517 3.079116237356169 -2.3319792544323965 -1.5332938252930752 -0.361587607308074
Ni 9.00828320404324 8.755635584632055 1.722134964514909 -1.1246074647249857 0.16807249943262667 -0.6733397791512596
P 7.628018937113437 5.714251651553096 4.110589362232497 -0.21116573107767503 -0.462030837627501 0.1660050753806367
Ni 8.01814938614776 0.926643161833494 13.482635316213605 -1.3464738700496166 0.426066246607434 -0.632656956719917
P 6.365873590555663 9.096934903354992 5.531070551733185 -0.7817122916200925 -0.3936096687406253 -1.8111442021824937
Ni 6.394257321715228 8.93330940715324 12.217413599185617 -1.32742585227923 -0.4123977479814059 -1.0502413911085848
P 3.069934354992479 6.333155899793265 0.744681682696687 1.0219232608901818 0.7085101564048056 0.010761095171245984
P 3.3270363217732397 8.389175222659347 10.948207047078357 1.3440277225019692 -0.5174890185958054 -0.9566084988427719
P -0.47626233978212307 8.53896538628283 12.543111589398107 0.5288044436086248 -1.3804733669235127 -0.7506343392683653
Ni 2.635482686601 6.290084861090773 4.446967599474786 1.8606633919585438 0.49367006179933687 -1.9818130015873867
