# total energy = -381171.81058570626 ev
CRYSTAL
PRIMVEC
9.16420208343986 0.00000000000000 0.00000000000000

0.00000000000000 9.16420208343986 0.00000000000000

0.00000000000000 0.00000000000000 13.41273608085465

PRIMCOORD
 96 1
Ni 5.3042217848524835 1.59784276680556 13.230524288621998 0.836526925467127 0.7307586833903609 -1.466664715309616
Ni 2.052176408987515 4.268208749600853 1.4804310108777057 -1.1063294923514042 -0.6258700157050705 0.7857931465576855
Ni 8.545315939336419 9.18555458313814 4.592399726446979 -0.49377342014642056 -0.9629501247900836 -1.4469430685109725
Ni 7.534037085262534 3.7809756222658373 7.926725889901569 1.5939875436287065 -1.3505927773139965 -1.0691737092367135
Ni 9.102251987026355 1.8650617327047398 5.845914098948103 -0.30738798133721895 1.7323766570642873 0.27147429815974533
Ni 4.7084386849163575 3.528281916524763 9.655828438265843 -1.2054974555028335 0.2455647773828352 -0.0851770481889759
Ni 1.1536355678253118 8.754681298056973 6.100662418775895 -0.7668209763305569 -1.6307592039311012 0.10665244445393246
Ni 8.281359429346567 1.5074379141495904 10.202290719498556 1.274696125985682 0.22746266846548566 -1.0447520858592394
Ni 3.758404192758321 5.315026379001635 5.409651346675148 0.008748949837223642 1.0660238507538222 0.8384177147319367
Ni 7.3446221942796415 8.577390646310153 9.210955001800741 0.5892456796138175 0.13680839921202245 0.1094696021877534
Ni 3.0519358611568332 6.212549993742672 2.902234039508421 -1.053964605596443 1.4879357088732503 0.07343687693391224
Ni 8.809657345809955 5.346762010501648 9.454449681581748 -1.02550635025575 0.7266557169655808 -0.08007135153129435
Ni 6.458645474049149 2.0795957013490622 6.508167905196396 0.2521262326504367 0.3405978924302844 -1.5745461470746431
Ni 3.5050689928777716 6.262540715611736 11.440715316998835 -2.173188180301696 -0.15925361558941603 -1.1600177259034796
Ni 0.0414900081008247 8.758603576509762 0.30652422824499365 0.4104930747595253 1.4378747876611173 1.0017426721772489
Ni 3.3760920140353883 4.112014090840757 3.5311438968070195 1.2328182548049735 -0.5282328873758709 -0.9025317716030262
Ni 0.8397873093479157 7.80326301139807 2.766309679135526 0.6652423468551059 -2.334588924141102 2.4557663016840867
Ni 1.0124518719289242 4.203317035291991 8.050672638270273 -0.20940683940503935 -1.942707550945493 2.826296462897429
Ni 1.5873497555241523 6.933836839966025 9.57033559787785 -0.10773822131894348 0.8742375526440234 0.19340686443235722
Ni 4.7338968380515105 7.449414844063829 1.633282568750939 -0.2067552607148052 0.2681488333309382 0.26257365323600584
Ni 4.6471576661925384 4.0388562663346645 12.069638004180224 0.3491982325047857 -0.35829865214415707 -0.6654750316912024
Ni 0.3693530806853444 5.40412991497467 2.5704028674611505 0.1102134223323134 1.6277479279086031 -1.0609400084730116
Ni 6.1617528220982685 8.159686319492202 11.231207913147399 -1.529895598244804 -0.21500130277368135 1.8742352171057077
Ni 7.022271389193608 7.123215074140947 6.27337830088806 -0.9935220840396696 0.8672891463506482 -0.7147828767873947
P 0.562890029724461 6.654722739880586 0.33522009394409524 0.41723964945473946 -1.2244701399505946 0.7994513607710683
Ni 3.078832794004808 6.0336830992531425 0.3715085009939794 -0.42438191692647553 0.14838607674729284 0.07575472643381147
P 0.600312048560817 2.095605562229952 0.7032966012918851 0.5114165871494805 1.344712921494452 -0.41908441597296214
Ni 5.5059533633132896 5.650738590592727 10.421655139013122 0.8889324356520368 0.12391123153438015 0.14532132177904006
P 7.6064159525992645 6.7531462692799895 4.238599212963099 0.5735316113126703 0.001178593689133454 -0.8775596750387208
P 7.319356489386331 2.673225213816951 4.178939341571754 -1.215258134434023 -1.5806075227773746 0.5768406210812452
P 2.5512863421048046 -0.3184917596269937 10.694041798415872 0.4531713303543421 0.41607751082583827 -0.7471281258873197
Ni 1.8241344066062544 2.4058137996759292 10.04746702535654 -0.6878186894937252 1.1059512830763794 -0.48313316682375507
Ni 7.529180058206511 4.990082104751726 12.117400908544912 -0.7413230891697685 0.5773486710659153 -1.1466870702328444
Ni 5.448365517992447 7.113473527422925 3.8076077096762293 0.4676206730104527 -0.8943191538852469 1.357042132483766
Ni 6.853448460087853 6.287054955941661 2.132960682391763 0.358002461059977 0.011574592211476841 -0.0758827673712435
Ni 4.223634071109354 8.361445390558986 13.009428751351049 0.2072129170775141 0.8820056266252164 -1.6160272970375653
Ni 2.0361298912986556 7.91544200798821 12.570148227361967 -1.1230380633553367 0.06614651392008608 -0.9467141225471953
Ni 9.074594425413004 4.272580073951273 0.40121792743345097 -0.07025796498529835 -0.16952285872590805 -0.17091768219090564
Ni -0.021825463465327585 7.640992486716949 7.972463505625916 0.10290403315509375 -0.8284017252568313 -0.35046347237045444
Ni 2.3030739311380604 8.40262015011127 1.457844002226802 2.992175811333479 0.4456061164125745 -1.0353526469222105
Ni 5.967050186565706 4.601785702127693 6.506773113653138 -0.17895597911434985 -0.40686190576484127 -1.5165142918418915
Ni 0.6383398211488768 0.8813799565110563 2.400665350996545 -0.5655329093779099 1.2249326814093096 0.3800684397210809
Ni 2.1418389612820925 3.339013652773751 12.677597579303779 -0.41429007990811234 1.0165961922503137 -1.3667904701197815
Ni 0.16879818576037467 3.6860069970176057 11.176323507414342 0.22840600621536147 -0.3514528328669173 0.36824805004738514
Ni 1.771779320623127 0.9787092801925553 4.474475691627745 1.059487078076569 0.4124527695890574 -0.2771209549225614
Ni 4.243456240019122 7.956121900632898 5.644535342264008 -1.1290235915148104 -0.8551252572946048 1.141627653432066
Ni 6.660496187135858 0.6932003999567526 2.9075731035892485 0.3159595250563139 1.6631149945539874 -1.0131434578150227
Ni 3.0165620414658 1.9719804773511862 2.620352350421248 0.03074962247803091 -0.7503666874292755 -1.059743417061749
Ni 2.118213648545439 1.5274616955031932 7.075808657233767 -0.9793990143747261 0.8556639034068941 0.308577630769946
Ni 8.038572225959381 8.202483142797156 2.3246015580386317 -2.0341634901646453 0.124294840126044 0.1975838786281823
Ni 3.7131971843293403 1.79139987708906 11.296930820576979 -0.30415970420790844 -0.3952675160590225 1.977400474341988
Ni 6.474572857112107 4.508631588873976 0.7808789025199545 -0.7616859690968366 -1.5484332520376751 -1.3469310121916933
Ni 0.9841344877721128 0.401746701888418 9.111325463419124 2.3346282620194696 -3.4964241628692947 0.5374268951703132
Ni 9.294058734729289 8.41555083912268 10.81707670868632 -1.1016616545620899 -0.2271507936520217 1.490768293226039
Ni 5.8984286420459 1.0896419453117148 10.469351144703266 -0.36139914544635177 1.3893642416552396 -0.7150510428471168
Ni 4.332541447588172 7.88673056314572 9.724434403642261 -0.13968109277412719 1.1884474419990823 -0.08158084619728531
P 4.346397721000825 0.49774904912140366 1.3537478317940441 0.13580849719259835 0.46412448693173614 1.4072035838295054
Ni 6.030292344515919 0.11194347659893182 4.832126086368673 0.6221406305696253 -0.14891829510167903 3.421120407929972
P 7.431892889854177 6.777101493288373 10.427865718703437 1.3442256974453881 -1.3547101419164798 -0.0705281879275495
Ni 0.969792511653857 1.2181698782564658 12.202531762954202 -1.1517158909060037 -0.009120731354345582 -2.52728179322557
P 4.749457653034768 5.364128173277427 1.8735578643719824 0.3359866189105181 -1.8727475768165878 -0.36785261438117933
P 9.33419793945642 1.8788996777134082 8.226688549519935 -1.905045517618345 4.273725984126517 -2.5850534528184
P 5.837220936938022 2.1391171932903212 8.514189727268906 -0.21827791664242407 -0.49133601434952157 0.21534994436235166
Ni 7.588784027965702 1.8358462567526637 1.02709901597353 0.5342924633063896 0.64192861182983 -0.4246361990291268
Ni 8.46292059922189 4.394748050713232 4.804656390896167 -0.12669625047868505 0.047004907994628725 0.30830920759990776
Ni 0.5580522474926226 6.182876307690971 11.502815615380785 -0.058410064507776825 -1.0785314963025294 1.162461559458282
Ni 8.582293494376138 5.5136879497949565 6.700881908896586 0.9612413696290929 0.6110154671907413 1.2174659407186192
Ni 7.741963664270267 4.153088044171122 2.7092121186212825 -0.4880234050365208 -1.892774413560476 -1.9378949600481978
Ni 4.764981811210055 2.3173059368324065 4.33746445689854 2.187670433078271 -1.6543683587096087 0.3937225401694058
Ni 3.429391012823743 5.902250114276771 8.962094681753127 1.8988797551272651 -1.8975774913760737 -0.8734240556037925
Ni 5.636735689948194 4.437205798544464 3.7959783373477523 0.975415861357262 1.1848882638929141 0.3429679353243577
Ni 2.6003423153706335 8.340450203794179 7.768374894412639 1.4325112093563586 -0.08357782202265605 0.6607619424862491
Ni 7.135806687678636 3.516808335630159 10.037259937177298 -1.286924292620758 0.42899344755655794 1.6334902297090192
Ni 4.290349461614722 1.074832594891842 6.504063259123958 -0.6136313075470335 0.5625789689559084 -0.5186899808824421
Ni 3.3384912932601787 3.6818189567070347 7.29986789742909 1.1156471702079045 0.03670918249557548 0.6890990988680454
Ni 5.2493190507154415 6.241307259595123 12.762245480268064 2.4520369165486415 0.21655579174499479 1.4757584500807681
Ni 1.4307610360783796 3.9729106687966658 5.978217683113762 -0.4790985917430652 -0.7893942336453823 -1.1014503098822321
Ni 1.2785802977909972 5.775280095670743 4.650892994924681 0.32540910050498795 1.363281685635575 0.44098455848016316
Ni 5.807648057108238 8.93694811148572 7.5767340187657695 -1.9896255556532703 -0.629791976467296 0.5233742737319889
Ni 5.489402814514842 2.6424426593241583 2.1095818866887073 0.7000954499785491 -0.40701077263787966 0.4181981567132669
Ni 7.643017775357292 0.7381764704955226 12.183056000879748 -0.38468562677811813 -0.640730991977303 1.3395470610227964
Ni 6.414538169859268 8.725814061780612 0.7295053025702233 0.5062211589914701 0.4827382453781815 -0.7020775134055844
Ni 1.932940976863155 6.086166484064165 7.202853822296134 -0.13902289036483798 0.7347233244650637 -1.3056684059974804
Ni 3.652383539907139 1.286800586978266 9.142979533521403 0.8494600885890272 -1.1888153668614623 -2.1060965288595215
Ni 7.820290098700127 0.1615465527237129 6.851453413314087 1.778939849535807 -0.13812171870680728 0.3502901800173838
Ni 2.668267380539011 1.2171251592293213 0.17088120887326894 1.1602892343973112 0.19817548946559418 0.9675475143527789
Ni 4.160052837685419 9.051207381928155 3.526757909733411 -1.5968553520948048 0.7279993754776688 -0.9702906243155549
Ni 3.9424946823835727 3.444392811485458 0.7148022568934632 0.7373540772196914 0.33972860245145364 0.3073285888541933
P 2.277139239499298 7.692357838884888 4.324695057842197 0.842493170352891 1.3581086260750674 1.6460958342881715
Ni 1.3292125137995356 3.4349628476351803 3.669321734449869 -2.366149215445886 -1.187209198716607 -0.11873097288502134
P 2.4760390795444227 4.435098032086191 10.481114314380834 0.10056330083705907 0.30919469552865464 0.4048888411988704
Ni 7.791532832847676 7.318687502640879 12.761091707237208 -0.589566810398662 -1.1905254075740335 -0.39895730620578385
P 7.174910337580615 2.8653710369936074 12.228230018181558 -0.5896498570307716 0.014021253979756497 0.3337800981775026
P 4.823559390346088 6.318955543077538 7.0871420258378865 -1.1430541014659477 0.5317840950622391 0.3356986553564541
P 3.0315638401275153 2.7881076499948763 5.238022338919293 -1.2495013718876093 -0.6511172203076334 1.3085696388046753
Ni 6.589290337654167 5.967911621553001 8.29345709239686 0.5263351561325257 0.8485092946399838 1.0661431499405059
