# total energy = -340865.4582324998 ev
CRYSTAL
PRIMVEC
9.30317655130373 0.00000000000000 0.00000000000000
0.00000000000000 9.30317655130373 0.00000000000000
0.00000000000000 0.00000000000000 13.61613926233039
PRIMCOORD
 96 1
Ni 0.7256617317225983 0.45369452682484507 5.914374530057789 0.8038569460379317 -0.08117384056685374 0.3089013326579519
Ni 5.131213584870261 7.92658558206708 2.433721239290739 -0.5074941121666228 -0.3636997685550704 -0.1511692959193848
Ni 0.8594228052751263 9.06390822797542 8.23423791187322 -1.093190383866285 0.4102935571542095 0.5568544077673055
Ni 7.536038227237819 5.51484867946517 7.743457201739862 -1.1906228523838462 0.26439013761945435 1.2336086119167529
Ni 7.312631743701137 3.0051028110908375 8.17858816992187 -0.47852549284841456 1.5668711470278884 0.40995699975039723
Ni 3.2039209988006077 3.0077356100764656 0.9275788075670428 -0.9475854694085551 -0.9256040800414576 -0.10580320907975972
Ni 0.6829666632252678 1.7598633163016155 4.1055244069055545 0.9694205630057757 -0.5273905939802336 -0.49472472831609626
Ni 7.302900620948602 7.889903156624208 8.613651224914497 0.11130408429333088 0.7761527952544439 0.12747992272224498
Ni 5.353224591912793 4.8420429457526355 9.071099583508603 0.1647156671452518 2.9705204378472323 -0.6290381290204069
Ni 7.122893456379965 2.077231883777686 1.4755805661841632 -0.0219559354458009 0.39085627436520426 -0.3171124077138345
Ni 4.642992178627173 0.29073171215574795 5.640376441702217 -0.8333143320671003 -1.6509505912773117 1.0998130313891252
Ni 1.6009464531478885 5.961308125826681 9.926778790508758 -1.7096460482359912 1.523067776689693 -0.7752007157538198
Ni 4.501165250938461 3.3228248992787592 7.747079858718673 -1.3060353024185958 -1.533088908371121 -0.4481530512041443
Ni 0.9886950961048072 4.594122591802063 0.9115215247076978 1.1271531139649749 0.7261013871240076 -1.36372828625469
Ni 2.365583843352078 7.830539586563095 5.479325429830104 -2.293942097154017 -1.4067078751400095 -1.6644486257637463
Ni 4.729102381492815 0.8532482869473469 1.0454156336860014 -0.3847067098240407 0.5037117623060552 0.4034461952150729
Ni 0.794835501537581 6.332625814566566 2.5689978003159135 -0.4530283770185746 0.7609107814937089 0.9609773173344289
Ni 1.8570908152373138 8.828230854466852 3.3480858147758505 0.8725737917883551 -0.4252630339798482 0.7212826255791255
Ni 9.278579028658728 0.7906695390437138 10.659803056214487 1.5718660291393187 -1.1514063300853847 -1.4528553202303494
Ni 7.748113441642007 6.695663676107831 12.43611066752316 -0.3828886827786954 0.47823958617687956 -0.03192255974020954
Ni 2.504573302169352 0.030234393722239596 1.2133044803794455 0.32635706624055405 1.6583337711152601 -0.608261815705004
Ni 6.418754623785464 8.686134134655939 4.451374649627213 1.198938057117761 -1.1778817506680939 0.3946633068161203
Ni 8.930491371958116 8.912322268004292 3.9884122982458914 -0.5411462530034293 -1.5061308917250384 0.04251910430913322
Ni 4.565189712490033 3.216610531720739 11.988262256891138 -3.564588478550358 -1.2325061228811935 -0.26218130289359365
P 1.5898291570778322 8.22644557112989 10.445294130804502 -0.46347888292793726 0.8009577701132657 0.863389554185926
P 3.387733162609959 6.993104839247448 3.5059514189706515 -0.8367637240682815 0.3808300004774538 -0.38155068069356224
P 7.343481077398465 0.46427316896815984 2.8144016449887026 -0.1338112642569115 -0.5695559144943739 -0.5927855744462758
P 5.8796541445656905 4.756602571604184 2.336270464115977 -1.0623620856315186 1.121002520982547 -0.6663924012991491
P 4.530330709666183 7.117348763109878 9.929297160421866 -0.16464033382262616 -1.0920850666172484 1.676844428324938
P 0.6576955142338861 2.4751194449661735 1.0622655471940232 -0.44268842854514734 -0.1570877182863488 0.3469652294092089
P 1.6295444181013226 4.480958751303179 12.277073793390935 1.3269206305080374 -1.1162364670524711 0.420841764983701
P 2.5298128203602 3.720470577874927 6.023480324911686 -0.16543094804472155 1.616150709989307 -0.057974519632254994
Ni 3.7732288925304 0.8485055275025646 10.954919355514853 -1.563756769768623 0.8878880535479223 -1.1591677191983585
Ni 8.73785979670574 0.9758474091820057 13.26406640817288 1.9364106621931874 -0.10310406498104178 3.473814652999895
Ni 8.471844764214365 2.5131880437265677 11.800359486318603 -1.7826774622013684 2.3469746993999645 -1.3315475877570875
Ni 6.326429898932543 3.695333394626984 10.641707447356023 0.8455784941464339 -1.9810570972579689 1.9285207179221495
Ni 9.180737520065604 2.9357476293316154 6.542841323962885 0.5311492896917175 -0.4108471156648344 -1.0633056804917105
Ni 3.8765406689805895 3.5719732725441826 3.3252111640837545 0.8317462162490321 -0.17664404315172158 -0.8447223167937258
Ni 6.9168373972538735 1.1065291312707777 9.432512180093015 -0.06432488733031502 -0.445073383837556 0.9793398790020167
Ni 2.2292364866970598 5.429975799091007 4.546184252957382 0.252394655820475 -0.6123650392401002 0.333067131270878
Ni 8.373779979382178 4.289369131833102 13.265033938542159 -1.265428070420195 0.4057025953494174 0.6777224815999877
Ni 5.104011096410976 7.393392620005873 7.961778568931864 -0.6191800052794046 0.6166063310149574 -1.124535988057102
Ni 6.168564294737742 1.532735562113869 12.896880260173342 0.7273028636312764 -0.28174714084066316 -0.9262113746081533
Ni 2.13464178674699 1.9069930546680942 7.160536899968474 -0.183389075185039 0.664102833934024 0.9605636268357781
Ni 3.1989344961281807 6.054330588926677 6.760671483428946 -0.23326950495524987 -1.938331019144352 1.6399570683802853
Ni 7.0853086228042095 4.0843736348425645 6.070973971913564 0.7517064892866215 -0.30550284849936415 -1.7747024144156922
Ni 0.7871510776431321 6.4661822182332855 12.48992117145522 0.3193898908941016 0.5380614434305184 -0.42962619604455043
Ni 0.2790125005578818 4.572195004490664 8.258801089123237 1.2506539974348139 -1.3544892841549252 1.4950080423389995
Ni 6.751436219990667 8.798981667149482 0.8434641360880344 0.7096013325864554 0.33733002031229004 -0.6453990868769336
Ni 4.552565301806296 7.339350466975783 5.3477385086554605 1.309860075481325 -1.1700090327882366 -0.6351866651203061
Ni 2.714043627117796 7.796117833040745 8.768684942143837 1.9709364638841993 -0.36199332738692497 -1.199635854515734
Ni 0.16092727962296463 9.147339115972295 1.6991582281707935 -0.9050689362025832 -0.5659311732575931 -0.9097935953717622
Ni 3.5318579749257024 2.1629978691081044 4.999601545118723 -0.473369659679088 -0.4494727984568324 0.40416327588675555
Ni 7.659426258850503 1.5947877502203762 4.807504902522439 0.8421427289920077 -0.5508056304700643 0.14956878420148437
Ni 8.858456875330127 7.592238717245526 10.482616614799358 -0.14323024357796624 -0.3107944359156067 -0.20623846897938675
Ni 2.1269759692057963 7.229870684421454 0.640336716964331 0.5466011054704135 -1.552555758846481 0.8550362971252242
P 3.1198109789099133 1.2068173753169769 12.994031473060693 1.125807655680674 -0.09305799359894941 1.0939426886512773
P 6.340217206694739 9.236082117823566 7.115753268318234 -3.0651745722887083 -0.9032866474911798 -0.6247428440791628
P 7.731386330065471 4.921175766147529 9.919860948368429 -1.7794365866665676 1.395777601380751 -3.8009744176474025
P 9.080319031546617 7.072516754941173 0.6502064570486179 0.09132686984045563 0.42845505855458466 0.37750787808275627
P 2.823681563674796 9.193668935578053 6.81701524235672 -0.29620342547530926 1.135098851174613 2.163676641266835
P 5.015435551739004 2.1691100561524785 9.86138024976928 -0.45305151694702617 0.2536794360701696 -1.4022472682654947
P 7.639843072049274 0.12371922470062942 11.857110724382668 -2.2939886341212365 -2.067279555992324 -2.056803596161664
P 9.113549978460625 6.806780817748629 8.197555486430348 1.9539196176112286 1.4326122537105972 0.8667708119533332
Ni 8.523812308856487 8.060821117627619 6.192442758187963 -1.1108914006904738 -0.1838127929860189 0.9964973646179096
Ni 2.425217205535393 2.90178173146402 9.747303767643222 -0.13932910875134716 -1.0965472161536598 0.23607355006294828
Ni 5.811992140952702 2.035442014366227 6.075316694763357 0.4490796767834717 1.5462053911484208 0.900609614879649
Ni 6.169113182158775 5.911461705455667 0.43736093961965844 0.1233075365121102 -0.9020460902158594 1.542906151571859
Ni 3.5253922671694773 5.191888902835875 10.644471421132101 0.9629267277513158 -2.567904194732623 -0.6060545236410401
Ni 1.6744229421531653 8.820732494104956 12.522845113540518 -0.41507812302704644 1.3109265690726262 -0.31799815275289744
Ni 9.252390586451858 4.814635787407542 11.073079932180454 1.160548658706285 -0.6576568211983641 0.9868940372001906
Ni 6.306465281889579 5.977439834099048 4.180250312531927 1.0600920586504194 0.43742075238830475 0.03048454174210234
Ni 5.344414483646397 1.285978105241755 3.471748290099051 0.04639658498666849 0.6550360957460654 -0.13841276758466484
Ni 3.166857143116001 6.923600806662184 11.976742133273103 -0.44783654840499004 2.9615801979348086 -0.703284389229492
Ni 3.0781885666777518 5.266751565158672 2.0549479848014465 0.17805043658094497 1.1583308251193598 -0.06083358634760491
Ni 7.586191652437545 6.869065585270828 2.1323829754617933 0.07190552789105036 0.15434897919894708 1.5203781456726717
Ni 3.4464082976006245 5.096345278869784 13.196980271193146 0.08332842501601134 -1.1189376680337182 1.6023462000060467
Ni 1.152598461930961 3.7081531720199026 3.050641860683244 1.1040658931282084 0.7621269132889972 -0.6296158559007479
Ni 4.229642737883511 0.5058406924582176 8.372918505226457 0.8852207911284045 0.5825369001350742 0.0706287180611558
Ni 5.403387320289148 5.842236768169232 11.926036099381694 0.7142897392010602 0.19775691387093686 -1.2539362677305115
Ni 4.8208689157480755 4.576772167391473 5.509484467821659 -1.6765950313182931 -1.6104516027220008 -0.6572863252328228
Ni 5.736971324627234 8.779044959636401 10.651565093310694 1.4955580013051986 -0.713071807633559 -1.0749635764456134
Ni 4.647373974818802 8.833961611269492 12.514253629924873 -0.2093299634205169 -0.8927554089425529 3.33955267435881
Ni 6.621191747203395 3.4135959936348597 3.6783457941048727 -2.143165922907993 -1.2506560543173428 1.9534056540892875
Ni 8.112090924022667 4.3737489438459995 2.321470040419029 1.1299101078848217 1.0954141309904812 -1.884731488651341
Ni 1.5798840612628613 2.256857618104589 11.976688174848663 -0.1145228483409447 0.4733791727607847 0.15569957968957057
Ni 0.3144910949451346 5.975811778189208 6.286598348201206 1.0164033595132171 -1.3313694103080103 -0.605762446321918
Ni 8.065779710770164 0.7915440376467141 7.368904798486541 2.65670726970996 1.6998455172058013 -0.4093862148485917
P 9.179583926163772 2.1057740296713536 8.870165853433702 0.7242044272116108 -0.285899729556456 -0.3632999620134904
P 6.213721914088414 3.7570134556683845 12.990682329474735 2.0514955536851893 1.2317360774843884 0.8406661444464811
P 8.60447085021832 6.672694133014133 4.534868799225157 -0.3980682187326112 0.5903481686493769 -2.0432094024169976
P 3.2411616148411397 1.2176741824414588 2.930438306430208 0.23827698547217027 0.8918064147657222 -0.26500128884089197
P 2.722062965370841 4.571478659890333 8.607470194363078 0.5345135781782601 1.517541190444509 -1.1659487466759337
P 8.683399000727405 3.528518134516372 4.232835588102125 0.1435112651534948 -0.47732298789988115 1.7753410764409554
P 5.875867751678232 6.003553850892896 6.561808640471363 -0.3749997669489219 -0.17927299613413641 -0.7219637108065502
P 4.392355297101324 7.149500541535079 0.29490697782624276 -0.17021551391755846 0.16180132171193423 0.12214616921415739
