# total energy = -381168.51702824055 ev
CRYSTAL
PRIMVEC
9.20875758315558 0.00000000000000 0.00000000000000
0.00000000000000 9.20875758315558 0.00000000000000
0.00000000000000 0.00000000000000 13.47794755842583
PRIMCOORD
 96 1
Ni 3.6824072198728754 1.3803467287089026 2.6925707517885518 -0.02687471290365694 -0.19169708083010212 -2.962496796211808
Ni 2.462007402875137 5.994551300669166 9.26657391914626 0.5603436518674866 0.919630378956526 -0.14684470040210193
Ni 8.580876931887946 4.429522937187542 6.250101692603888 0.9432325917564982 0.4003261615288524 0.4278629334965406
Ni 7.162544077851819 8.588115015404842 11.834729750635791 0.3860701658304706 -0.9135692603641105 0.3810020072789438
Ni 1.3463940392346059 7.702389077865843 0.6504062652967341 -1.034656135075818 -0.10760143863076309 -0.7872753875301668
Ni 1.0023732707559563 4.012845070810275 2.0734475571219053 -0.37275930765417736 -0.6466517283371122 0.28439769108963275
Ni 3.559203251205499 1.9186907012251473 13.054053063863652 -0.20975599521434202 2.168075541665479 0.9990862083910084
Ni 0.6256301028257291 5.487130336358695 0.025119649131539707 -0.7764816393487725 0.1294416744343061 0.399111572395461
Ni 4.9819747264313765 2.5583310079473214 10.948204492932332 0.5591737999291014 -0.2559715745384559 -1.899127352361697
Ni 4.383359435062603 6.320771540600537 4.065339593823085 0.2648804469923115 0.42001284132450245 -2.2293701268099024
Ni 7.586294270108191 5.474053900488475 8.290837900783401 -0.7689202820617467 -0.2309935644368796 -0.548607594377481
Ni 6.293421530364937 5.386432571400347 5.9151883854461165 -0.9916048124122986 -1.0630989637975432 1.9535774037804612
Ni 6.165438216474571 8.590702676305922 9.672799845585008 1.0553118636529568 1.3570462462488242 1.617512880444156
Ni 6.564481311942352 9.185256905548801 2.087343572423428 -0.5040002400807514 -1.3151974285338381 0.04215169366738547
Ni 6.048726421954029 4.279374143621388 3.8550566918934632 -1.3086334021630752 0.12688496945072342 0.19536475948967646
Ni 2.397896032080438 7.9634665661451445 4.679476246219504 1.2854600493704056 -0.12101848336761739 1.9509919024414721
Ni 9.318618133909736 7.624335647981345 11.534400853727456 -1.4246947986357335 -1.2892485698785603 1.2507972078808973
Ni 8.847940112643053 1.119821765888905 13.471182159366018 -1.9895497081100122 -0.6955222287855699 -1.346242727875417
Ni 3.0852561209712617 2.052567620014767 8.249798151417751 2.2642018897771075 1.683260873374243 -1.0391141708471716
Ni 9.08868466401993 0.6610092288607985 2.5442996239082696 -0.46849201987181244 0.6911117584227001 -2.5759147237419247
Ni 3.197658216909224 5.93339594108175 0.21942904003265182 -0.633940965638663 0.24349683911021291 0.658076425234286
Ni 4.570858949677781 5.119157589219172 10.116075366697453 0.7846518338643905 -0.5530430044410153 -0.16920969836086341
Ni 7.598689257911935 0.29026832917015544 4.101231647659543 -0.8846937149803408 -1.3685665881835978 2.5873227084685504
Ni 2.505435903976516 3.6984857107386535 9.748343889008492 2.5137845300700836 0.2074836542403975 0.045170425889051236
P -0.10533437443768494 6.680124890574903 7.199461066415288 -1.0271749962074246 0.1081169448146009 0.21396103443462502
Ni 8.160810242693607 5.254056680108506 4.24876147054859 0.002782704951459724 0.5434720729231285 -2.832473024021786
P 1.3702078865306546 9.31797352087388 12.449715450488007 1.2923128106261808 -0.8850742382482113 1.0306063904864766
Ni 8.016195912478159 2.70678539010494 3.744712753291412 0.6513398778414008 0.3115161445729796 -0.3403775488893622
P 3.3419226143337784 7.921907442847748 8.869109204740562 0.9588548716747872 -0.2233440183114218 -1.3725934499548038
P 3.629779169874068 3.8175917822495173 11.82776148371819 -1.1669388785033452 1.9671973085567411 0.33536492616611924
P 4.27303851835469 4.605078693124074 5.408377040892414 -0.58532783261665 -0.3557956832166453 0.24993616697765345
Ni 1.542374819650116 1.2464145573733525 0.9893585335620252 2.1717673886947693 0.7885745659575645 1.2247550181808649
Ni 8.03427270375509 7.867934914231297 0.5524637606287855 0.301815372345448 -0.030936798788172522 0.17982038399717418
Ni 7.295242275661588 4.124906442715 1.7651392717054393 0.6670794000638447 -1.1487390676658666 -0.358012488362306
Ni 1.1590510734995652 4.2329067524938315 7.7135777184167695 1.1347486669240456 0.38227393201283194 1.1904876123575625
Ni 6.895793994856984 6.514790855635514 10.653616335546175 0.6192093158554433 -1.0991532863179392 0.3353559273050547
Ni 0.32492364685353525 7.089168696856105 5.165153491954788 0.29910414406187197 -0.9648553122325965 0.6357348243142922
Ni 6.921256209773293 2.860497972883612 6.238969225474656 -0.6827335616613338 0.321496138603827 -0.6846197229404533
Ni 4.16190723097313 0.5496707444319984 9.695119111513634 -1.1870940132949812 -1.2540676511020532 -0.5401934021718567
Ni 1.3580339089106326 2.731584574470083 12.468678124251358 1.1294809907672032 0.8719731820898788 1.0252363844238148
Ni 5.853040321783482 1.6516735642583147 8.696982790154783 1.188668813981269 3.010104627897758 0.9773362183084264
Ni 1.5189385314179256 1.8368708894597208 3.5816974835295743 0.13070691429997489 0.8017103320085741 1.197910130073879
Ni 0.5672253991498861 2.0715008257536205 6.8636581932680345 0.9428618386806408 -0.880371176345587 -2.073236287796391
Ni 3.7365823411577384 4.731643858335558 7.73043895368323 1.0903698836983542 -0.6533430243143586 -0.7290098190200541
Ni 5.24696593671409 9.029499978570701 7.519751787292549 -1.901174978919345 -1.8350282078889428 -0.5810754850981993
Ni 2.432631465955417 3.1378749622124147 5.935701813998583 1.0218926647625626 0.30482639125762984 -0.7861070782536784
Ni 3.274882858604763 8.977599420426644 0.4319901886061416 1.6124210677435455 -1.2734905357133552 -0.08826725707852541
Ni 5.3564580652330465 1.2576584504702109 0.6448285207850494 0.3848442638431695 -0.5380025651681251 -0.5067250952110821
Ni 7.205576602374029 7.211405745969698 5.177796195339453 -0.3127775277839065 1.8468804792418385 0.14364059164250745
Ni 6.464262402382065 6.98681335551984 2.9030148069771373 0.7490196864830778 -0.6223941413413281 0.44970342641039973
Ni 0.3670583175043747 8.892547334724282 6.77059264665422 0.5008131006020213 -0.014932710050432346 -1.0952791480745137
Ni 5.997424433057553 3.5089418519240474 12.736700857554126 -0.110236562260765 0.08557248385518165 1.410943510487912
Ni 5.303839223991893 5.539951770268261 1.4275167480455424 -0.34991557028678444 0.39199964394102815 -0.06464833210800479
Ni 2.728748277112317 1.6069005845392936 11.05784764507683 -1.4356600393979855 -1.2470706509589295 -1.8169482104587804
Ni 7.132311726470176 5.635676806092865 13.321576682501513 2.2148775896206825 0.22022269907362071 -0.3536770942117457
Ni 2.013964507924652 5.389029441059081 4.891794283590899 0.9927710648062579 -0.5091493883818586 -0.7500972358179727
P 6.079594177613873 0.7273122839774074 5.764114111735626 3.007893736289368 -1.8421699611400466 -1.686148222224367
Ni 1.992287092404583 8.607075847416661 2.6669759307620096 0.4548569455868812 1.198188580546246 -0.9707217983157024
P 0.39303806460089935 9.23085867345678 4.598176729261589 2.1624049736432633 0.4383437784232063 0.22191088540932105
Ni 0.14160582908953206 6.287012235036998 9.291548990782614 1.0277570939631395 -0.8848886045999663 2.2953346066261693
P 7.304027430464538 1.775070916836448 1.2874322057206302 0.6799837668303386 2.033215781539395 0.5162996262733947
P 2.886549548289846 3.095496259483715 1.3249063241222314 0.13419718684142048 -0.3655332222193834 0.8192457697891761
P 4.625862859151601 7.7966591299809425 1.9190977283135018 -0.29541126859131706 -0.15584613256976387 -0.08006800909718469
Ni 0.5420946995091603 3.370865739643709 10.37083564722537 -2.0838449165501722 0.5141980065493595 -0.015412735010644423
Ni 5.5800467010984995 6.854308541620828 8.457034796315071 -3.4827281534394405 -2.7595765929723766 0.3216846004655492
Ni 3.7176123003882644 1.2023046082054976 4.797327164061979 -2.2439289984606843 -0.21330283202533587 1.3027126658032662
Ni 8.407319476362566 3.0658901036226185 8.167123766941932 -2.2831658324741193 -0.18557862663719008 2.714867937211092
Ni 0.18304431766164717 1.0164166261799603 10.938136558188027 0.287713128616111 -0.0626690968944469 1.2333512444903083
Ni 1.984220220698729 8.119398459518692 10.559365621822149 0.6702806806099618 1.2564649476896361 -0.8292059663256816
Ni 7.398021219849986 3.5891869661304545 10.593182021683152 -1.3779318314485816 0.945265820136443 -1.4271196060271423
Ni 5.890602844258572 1.6742994818168575 3.8409590047992945 -1.3457161659479857 1.8962857691478439 -0.6526367422759535
Ni 5.582873789698611 7.80724920128429 13.329999933128619 -0.33001034672242524 0.12967050261566054 1.2295573246655147
Ni 4.7731569378446785 1.8444865320404755 6.58825003632589 -3.185083110421598 4.115658675535719 1.8907468416074857
Ni 2.0630011424379777 5.584310355892804 11.558769068234342 -0.10969328816278527 -0.547549842536928 0.11448479601415767
Ni 1.9618797746274939 6.352219447992652 6.9646893152535 0.7941757141944258 1.2820402250555791 0.35550206323562644
Ni 3.9813327021145763 7.339186467191651 11.310343492097358 0.7631792658129114 0.3763187428706616 -0.493260485065744
Ni 7.139061745831353 1.5624775376111653 11.638315237734728 -0.31591118831688175 0.5393539369896969 0.17587939707155517
Ni 2.6777501772184586 9.34532353110948 6.980080832798207 0.5937101431430742 -0.8040086411244476 0.0854182176655045
Ni 9.346520669604644 8.489829944952124 8.973146065224645 -0.8584666629630119 1.0742809485562919 1.1052105482556127
Ni 8.913128908083397 7.58734406848087 3.0935937301521745 -0.551448920481018 -0.14016805971287472 -1.35396297933781
Ni 4.242824584488358 6.927380033613924 6.125579029840303 -0.09385503557894803 0.5130806051154648 2.457331075068045
Ni 3.4247830157142296 4.726707964232432 2.7481262658459116 0.032380473213234555 -1.884801165547012 -0.434558086128529
Ni 8.510604902221994 3.43135806867996 12.792068512955323 -1.7609295290013156 0.16845070870765183 0.853346311017311
Ni 7.6095832182178995 0.8278921768377723 7.241458526577066 0.868822295165723 0.7595619807752984 0.41464797746816334
Ni 5.156784572997847 3.155528150637212 2.0343747983913816 -0.44689141088290135 -0.1941558267832398 -1.028715344111351
Ni 1.8087289260657822 6.21386707298266 2.6209892367840486 -1.1942504218341046 1.205212320162247 -0.4967466438421316
Ni 5.164068700303019 5.743124590412392 12.411558963144167 -1.298550049785144 -1.310642462173304 -0.849051540296699
Ni 4.957599144918367 0.40491552022442745 11.84181957315444 0.07890149959290928 -0.7780939781412148 0.4959532014065588
P 7.871314528290713 1.0790730132651558 9.526267331150004 -0.7939078052450198 -0.0965760340545369 -0.7571903952193282
Ni 1.2509728924126193 1.396047660510822 8.95096124715778 -1.8076698704806482 -0.599162167396581 0.22543432518154724
P 6.09018424891722 4.05796798332019 8.25931356070275 -1.376017130924372 -1.0914952555520494 0.16119531269681917
Ni 5.12665351795041 8.658921153014788 4.40890637054934 -0.1839871137803541 -1.721731261535299 -1.0416492785641995
P 0.5743069337866462 3.8192309411121226 4.453855237539573 1.1755677578229367 -1.1589612596145071 0.09865837050486234
P 8.744958575786242 5.100454602421695 11.439582880531878 0.417852343338074 1.5382401135547572 0.16850110232961302
P 8.276168349838851 6.012186071578654 1.7985514071053827 0.8502622727753486 -0.03276922401122098 -0.7490330562195164
Ni 7.244023165584007 7.891564586374245 7.671149288396733 2.8986982136986077 -1.1689294265708126 -1.107468491051854
