# total energy = -381167.59621827625 ev
CRYSTAL
PRIMVEC
9.26972000262870 0.00000000000000 0.00000000000000
0.00000000000000 9.26972000262870 0.00000000000000
0.00000000000000 0.00000000000000 13.56717222150456
PRIMCOORD
 96 1
Ni 5.983455897902727 7.018744568043685 3.9701886010746903 -1.5335486216163587 0.7806087741432686 0.5611046984032272
Ni 8.283931562115034 2.2771159699941483 10.864510353386924 -0.3899841561728961 -0.7594030865999308 1.0382063143209217
Ni 9.143642467102751 9.198074262519036 12.80671875816411 1.1122165472598007 0.023216290215463245 -0.9584769195100783
Ni 7.855902244446963 4.265480164236039 7.367232272954937 -0.9337534486214693 -0.4269113682165486 -1.0591245525308277
Ni 5.1149202195437065 4.498826823979589 7.007756242041221 2.0185764343596655 -0.2892825299857599 -1.3108720616856069
Ni 4.8153970292352986 6.821345882180304 6.065760814170037 1.3096315044102864 0.7774563445572159 -1.278752812553559
Ni 1.1909828860489808 8.08350167783525 3.655782875422132 -1.8122428345633113 -1.489758621014602 1.6583268291367248
Ni 5.121548069292113 8.243218952191956 8.130249802403346 -3.2178587621907226 1.8360844170675992 -0.5499620515228464
Ni 3.409690350777801 6.162296604470569 7.523132276645358 -1.7972713008551433 -0.1989203380514187 2.9975715284277538
Ni 3.695920762709685 2.9182932276830043 9.818507740953368 -0.1798077855916839 -2.469581353190308 -0.8892941898668297
Ni 2.3125541092782855 8.887130777259525 12.847514795566537 -0.30687401781527796 0.1878162577184572 0.9046722149847968
Ni 0.3502313392296791 5.624124474619887 5.158659393023226 -0.46426744026750366 -0.633636804134683 -0.5991991912821034
Ni 0.26271962127890036 3.636158878334892 12.667451412940213 -0.8909885468501172 0.38337719237933976 0.9240328788995956
Ni 7.413588288370086 4.749146340911016 12.207999598660743 -0.2819592568514693 -0.4806643935682883 -0.8681373532835565
Ni 7.336807198207776 8.912826440899503 8.2270655382457 0.9047794299866223 1.393054288912317 -0.7583083108738553
Ni 1.770108638540867 2.0513704805914283 12.494470096338759 1.2491740704551777 0.21363141900934823 2.592114473430239
Ni 1.5331931366250986 7.297846565351059 10.91320233822389 0.5525069294318872 0.17135194151484684 0.9011210072984287
Ni 4.879274669258052 4.722959382114864 9.29290257040886 0.6703508717262648 0.9586504689734652 -0.028040965297616224
Ni 2.1372173568431667 5.358713853645933 2.65151346907571 -1.4837813203852446 1.0782725862141882 0.28845617742972257
Ni 8.732270836145009 7.197418419652826 7.03234046626185 0.17455065095780262 -0.48940151633097007 -0.5244284260281161
Ni 4.639429935845086 5.87196897633058 1.9273935383885075 -0.6681142690862623 -0.19037810490836246 -0.5659106044323027
Ni 0.08399478621015577 5.308638826595735 11.12286949841177 0.7377060612424714 -0.6115674830394693 -2.7075744888734725
Ni 0.3155913228313289 3.461387578815372 2.356034657571818 0.396258162107066 0.49084956163140625 0.40416764676212974
Ni 5.717442745133464 2.669753496977723 11.463744909318278 0.9484894692800632 0.6164299533380933 0.22870348285112221
P 7.373561637721667 2.381502286101569 13.13790638477403 -0.8795967600734077 0.5353607566699038 -0.8633080502157131
Ni 3.6081087058332444 4.308139415343965 11.651446541165143 0.9232620621718421 -1.2595111907151275 1.2827969007159454
P 3.966856136760631 6.752842651913556 10.101628161849462 -1.4909693534932515 1.5802879346544267 -1.37127010315769
Ni 7.790059423799506 4.651026355474815 1.0518749800078444 -1.8320439284496386 -3.366062033503248 -0.0002236859750318728
P 2.8388980765010436 5.55797575321481 5.568985399573108 -0.6530522325468172 -1.2397286087715618 -0.586817529788299
P 1.8879175091038027 5.329847945790635 12.198474961434886 -1.301418629582191 -0.2507928585509939 0.5942500748069443
P 9.117687251304796 5.927179428220803 2.352710536005694 0.606146312023898 -0.0015457472205650797 2.2178610977290383
Ni 5.165171371272534 1.712515868629189 2.860570681692337 -2.1421539367037106 0.43459202469025804 -0.4986096651927993
Ni 2.8263746848785303 9.13801574710655 2.7594816049632485 0.9394517845578273 -0.2005614731992675 -1.729120612020835
Ni 9.254897645676703 8.107491713008503 1.574077236366843 0.11450150818470602 0.014941194690864591 0.34621832394085533
Ni 6.697391187305209 2.456540668917445 8.608886229045476 -0.6996447355943757 0.5998761627444701 0.8775123667405532
Ni 6.526652215954301 6.665401383834229 7.930595793681523 1.3112466714162063 -3.3007845524516766 -0.6756154625593138
Ni 1.8998939872505736 3.813414462795074 4.357111345722751 0.5834411571168985 -0.9085057297982739 1.2941478069523904
Ni 5.566355580029579 1.117761368338962 6.7366975807152345 -0.08800217634259683 -0.7361184050403774 1.161440060172303
Ni 7.086348635477432 5.584895019885262 5.852497929622149 -0.4421281851663031 1.2101537233279223 -2.2787152529019337
Ni 2.1014362379216998 7.29251647639255 1.3417215096835795 0.7880451758166558 0.3407848116301099 0.015586284474031223
Ni 0.09756102132455154 5.92323979725147 0.2986666681870762 2.542027841186493 0.32269324423572165 -1.6209908116904277
Ni 2.2244639608040093 1.5045126231683577 5.843828887545631 1.5373695380243457 1.639738524611576 -1.2058751505572263
Ni 1.6614582512666392 7.341089808814439 6.12709762396057 -0.12016899088312853 -0.10528101802770255 -0.4533106841456838
Ni 6.514101015172003 9.15669423276115 2.507335953206037 0.6232528897971975 -0.7562635125296847 1.7051224493340247
Ni 4.923908370710609 2.4435816004583226 0.26216899991518655 0.4409472774843245 0.3514134949885497 0.28107325470209016
Ni 8.999581749704168 2.6389409479375785 5.105977720729318 -0.2758477446370927 -0.5662553893662312 -3.3760916498251086
Ni 2.4475583103073664 5.093080759393713 9.774197552726294 -1.0736271170223768 0.8708087294681326 -0.9566131268284622
Ni 0.6497146697423981 0.28218696009935995 6.698492430032637 -1.656947689401011 -1.538425747203002 -0.5422729104087047
Ni 7.543290209600442 4.215673959063748 3.682415707746813 0.9009027206400355 1.5563450506855843 -1.2407760761994695
Ni 8.10407118635513 7.4264917385096405 3.882205981351577 2.0509612784482742 0.1972522063203764 0.48054766548476596
Ni 5.318548157198597 6.023102490034105 11.461913212660535 1.5170256842606713 0.040103038668472875 -0.9682363128896875
Ni 1.394147337707479 2.98422874552974 10.497572197931296 -0.1533498485104714 0.6779567090979809 -0.5400949289207796
Ni 1.8203319811099115 1.5564137850443411 8.325712043773802 -1.093147960664124 0.23834280571309918 0.783309203793567
Ni 8.737517497624166 3.7228029505004248 9.212164236809354 1.0153067840149288 0.8647118725417753 0.8627485781678175
Ni 7.315903979770494 2.2297291617230233 2.376778436826341 1.119297108255666 0.39866008668033925 -0.7567594783294966
Ni 3.4056209437294784 6.921199305243011 3.9829010949837316 -0.2176467108163284 0.4962113401639518 0.1260367625178152
P 6.383119872591605 8.380865023400473 6.146742941403645 -0.011446294163728674 -0.33386700146435405 -0.13114503027865804
Ni 8.1612282794302 1.7851070453841145 6.956757023914218 -0.626650859735153 -0.34141344635304427 1.356208066618245
P 4.6538443503328795 8.011170053238304 2.536531863090766 0.40888279284961193 -0.3392262088937384 0.13745580298803425
Ni 4.289701942407489 8.135375030551451 11.956179314073 0.708978868511108 0.845200541981725 -0.9051838645138928
P 6.867027061984706 5.453264996909915 9.80333969823544 1.3232976890434693 -0.5875425808797817 0.645411685282424
P 2.757231843936762 1.760838918613026 3.554273880380313 -0.2440321427883926 1.3067976345059171 1.2834831281496928
P 6.700672668159666 3.30070625358617 5.309960688657445 0.3888551847747755 0.9859982648587986 2.4999072578673593
Ni 1.205332412497279 8.279769457867435 8.752359246200633 -0.13221640896596584 -0.02906760678991768 -0.9289832809263356
Ni 5.406684654272512 4.938044693600567 13.249428531281904 -0.4801884823731343 -2.4123755934032776 3.527898836438808
Ni 4.668546126138436 0.05574902261803048 0.8998951408749075 -0.39654509721986547 0.0007379066072890517 -1.5285969340380383
Ni 0.4220392246507019 1.0058665790899894 2.8579788680005125 0.4072270024137438 0.30332358145985827 0.23074082499612522
Ni 5.19996989988165 4.771773727254876 4.219553336853549 -1.0161156530694693 0.5702655389668888 0.7669122504927823
Ni 7.41537734431616 8.832309653606272 0.5695158338426934 0.790471011649329 -0.05695559144943739 1.7976117149136974
Ni 7.814383168890161 9.10628549579355 10.625714025297798 1.2235864517940604 0.8439275888065724 0.30268209122111744
Ni 3.486879308616935 3.50777325733429 2.395338270065865 1.1038972287608277 -0.6607467729775975 1.3938179065512188
Ni 2.3531462128423026 1.6730732103362242 1.1799602620827847 0.16274954455781648 -0.40214727389799126 0.28467639867231614
Ni 4.715107929335983 2.6108258873964356 5.188316934960361 -1.481377081819126 0.5679479465773057 -0.03134534708050086
Ni 3.2227293695531696 8.985463966254066 9.833106622867724 0.5397717412534059 -0.20912067562318823 -0.18436917971012118
Ni 4.273016446537374 0.34903647233098034 4.633813412540807 -0.013946434877763078 -1.4253265186824613 0.6289820789714909
Ni 1.2042756644255053 0.6758840160706869 10.996246978141441 -0.5412578388806292 -1.7933187439652987 -2.7574307502739672
Ni 6.749542631619245 1.2165302341701114 4.70692647452767 -0.2190050246164357 -0.3120100534902627 -0.36976577224349216
Ni 3.0350731593339493 3.6996193809608937 7.432856328212097 -0.5119986849051957 -0.25768392924387234 -0.030969966018953115
Ni 5.551542567584889 0.7818508194258051 9.863144223321903 -0.4944892152665226 -0.03186573836034512 0.18755580496821891
Ni 6.985521891822301 6.53167640415519 1.8994175236462825 0.4247174458890234 1.2950566919199051 0.647255423359382
Ni 5.971674083874441 7.2168941012212215 13.573684261329786 -1.2792654905239196 -0.057397564082862444 -0.973020621652208
Ni 0.7681232911846648 3.571919719234952 6.745299880808272 0.7710774376140656 1.014569134517956 1.611610398916792
Ni 9.128004449584482 1.7525888678772472 0.6279197042480577 -0.08292964691569589 0.23322785308403704 0.1759120500817035
Ni 6.465870662387445 0.1043334787038324 12.413379513381996 -2.156778628595421 1.800890899885602 -2.1466801067088386
Ni 6.189150983101526 7.674614331818169 9.974137068821896 -0.6838530199777577 -0.39064030169965624 2.4258700283452868
Ni 8.539812911003168 7.058558015133763 12.139010635069777 -1.9327373271066586 2.030906416679928 -0.0889336870179307
Ni 8.493288186685332 7.156752158329386 9.54214494588467 0.3239273737531389 -1.4688606945196703 0.29610778043770936
Ni 3.1417861751432588 8.74115122783588 7.045039055590999 0.34741208713864036 1.5050068054229242 0.4058756305921719
P 8.616760856124179 0.30670166142052907 4.606922882002132 1.987439346635229 -0.8313793198279166 0.25673082130198366
Ni 3.3931717098663876 6.374304368940229 13.20800864172833 0.311400959151354 0.06986098665719581 0.40318599957515083
P 9.051482911580152 0.8034780029894516 9.116447889750443 0.2465363972674851 0.7507024735021395 -0.3201900181978937
Ni 3.8345679636704073 1.3570035699566187 11.739565425771197 0.08867297715737632 -0.7148070451571109 0.2926930983292056
P 3.8521526223735227 1.7001037136458097 7.900231899085885 1.127143600883278 -0.4391451912785792 0.20141225123533701
P 0.7210924401587692 5.86887288987468 8.370524650820965 0.1157595489615232 -0.25477292624466447 0.22420019566413002
P 5.6013302333173245 3.8741867466420015 2.324666852307996 1.467942039360143 -0.5861374730021389 -1.3444997770423812
Ni 2.1705512697036844 4.03737089625172 0.7671963191918807 -0.9721418185916806 0.7996956155713905 -3.0074281095068596
