# total energy = -340892.0010323916 ev
CRYSTAL
PRIMVEC
9.08142195609349 0.00000000000000 0.00000000000000
0.00000000000000 9.08142195609349 0.00000000000000
0.00000000000000 0.00000000000000 13.29157899694500
PRIMCOORD
 96 1
Ni 6.367856600812077 2.0213246888110463 11.464146151240515 0.5037325882416616 -0.321480197764227 0.049507619811824416
Ni 4.626866319799233 0.2889653910231658 6.159915654583869 -0.023769077395139712 0.3099745111174726 -0.9814109025984323
Ni 2.7868703789394216 1.6129694786955924 4.712169930519699 0.3045649100661271 -1.1919549409317085 0.5994966679178644
Ni 3.5382672139915203 4.2583694697157295 4.927680241771062 -0.2910915581700407 1.1970788924218354 -0.8682106297236531
Ni 5.043739903510032 4.357048198379932 2.8316109113006456 1.6329816655037166 1.127596886370613 -0.9251307399494647
Ni 7.138787574034311 6.079085552214221 2.6447851787681067 0.38398602960793227 -0.7204922684673462 -0.8234662356284269
Ni 5.482735830587847 4.433168675433433 11.540480041704988 -0.9605242889574104 -0.15602765245295064 -0.8910312271625945
Ni 5.691236192395451 7.946298514039116 12.516227952075687 -1.3853816028584078 -1.0346016276887988 0.5595065006781719
Ni 1.9584267618159916 6.450987935451513 0.3344415185456083 -0.09377276027778689 1.0150129069235938 1.15172874642181
Ni 2.611934951895567 1.5683615350918225 0.5674317503687425 0.9344376191726875 0.14429699427958376 -0.2066979251143085
Ni 0.4930494574369354 9.14181319803233 4.549241959305018 -0.4568883741946131 -0.6532242393483072 0.5875886036263687
Ni 8.590443758301207 2.145059060065395 1.1039902993784916 -0.3460442602568363 1.4939649457864657 0.9890712473571677
Ni 6.718472131482749 0.7008096833724489 4.846402425309462 0.16626784212372012 -0.7273386019652184 -0.3246462541970344
Ni 0.44136072929980674 7.141938827379284 2.622987042157331 0.8381575190920145 0.7173922893857839 -0.7257884838692791
Ni 7.696187077803078 3.8364829412025525 3.7611044163054905 -0.24905736391712593 -0.28640649398954543 -0.35002304239892623
Ni 7.808478857660694 3.87083795965798 12.285300111130487 0.6493089634543011 -0.07988957453779144 0.4860248865492533
Ni 8.12992486169144 -0.1726251133523244 6.919515737896815 -0.4987747300157539 0.4910333955074382 -0.03361974493697435
Ni 6.751955333450807 0.6492063205997085 0.42685406620683813 0.588214924356458 0.6871494313408424 -0.8290897524627914
Ni 1.8593575320168214 6.689193627781903 9.459204347254632 0.09543652113345498 -0.5303890144869252 -1.2226680537448493
Ni 9.162700468042237 4.8480171020954455 1.418184788147104 -0.4501657107587989 -0.26748111783995226 0.17797613169958382
Ni 6.305212953625838 2.0929135364145717 6.928381929944934 1.3677278943323865 -0.1759526735116518 1.112055339091588
Ni 3.263990114496192 4.181922061479465 0.5580124997364481 1.4486857622336922 0.5693353138431356 -1.077345189303912
Ni 5.867524751279078 5.591894519943978 4.8125087430786015 0.8724084698550847 0.05849285402957023 0.8577840350736905
Ni 5.235203518126945 3.007285566074417 9.460015318216321 -0.5860497983843391 -0.16419296187256238 -0.5436687623149669
P 0.11668083098622041 5.705857281402387 12.582074616710836 0.1634195740416476 -0.42545021028998986 -0.09717252998795523
P 4.051340298230563 6.0045270797005905 12.661744113381673 0.05136421340458896 -0.18940571369276413 -0.4954850035208887
P 2.1865248317459356 8.546435188532504 1.4753387158894338 0.5670712003993073 -0.9957962247858269 -0.8818960976305457
P 6.243359390131278 7.672166717291683 5.8341523426562905 0.977917030512561 0.2651326722124337 0.01523455756156731
P 4.8359297297549295 1.1753539277227798 12.817268909591101 -0.7192877066362837 -0.4937680208297819 -0.6133855100848146
P 4.056553034311297 6.281129023162239 8.083220017807113 -0.5961300654384766 0.5218241556360497 0.4599937525928142
P 4.7759651019830045 0.9112298577366154 3.768947132123124 -0.3566575169963084 0.09222495617469278 -0.06399964278041236
P 0.2528513011760341 5.332029636755486 3.7770677394461063 -0.04736177711341521 0.49245213023183576 -0.05847511341775735
Ni 1.3602607558409303 1.09820725001227 2.623983274122587 -0.46648064586873855 0.639816964803466 -0.15326757320931023
Ni 1.814822239786999 6.647246540748961 4.651614102192276 0.436969523783499 -0.7279433254287527 0.2057587011294908
Ni 5.844784871233508 5.422771202815922 9.23488233248561 -0.3253278536450913 2.1224574867160477 0.3876511371643453
Ni 8.672321856740048 2.260048022180813 10.11983600454976 0.42366046537941876 0.9180154690609222 0.9823922926750952
Ni 2.4418035969539904 5.256944441780737 6.90005697552715 -0.4596402259081374 0.13080667310263278 0.6346055958058554
Ni 0.9477190103017512 0.3301296595018237 8.99425190054972 -0.2692078707230719 -1.449313368515362 1.2036218357466755
Ni 1.6094640499026251 1.2110529965962362 11.484097126668676 -0.5339273666574869 0.7866110144732905 -0.5848838031006959
Ni 4.270838261769471 6.605916990394572 1.4048532610277362 0.3463543352980874 0.6903512261075917 1.160926353760678
Ni 5.64105225584121 8.05953476175805 7.962665960447315 -0.5397362600297801 -0.8010549578127624 0.5184840355192233
Ni 5.262756551696537 2.821552328577613 4.867163463557137 1.0939511732917095 -0.5133423434172837 -0.7095751073342103
Ni 0.9509519964424152 7.377320197547466 7.0581472733791015 -0.5857173547455848 -0.005467707982790583 0.0293699685216849
Ni 5.094396073994932 4.598305248416118 7.139451425963757 0.21976889936565377 -0.474791222616963 -0.943752211705394
Ni 8.557659825807393 7.404246613016761 9.550304629473935 -0.7137107267691386 0.23834023460993795 -0.1495567000166263
Ni 4.684760383413653 0.18554888463541166 10.621911487057499 -0.3312686446095585 0.3856837290253293 -0.6363567741690073
Ni 8.28160276765035 7.0902655376591195 4.8176524603540845 -0.7042123003604002 -0.16357898243764732 0.4500849781195345
Ni 7.542320549204 6.516846405934928 7.315445746782896 -0.3868481816470757 -0.304630730307056 -0.5595787486770041
Ni 2.368407546423521 5.1372422217804745 2.451180164904091 -0.40573242014608835 0.5717004716412024 1.9058186483389437
Ni 2.2661234933271737 5.329396024449888 11.525087939992032 0.34553569605153395 0.1152782384497305 0.5968738855830367
Ni 1.244327325864195 3.230852006554385 3.919354547180126 -1.1518035655238035 1.0500369884072625 -0.46414197043323285
Ni 3.747385112477678 2.6274914273420773 2.6518423516049325 -1.2286975477683808 -1.4361521485430557 -0.3528869942102826
Ni 1.3648196295561363 3.3665375288230988 8.236100304004854 -0.9955308869395822 -0.006697980845465884 0.0921442235354284
Ni 3.867995474652284 2.4991891009507783 6.832376771842 -0.8035952077361128 0.261338238167008 1.075994588813289
Ni 4.000084753910596 7.012283369148213 5.9568332689884 0.15233529120302797 -0.4256458712405637 -0.6683053020511458
Ni 0.8166087083073813 7.64376911149995 11.770118320762618 -0.37373324153167253 -0.017225876959983236 -0.5116760114584543
P 0.20781017375510236 5.652440358707482 8.342765234950233 0.8272686400936526 0.14242677384006439 -0.9356550365195562
P 8.628476752562726 1.7368945598065537 8.110401621227398 -1.4195798460066713 -0.5743376521537334 -1.888235902260174
P 1.9339523302174249 3.4042708361670857 10.676327366144182 -0.9392671793508468 -1.2979406983359196 -1.4889600363727067
P 4.039089460298665 6.100935452928933 3.678351776952756 -1.1058492102808761 0.3843886643629896 0.2904737220803836
P 7.1535176401021685 3.9039397419128132 10.016826345856112 -0.9746933813689407 -0.562071947412503 4.120003582767976
P 6.289029860079031 7.6171151386829585 10.105002410274029 -0.1659726794808045 0.553262319540673 -0.2401173811150187
P 2.231650416389081 8.563308470131812 5.6551411735339805 1.128377216180063 0.3474617094296532 0.6336964537280247
P 7.1159114726625905 3.941300710965319 1.3275830759815157 0.2684234271485635 -0.2320094072959037 1.4884674130070041
Ni 5.33874988884563 3.073461886318853 0.5654438271491038 -0.28155225122103766 -0.5830277237285636 -0.950879823889111
Ni 1.2567053037005016 1.1697960976157955 6.884067316263478 1.5973178935535202 0.42839798006440416 -1.000383072825561
Ni 6.8449581735253595 0.5885923711731285 9.273188677541606 0.8200225000542006 0.7255216033611376 -0.10115876832921288
Ni 2.9686531979778294 1.6728432922500822 9.126130490823586 -0.03636079801722125 0.27242380655720827 0.8560935347451449
Ni 6.24288715620062 1.877929039482153 2.4541307188285337 0.9829201401541072 0.5045136893820602 1.0185378893577168
Ni 4.055290716688959 6.7709899934250535 10.585759255239045 0.7620590361655392 0.4225222380099175 -0.2974624946933909
Ni 8.219994402542865 7.303824251377819 0.4633295966393587 -0.9481326001612768 -0.9646262269409257 -0.11815555999752553
Ni 7.60024185708365 4.152788860526514 8.091447785906666 1.4593319290936286 -0.6423698131323066 -2.0137201347086284
Ni 3.1157359045345587 8.80924245236587 12.526900438908577 0.46256151331999046 -1.784660554069668 0.22552585645408899
Ni 0.14581857265004272 4.93764165328144 10.48336077622873 -0.6210419981888079 -0.6178034366468522 -0.9528896552302878
Ni 8.58144406935346 2.1845632446493526 5.613724441530855 -0.305592579999693 0.9383883762903195 0.6641545131075659
Ni 3.677013175387773 2.7090425945981544 11.650001987930855 0.814256801215017 -0.03829555314608889 0.3626718415111883
Ni 1.2664496692312108 3.357919259588576 12.961535467265191 -1.5992143392452844 0.44816256428584106 -2.2417695289155195
Ni 3.033667096239106 8.50736691219223 7.792799783020648 0.19380564253267266 -0.14043005512500975 0.8827090804501443
Ni 5.651759252076723 7.723422261611649 3.626061858696212 -0.8211967228679599 0.8500409007931619 0.02662043080100577
Ni 3.110859181058333 8.465056568289551 3.481542837497655 0.20443226900858344 -0.4640206143640202 0.5183786202896106
Ni 3.1564569996321374 4.619682915200173 9.296222795651666 1.34733236139517 -0.5458601135393308 -0.15226510008672486
Ni 7.164724114533572 6.310761702311079 11.485239569524 1.2678693328718358 -1.0166455574310105 -0.08683001041136659
Ni 0.4344107172395532 0.10410578629808116 0.3176935605663591 0.6718981616087266 0.10951922447876623 -0.08763450859053294
Ni 4.488456371007487 0.07339605053046967 1.469038025483836 -0.3106327135267618 0.34239663620192 0.3860012602657481
Ni 6.121786397251869 5.428120160222808 0.19516247769301562 0.025033288819543986 1.5384512011242988 1.178495730103009
Ni 7.641961908573006 8.854495176913423 11.477331467469813 0.8805375267201222 0.35143534936542054 0.20526684909473683
Ni 0.032575059793713765 4.713194314892359 6.134674750990156 0.5085701188396209 0.1993358283222825 -0.48015531514235366
Ni 7.9095005931347035 8.983342388609328 2.416515469967212 0.7016885054972819 -0.4982566527287548 0.574248691984353
P 8.372671264893553 1.6445909892062451 3.538604134738202 -0.10136882745748993 0.48682784206652285 -0.27954601942428625
P 1.7017403762377032 3.1570291292019736 1.7086458893314138 -0.04947342413977931 -0.30573836154893796 1.1597570160429254
P 4.917735176819823 1.1081604882430784 8.406126314454205 -0.7865796470147228 -0.2692173838047686 -1.0217018889079952
P 8.662014443061246 1.6620999703275943 12.25616509389319 -0.8459626169587302 -0.22013528156613701 0.38223510835509655
P 6.310398445441341 7.8640117516218195 1.4917670078233138 -0.11928761671943972 -1.3371564493034327 -0.5438086303269409
P 1.952451186308809 3.2670505536237306 5.981848045180701 -0.7524338543709492 -0.4250190362898423 1.3806060358466352
P 7.023162912396853 3.973521595311039 5.933307845962023 -1.0215851608244728 -0.04766876683087275 -0.1708433773095445
P 2.3578186086706716 8.453732035375484 10.437265295743385 1.0539394087854623 1.1681113015448916 0.15572657627276407
