# total energy = -340858.909092279 ev
CRYSTAL
PRIMVEC
9.41457322906551 0.00000000000000 0.00000000000000
0.00000000000000 9.41457322906551 0.00000000000000
0.00000000000000 0.00000000000000 13.77917956038286
PRIMCOORD
 96 1
Ni 4.693164736518858 6.496507402417983 5.417601080373516 -0.5126859407802073 -1.857475738259182 -0.024384599491951552
Ni 1.4302525448489636 5.468840836431647 0.3250202517859863 0.26240318909641264 0.5341441106539833 0.20662876243926995
Ni 3.3499593354088173 3.286194431175232 7.186586202863511 0.06088320863861772 -1.6753704148825728 -2.467408513908705
Ni 2.8380136743407687 4.89586049735587 5.412227241995172 -0.2808865926125808 0.5285612172495671 0.35938520034011656
Ni 7.236125687003054 3.2269485220741023 5.319659392536098 2.5802146366688596 -1.3203041536327842 -1.2592468813101474
Ni 0.49458142227158886 2.9517982059467203 9.122409801271804 -0.353939603844513 1.2360388186248004 -0.5495537603408341
Ni 0.6803366001058094 7.361584289367849 10.589189007193477 -1.894407064067892 -0.8716412526717568 0.6255640544288775
Ni 2.1019164401297354 2.205815669883441 4.967917757657512 0.7014463075794888 -2.08537189471766 1.0427466253934363
Ni 8.074361625780773 5.856401156478858 9.486496765977869 -0.5209882899983156 -0.13732519094744092 -0.07100718444649706
Ni 3.88866121349028 0.6129659143394526 6.584284175579334 0.33618742206741453 0.8189436651677251 0.02357187378266908
Ni 0.737224158622189 2.579621298496242 11.497747100433436 -0.4971904162477696 -0.8442096388233654 0.6345323193657588
Ni 5.584875451030633 2.374044678262288 9.626520654528958 0.3012348172516296 -0.3807094157391895 -1.2332262888766696
Ni 0.6512860516053557 3.0275290327081197 0.22476069602854615 3.193852629084112 1.55381765627804 0.5014173098449235
Ni 1.8647445122613642 1.319668968128501 7.82638082642996 0.39586915419876334 0.08919156866500769 -1.954597103294227
Ni 4.775344545917199 4.8250440778010155 11.313753389243555 -0.7795718482383219 -0.6065746578105683 -0.44760232090699686
Ni 0.5405170077929987 8.081375482809271 13.396642035493695 -0.2342979462197642 -0.5918759181478128 -0.19397610667226592
Ni 5.823647856341749 6.7712999647640455 7.524630575204161 -1.0998986491243958 1.1149743125105958 1.2819134696697279
Ni 7.067802532892281 5.068749719465063 1.2493731744711984 -1.2623496886051873 0.7031103255454729 -0.6055099639914798
Ni 6.87004942298139 0.15743237584155595 1.2006019195041728 0.9329085841226709 1.8505800395806127 -0.6116741838206627
Ni 6.5454914267391615 4.905331557987642 3.6703466757267176 -1.2676294489468878 0.2999847468946124 -0.11003807309671372
Ni 7.687149644941688 7.576575482794418 1.5936725892410228 -0.788873585255222 -2.2823201966443727 -0.3769718030736282
Ni 2.8447733378930664 1.1504420149912364 12.866047046388394 -0.33605835268871803 -0.12886780420870708 0.2214984804622508
Ni 7.6130475393426105 1.5387366717474726 10.866026414836975 0.2906107618788802 -0.6953918738552928 0.3535161431538492
Ni 9.092011085890167 0.7698428303626441 8.524599466857824 -1.4270123910253165 -0.9288084459113681 -0.017056698371970623
P 8.685791081775191 0.5001689714614062 13.301455051772436 -0.4099369451457392 0.5103482937859662 1.8337855937310936
P 5.313924034547157 3.6892417241242974 5.518547899974018 -2.2063458980005874 1.4919332600684176 1.1009929106298395
P 9.06013334105997 4.927587609014985 1.4143089651472691 1.9356874108739177 0.5259160663172363 -0.01903593358552851
P 2.6770997893325834 2.7016624107921174 10.56885070472547 0.7027010059221962 0.9986444928678995 -0.18895217109511328
P 5.889879378751799 1.0981817191990275 7.186586202863511 -1.000031088802781 0.9178707159529418 1.650065617569197
P 2.5652546598043107 8.247213189597195 7.3319010815488515 -0.5995298351486449 0.6547607305974917 2.075865240778805
P 0.21137223149132753 1.7345315504342986 6.525296225783682 -0.7229078198873744 0.39148850863256446 -1.4257404662914284
P 5.695562588056214 6.946109759804532 3.322091257301356 -0.5849419100321409 -0.29690687930023707 -1.0940169935326385
Ni 3.9764521085114204 8.240114601409964 3.0693532741163145 -0.9522345381447923 0.37597807170179115 1.5480036206994243
Ni 0.5369564162115514 7.323624730255223 1.9756453600984178 0.8098365606601343 0.4382458193927613 0.31668483325811264
Ni 6.746276029218074 8.776726444242664 8.307976727896975 0.47592276511824483 0.7203254038721788 0.9197895302422094
Ni 4.8107150974018555 5.4704413138743915 1.1551276480692012 -1.1207724072496117 0.515994179217834 0.11279660967845734
Ni 3.825084600720547 0.5418350480399649 8.85230946220494 0.21799998039068905 1.3930779430614006 0.7532501796246576
Ni 3.713747858144675 4.338235327157251 8.963659385183282 -0.08842178037851868 0.1940745799233432 3.864343625932667
Ni 8.872547970197106 4.135360689429578 12.547444709147813 -1.3945843524035983 0.29092932156056345 -0.620154453377532
Ni 0.3892492944779674 9.243096156485262 5.058626228911043 -0.34359579871634377 -0.42376690905029596 0.17485481246178275
Ni 5.988619422395952 4.272719312309839 8.170557851748281 -0.21770121820334762 1.2520593624227727 0.09523263265276502
Ni 4.584661780473963 7.9027622001989695 9.162354893870752 -0.38111847825215006 -0.14262372034221887 -1.3452076017426833
Ni 2.542782073593537 8.302580294542967 11.46872762002452 0.04864115804647107 0.489369377541454 0.8568185858366275
Ni 6.063672399887483 0.06824718253058946 12.204302345423363 0.20844473260208618 0.9829561355983653 -0.1442406871203516
Ni 3.310314567694713 6.173559298191692 7.624695249296515 2.8660544595216577 1.213366573838265 -3.5354380822386466
Ni 6.734451325288149 3.5066178333339404 11.855454750344185 0.0012665254172494317 0.3399522884264855 -0.30580032513512495
Ni 3.877184848768482 3.4309623231580817 3.9595021109354347 0.44329186645710106 -0.1446024413351445 -0.11871606048668587
Ni 9.300317932349978 9.379607467778188 11.45060833245801 0.8692542404968192 0.7137608632807837 -0.7857679497467047
Ni 7.985393909110557 2.3887596561623465 13.860752250170066 -2.7295543355786736 -0.5353525291397877 0.2745290258256691
Ni 6.991290296555894 1.0884282213714778 3.892948610122197 -0.39793554980948886 -0.37465446779436123 -0.45787207826412113
Ni 0.36470267779286086 1.3957010612320644 1.5706200653215845 -0.8586103876297277 -3.122067171710694 0.1318482269932697
Ni 4.952291449072408 8.034528566602816 1.1478624219364597 1.0565349374267803 -0.05487582610227323 -0.46956982631702354
Ni 1.9188029915333629 9.378270598384836 3.0803909197273365 -0.9835906838585704 0.9411777661099984 0.7705652738643374
Ni 8.944842477743201 4.806487954038371 7.338721939826902 0.06843376729236601 -0.4639151991344075 1.1314196025508125
Ni 5.682062090098004 8.433151010151352 5.023916580464508 0.4496152375719676 2.163344968959029 0.09833595416843709
Ni 4.69641276427031 7.231851470773607 11.251526826269643 1.1426239559070646 -0.08560153732090418 2.2426187642896926
P 7.722680244170618 3.271121699493855 9.698406569598493 -0.07023071129178873 1.53002003963781 -0.450961724297533
P 3.0420274754247476 6.187558768529111 12.311738630325532 0.2815540509932506 0.5751496065320675 -0.5121745483614277
P 6.121421391850986 2.091861675960022 2.1616641459820314 0.7869984797196963 0.20563503106743294 -0.7733927160108035
P 8.445324053289404 8.404737828256039 9.757175159838757 -0.40330247054835705 0.12369603019978052 -1.8338334162498933
P 6.315097991569474 7.763059348593747 13.398212386302225 1.137250350299977 -0.8142030651589461 0.04247359578317846
P 2.9919137023204554 4.0067764487648345 1.633094231570462 1.2757852452848029 1.0298193758088072 -0.5844387451434774
P 4.320648904433445 0.06297031425612845 10.95633570818714 -0.32873842198853703 0.5289340272079535 -0.19455537621450367
P 8.370967754214126 5.0936889238523015 4.854749880595676 1.1116079671415242 0.3566035238299214 -0.8392576941347288
Ni 8.044084358393322 3.3939253922183323 2.4282914489981393 -0.18332556893695526 -1.7481166935073635 0.7922553572432613
Ni 2.890255140986592 7.52413631011155 0.2458371010348546 -0.7609604037847217 -0.14026987539806166 0.10172723923817319
Ni 1.6964307727237833 2.8229032843666206 2.7711579657280474 0.06290229595117554 0.33929151491403503 0.024699045408576818
Ni 7.6672754809320764 7.2303263099164035 4.070769185669681 1.1484770722537316 0.2499803899520276 0.9434444506569881
Ni 1.5780236856802572 0.9598816389995048 9.993584507278527 1.0153342948187547 -1.2784435088432562 1.3607848873556498
Ni 3.987919058660026 1.9079197449226992 2.244229011423951 -0.7778103854625249 -1.1417646932305627 0.023567245796978768
Ni 7.420227665784651 2.6890939555799758 7.518760588818566 1.2961856633180258 -1.7470771964992557 0.8923473748708568
Ni 0.6175140946488051 3.8572730264660997 5.321050866453967 -0.6750408210027664 -0.6301429320488116 0.15903841425481643
Ni 7.379481393007011 7.517065965643895 11.392060984687774 0.14110651236674407 -0.915897394276655 0.4003644709659557
Ni 6.11434163281014 5.653517104177993 13.043247201562485 0.440246651872874 -0.0026459222632793144 -0.7045784254505671
Ni 6.864927895164607 5.530675753160745 6.2357397297569594 0.4078463811652976 -1.2541486408516336 -1.6590346538370266
Ni 4.650027162150293 2.376897293939651 11.692033764494807 -0.7981673518523221 -1.4804342582898826 -0.42422739362648226
Ni 2.9917818982957587 8.33970195664145 5.285348921992931 -1.0622533279677964 -1.3030931890711366 -0.6766251347707508
Ni 3.7989120872450757 5.6706045545225905 3.2295911927692695 -0.7344191629610836 0.43010982054918834 0.18157361924285503
Ni 0.9483299576921655 5.034518331336712 10.53303860975808 -0.05807839219997094 -0.49195822131455275 0.29613760523438026
Ni 9.229463854502354 1.9581747366248812 3.769818231707936 0.20885765176978868 -1.0963351001428538 1.7494161290450774
Ni 0.26457021877352105 7.518892392843263 7.787041090887296 -0.2861789513597716 0.7651764987485984 0.6916406343429766
Ni 2.4642080457279674 4.160412868695128 12.34198388816413 0.03829735291830178 -1.0216851767374469 -0.429509467961028
Ni 7.588729696786085 0.41404916318195534 6.184798415669036 1.4322476712823269 3.816477398379008 -0.9076071292434047
Ni 1.2340434249416625 5.25774727630682 2.9948774099614908 0.2564755107580679 -1.1397954853193337 0.3674661775760381
Ni 4.415952628862292 3.515053290914524 13.622524007189483 -0.35540873219087177 1.2657767120088652 0.947540989323865
Ni 2.4426769168364557 6.772778052755286 9.431407390941278 -0.3146639461733419 0.3764688952952807 1.752956538098168
Ni 5.1474837950749075 1.4265055447183024 0.21525291856132367 -0.1346828682285874 -0.3863337039045024 -0.02332427654823725
Ni 0.6937777862529068 6.218560958052394 5.852238032213084 0.7606768111060319 1.0769937195017645 -1.4127959903156184
P 1.7790059941962142 7.114188135012298 3.968100440632251 0.05114772651840869 0.1359339670268691 -0.38591127165510314
P 1.7810866148717823 4.860555847883562 7.662023090547916 -2.1004925524091824 -1.671491905763773 -0.17362531093005582
P 5.598648971611429 5.999031940346984 9.54563723185924 0.3669624984667422 -0.6510670837959884 0.6496758598754165
P 2.754647628720158 0.0925151278491946 1.1554571581309427 0.8314837066162648 0.3870494990246044 -1.3845405950143508
P 9.350525851186198 6.056517324261095 12.434758858233442 0.6102587915303749 2.8113092454599773 -1.4399267850941395
P 8.516592372357504 9.15716934695626 2.8623898872510884 0.8440476593242044 0.47481410543509844 0.5999702651201732
P 3.908290598596883 0.732980069026958 4.48235361358981 0.033058730227181775 0.660304029013224 -1.7719400211792067
P 7.540451765454352 7.910783416559077 6.452086621723265 0.40062878037093586 -4.418947547102899 -0.16462799252745194
