# total energy = -340864.5258492618 ev
CRYSTAL
PRIMVEC
9.29874733865269 0.00000000000000 0.00000000000000

0.00000000000000 9.29874733865269 0.00000000000000

0.00000000000000 0.00000000000000 13.60965666190676

PRIMCOORD
 96 1
Ni 2.6104838553895418 2.908787672444403 3.8855569269729413 -0.47769116987257726 0.23825410265403485 0.06977254070844757
Ni 4.488170622037643 8.249820809838585 1.9385182423585503 1.7682826269322771 -0.7513210809227447 0.883314061023995
Ni 7.0419693131888295 1.1841861844800354 8.332920925857108 0.17028081993785513 0.21557028790327393 -0.08976235356681316
Ni 7.753276996655527 6.445733628975685 3.3900155187611576 -0.12603444852497003 1.4022930339017656 -3.55638640235554
Ni 6.429860667139255 0.8279074669204377 0.20768845337599856 -3.250061572175513 2.680768424424222 1.2159826713048736
Ni 5.500218394381782 4.671402439838953 10.667004163726475 0.6212721119217429 -0.5615872944666006 2.8730704858281744
Ni 0.24364484987811008 7.239948944389424 5.5751960545338 0.639709492691324 -0.8474047487218955 2.1546870361737147
Ni 5.709923746071969 8.191006232442327 4.458836793444087 -0.6132217308134407 -0.15859695584202363 -0.8230286338703761
Ni 8.552011503312679 3.1019133574946656 12.573159045583846 -0.6578972193439444 0.2368453952319663 -0.7460120100050055
Ni 3.3983760225614703 7.678961407319416 9.738049998277669 -0.05698464491515993 -0.7889054669344219 0.021191032255318345
Ni 3.588563303428773 3.5178649268368742 1.5060446586103853 -0.13970217582004973 -0.7038289488790523 -0.25105536818376123
Ni 9.16915077171346 0.8363600283201531 11.356333327804428 0.7944389951581415 1.2711562311532236 -0.2117992508966159
Ni 6.410528571264659 6.933257657166749 6.4892071328876195 -2.5771331695300583 -1.5142206107117082 0.3402381950980205
Ni 1.735964557304799 0.18091642969511793 5.670381752566855 -2.5165836900817755 1.0802394801325719 -0.8516205865754559
Ni 6.003327123239427 6.0843099144716835 1.5175035050491852 1.418181422997248 -0.19002046445862758 0.5754175154814735
Ni 4.787302027612388 2.2475909387940614 7.1440630506760625 -0.7366601364764603 -0.9081743146007842 0.9698064855902846
Ni 6.958308482701218 0.9870713367889834 4.271758083837428 0.6746749530229155 0.9022108979284977 -0.2148858602417396
Ni 4.365185388734414 4.189578543812934 12.735849000471944 0.7004710881504129 -1.3786414559210967 0.5585114837547542
Ni 6.055065353853307 0.35105840076113765 6.301652327413342 -0.8935143985957644 0.7198744323776892 0.8861299332062351
Ni 2.818301561354601 4.9998156010217345 10.421567445221603 0.3603941012206051 -0.09317009369678148 -0.0450333860905547
Ni 0.8237035032143747 4.294886858281336 7.597305386774354 -2.4315665645094318 -0.34431185094676187 0.03151015479313928
Ni 2.3489937793484024 0.6107500990523268 9.67205678787747 0.27750867727928336 0.7363071240124158 -0.260418554566216
Ni 6.388202278722617 3.0673313158604065 5.6409577261233785 1.614640958213 -0.23247811940220606 -0.3333376113234453
Ni 4.516810764074083 9.005827572126439 12.570667911151522 -0.3184732926171031 -0.2838400188139499 0.2034130837154497
P 3.7553735332962033 0.298935202004301 7.737838286323351 -0.715255188438123 1.2131513725036656 3.4623794145797597
P 0.5916430328651594 1.6326368760356715 4.262395175065841 -0.12976383366041525 -0.09690770636234278 0.07675642822544845
P 6.630174283940871 8.912403056853677 2.6063170866731364 -0.24338422479174857 -0.18132267957431353 -0.9015113007583118
P 2.3312238730394297 8.3131824747205 11.46235206657529 0.4670069506858538 0.6882156678218276 1.1147819939941317
P 7.705230368765175 8.418890635327722 6.102393188568522 2.5904784804887124 0.8150738977996737 -0.9346013984440614
P 3.986633381493036 1.7585047210373734 0.0918158319700655 0.9270420980395646 -0.00232222037527342 0.10045531450428506
P 0.23438515720282233 5.339517441565631 4.1853913178522175 1.499901880096191 -0.2744464934141918 -0.6340810907609532
P 3.4549960955679246 7.3934712642016365 4.492044480210494 1.0222328217108008 -2.036030882390687 -0.23918149956431065
Ni 1.450102464290443 2.818980369915854 12.079849336751527 1.3754728283851279 1.8168044857920647 -2.323257815398999
Ni 3.8052334169323676 8.949337681583787 5.902126995378721 1.6770472883643632 -0.30158654416409353 -2.518900254030094
Ni 6.066679489373927 3.562991748039095 8.739727177117226 0.5915288192210393 -0.5630224842512304 -1.1418320561333883
Ni 4.89659950472158 1.1182208703220808 9.529086686631151 0.2955274824542071 0.575158605393132 -0.8284516046581604
Ni 7.0146309957904105 -0.15449217916753685 10.401616052769205 -0.31247902270688116 1.885860460049462 0.4973043161178145
Ni 6.16659453034196 3.373418184501144 1.5285690144723552 -0.020913096003583338 0.10322773504309965 0.41108571403820166
Ni 7.245807155260514 4.877351097573713 12.950963433533106 -2.9701746244720395 -1.5172992496370319 1.2120296001943964
Ni 1.0961828389498856 3.0013288067127943 9.659167794086331 -0.008748692726907512 -0.6990983761726024 -0.1244539914117276
Ni 1.559297655178075 1.6500069362058234 2.0938593971650246 -0.1564958503386208 -0.42791255578755333 0.3387608392215456
Ni 3.1641312764446057 5.383900362974697 2.909213555075984 -0.1996657008578755 0.14970788088250991 1.647574218605911
Ni 6.40725541217478 7.026561288723123 12.934318675661281 -0.4416867267535103 0.6287324248545302 0.2778123245626312
Ni 7.803880780084845 3.6056544011764924 3.5055617541328443 -0.15094509572372067 -0.606126514529556 -0.898390495741143
Ni 0.5141268146690019 6.740159868358729 0.9540645029667285 -0.736099378876984 -0.6250467484728267 0.12669136538267858
Ni 2.7439580757762463 7.751398649677812 0.646199713820352 -1.085306610242834 0.13385574434160172 -1.3696953024714025
Ni 7.701399284830431 5.317135356539102 5.155596586580911 -2.594146416258603 -0.06482779510866254 3.0776079129560543
Ni 8.783001687834494 8.512807984213449 3.9162334946931407 -1.6790920867085342 3.1320718483318895 -0.8453110994176604
Ni 8.349205822203997 6.067544272883469 7.315040979134641 0.9730900414375628 -1.5275337828808466 1.3283825597655445
Ni 2.749016594369695 9.030115900372925 3.492456099526949 0.2199843578105695 2.1117069330677634 -1.1047073833669492
Ni 7.749250639025079 8.284365656483187 0.7430861527555052 1.3879843305885773 -1.325860564674639 3.458266935073283
Ni 7.816155126671891 1.416022555016563 2.023360943642536 0.04653542455737792 0.21350954871950326 1.1564127821610406
Ni 4.532655829668268 1.550640521335242 4.374429273539097 0.22169594118503755 0.21485320723159124 1.5540259156341043
Ni 4.194153527540833 6.4852997992240775 12.206037988539027 -2.127889713475213 -0.2298252551603913 0.7432627293946426
Ni 5.483359765319423 5.809550525870154 4.13413755197863 -0.5843292161488065 -0.03797853612630233 0.010033215866285946
Ni 0.7491377775728152 8.133642259642718 9.84246284337006 -0.11018668285943603 0.5373456483104164 1.5347069035905183
P 8.048986463181762 4.648601911178775 1.5034586769544327 -0.1645449458953424 0.5513391343760311 0.06654940578545958
P 6.882384210062411 6.187665491983054 9.22700664825129 0.5050695618855302 -0.6639570523847791 -1.045217198421116
P 5.2370452450586304 3.7199546043946454 3.684066088748659 0.5065749427864631 -1.336927364011762 -2.227233282972558
P 3.991980161256332 5.909205201910583 1.1492935646821345 -0.040872312734329605 0.5867416822450412 -2.588451422756355
P 3.305462938396502 3.069181766595878 9.666653285754945 0.643610370407627 -0.8243254983049286 -0.21728778481501285
P 1.0188358579566705 8.66179251528742 1.9309379034663083 0.18181915959475783 0.9408959732035215 -0.5552202145979922
P 0.2911205346772155 4.367575166819922 11.05295983365922 0.036791457796736635 0.6614232302193318 0.4777006829542741
P 1.158884292765376 3.1593052265365174 0.4354436036723335 0.20989149235094176 -0.34060971950482627 0.6372661733571541
Ni 0.8407016134879497 8.576076661621219 7.646313505147357 0.09481302861684317 -0.19291758350076452 -0.640165092171504
Ni 1.2256307017061427 7.2005501515944905 3.511794704524735 1.7915356839229468 -1.9489923555129398 -1.0477217100105245
Ni 5.353130807780353 8.326479683523134 8.430297408781001 1.2641042094024488 0.01591461434772743 0.4576532773850957
Ni 7.524955552641653 2.324770542333816 10.398962190257128 0.40936050381697886 0.38162678534713634 -0.8084646200132722
Ni 9.098024652740497 3.665752205715943 5.60894771802395 1.3992228796168742 -2.3005819710680377 -0.8388938830374069
Ni 2.184247871406975 0.9255061899075362 12.720524664732967 -0.2902572351942033 -3.3171951325992164 1.6458947740209589
Ni 8.572310668918375 1.2288480683115348 6.415851174284677 0.46273763388653855 -0.48244771072095627 -1.0613632120533592
Ni 4.241856101776851 3.854014645868459 5.535727521133259 -2.1612292081676068 0.40408537146096857 -0.5833012891049245
Ni 1.0938302558540351 4.419006538769125 2.0131816048479614 -1.098171124910328 0.9551756230509874 1.7304835538066328
Ni 5.668841879995026 7.395219428715548 10.875449535142007 -0.39139080671243565 -0.053243175594856695 -2.5272807647843054
Ni 2.97219583106339 4.653641832277396 7.79970750224525 2.2193592795411194 -0.31445697236885845 0.14299575896965697
Ni 1.3610669577972916 1.7225743610280222 7.6731385316885 0.4355533601622628 0.14970839510314216 -0.9878743988355889
Ni 4.831452480336094 1.2846684490403482 2.2080033814266153 0.015090832894851428 0.4719856348473678 -1.6134860186729503
Ni 0.3214716462379096 8.361108218894463 12.644759400674946 0.9740212950025806 -1.0326043947531118 1.0886043071574993
Ni 0.43405716043284226 5.878491439200727 9.51566766423739 0.5013664020023301 -1.087238022937592 -1.5766724493890263
Ni 8.044848520582342 7.1072000263010455 10.61592707405376 1.0514400394023762 -0.10424049257833015 2.1291248714338944
Ni 2.5067377304867646 5.53545134833505 5.147144955055937 -1.249380530039029 0.1071224421118155 1.203412805059663
Ni 7.835728989979263 8.021341287118666 8.385399336765175 -0.0894507358636653 1.0776377808436668 -0.17024945247928744
Ni 3.9019775850320806 6.946926815865958 7.285439346615549 -1.4871947169421678 -0.15952255298008658 -1.5564039289479776
Ni 9.234381484825674 1.4111128163817448 0.2354591625291888 0.3332918456871744 -2.166094249569392 -0.08875988044422778
Ni 4.891271322453112 5.753906821342215 8.926274928246523 -1.2298416886751529 0.8420499121678853 -0.10534735248926375
Ni 2.2818382255214007 5.290838498851099 -0.044498225877005415 0.2841750335558655 -1.0633200786694141 0.32063790436858974
Ni 3.7842089490283457 1.735527516176321 11.380326885757876 0.7608344197298188 1.66588355843806 0.5314683635940332
Ni 1.3388801464664655 6.356195990122154 11.718336354272347 -0.7550687208906351 0.07547524752017969 0.18774169572677993
P 7.591227725464283 9.204532505625359 12.574329757883323 0.9363032116265165 -0.23579998468658744 -4.0933859801804475
P 1.6563486819424638 6.439633650671819 7.324091449993103 -0.7490978480191809 0.34196289109861105 0.24371615420987056
P -0.20808086051688743 0.8578996468309349 9.234996132029767 0.4200046137943863 0.018793221447103117 -1.410403835934358
P 5.281214295277166 4.778226450135907 7.041609451663891 0.5023773597653477 1.2046389641572801 0.13007313737071793
P 7.826923076177798 3.122221821847777 7.333985317242055 0.3971768172665934 0.4406780829833378 0.8271141167936594
P 6.385914786858667 2.9230054572410644 12.024240967463763 -1.36416794489527 0.8242689340353804 0.9004862019279072
P 8.526895586546306 6.3554706878238285 12.671937779617839 2.0777724851038473 2.028277720807829 0.4561874914728466
P 2.157132723946502 3.3346610052778067 5.998551286567377 -0.6169272046894859 -0.5503577442993682 0.9024145292988717
