# total energy = -340862.8413758914 ev
CRYSTAL
PRIMVEC
9.38083256292222 0.00000000000000 0.00000000000000
0.00000000000000 9.38083256292222 0.00000000000000
0.00000000000000 0.00000000000000 13.72979668492612
PRIMCOORD
 96 1
Ni 3.9484955145939082 1.0954842180384023 12.122119784369316 0.24889049932195845 -0.28702690118236374 0.6233043118604233
Ni 0.950381503640968 8.354869454953189 13.18626076544465 -0.3032222799953036 -0.8617669309808385 0.12269098597403384
Ni 3.2747735178710387 4.365023231472295 6.7842357607565305 1.0277866616494944 0.5047186063040145 -0.5600713720427064
Ni 9.081386775999098 5.9216504049250425 10.981764231072491 -0.9182419832494314 0.14723139431755933 -0.8502723000776776
Ni 6.593796421817374 7.775706248062628 3.7568432340351765 0.7609858577060185 -0.572983195008368 -1.352567384541864
Ni 8.134354229498024 2.260602354422561 0.1522443420461782 -0.25627342204959086 0.23686185029219853 0.5863727289413966
Ni 5.585910416026402 0.33059366428534714 0.05028782784266405 0.3893508934642714 0.926766732890991 0.06123364999950099
Ni 1.5111113750136247 1.8403504471112946 2.2193116828624535 0.11976764167965179 0.5614235151952267 -0.3832316679404109
Ni 7.415050768509759 1.734459611830829 7.675162487207203 0.6612527660797386 0.4971238246758923 0.7264549138086843
Ni 8.34819030233805 5.745956796316977 3.832727600958836 0.5137462637239217 0.042436057677023686 0.8769510949204445
Ni 4.557152058313119 5.782213713251687 1.5749310534845726 -0.8903491134939053 -0.5677792822099254 2.7512649877828874
Ni 7.942685063441108 8.65720429994381 1.8285615551289274 -0.911676928437404 -1.6053032257518418 -0.711400333468407
Ni 8.743461053168817 4.183945025109891 1.6640104991560623 -0.6653287359213252 0.5678918965283897 -0.5617215060516196
Ni 5.051728300132458 6.263497315667021 13.373782665530847 0.5103313245051017 1.4411526870814404 -3.526117833278985
Ni 9.432989752358695 6.742810943294182 8.176601745955244 0.4389132777734312 0.8331891193431457 -0.08219739673536167
Ni 2.448087669262691 7.588755640665002 1.5621487313590268 1.5492804305293189 0.08465871379166065 -1.3269352857960568
Ni 7.778370404442824 8.831425117876908 8.784653225989516 -0.7934298371673367 -0.5562594544957838 -1.0926373395762925
Ni 2.627927605758244 6.017438083791878 12.08055988292149 -2.0390287886767466 -0.09407126535481218 0.950158372342054
Ni 6.0955241320621285 5.447308618429938 3.169001819161096 0.6421525549151779 -0.5795883590297115 -0.48900222401002236
Ni 4.224216938279543 2.2579288172100407 0.6607970859459895 0.7405494442285375 0.19505571288968987 -2.1100097478709983
Ni 2.9867162996785104 2.682008104109758 3.8219358914525774 -0.650276469573893 0.5112458658995712 0.8455759230432728
Ni 6.245026456819817 3.7137870898315724 6.776423403596576 -0.2820613296469723 0.7406353190741245 0.974359652178606
Ni 7.39762118205059 7.459046872112291 5.902054784282115 -0.34386036523164004 -1.157021105169001 0.1582521709080952
Ni 2.925872221220936 -0.12077727809642683 4.020057193982377 -1.6189064183575732 0.5475081906657151 -0.21223968086814415
P 0.30313127765498193 0.7422067631088585 0.7872075538533589 0.03788983306723797 -0.661929223321473 -0.9001262474853272
P 4.922891948985939 3.531386186111394 2.367538214423991 -0.6487160670653086 0.5849393389289796 -1.8035630474011262
P 3.0861906456489265 1.3641043516542892 5.636836140467142 0.13766303390283388 -0.4282239163803851 -0.17663761539381836
P 3.1812935237560636 5.080752595344875 9.843782966437033 -1.0227380434819935 0.6694697546728922 -0.03125844379364939
P 2.9551967030677413 4.845940981426969 4.46766173218581 -0.3016801323191643 0.3384242818177333 1.4218442165608158
P 2.7606194789901886 2.511089339154931 10.98113196297381 -1.0600691758322838 0.607184009259793 1.417693941837868
P 8.85187533234461 0.8270141777397098 9.93165416090511 0.007183919342948918 0.31778038031513656 -2.537363345831288
P 6.48223956381283 5.12327590827244 5.226713655900014 1.3459115697882433 0.529962468472468 -0.6722293196959004
Ni 6.944967879890038 3.4516866346813058 10.67999692643751 1.2653223980802661 0.9474366025355166 -0.8704271777589977
Ni 3.171349841491952 8.901237272036832 10.421752931455902 1.1566444385558725 -0.7814932336307508 0.46480814326232206
Ni 3.2307492717715327 0.11899773420444382 7.975117415037064 -0.2622021288292001 1.5962472861971606 -1.179223866518285
Ni 5.08090268866207 4.994636554604737 8.855567627947584 0.37135985620348944 -0.18401822412860566 -0.06342063034849077
Ni 7.758858273207585 2.469035067843598 5.37171411922511 0.7910145428576247 1.1254628707467456 -0.546628359163923
Ni 0.3570579303563714 3.716732671181507 10.726114974311875 0.9438925939380003 -0.29426995589802224 -1.1087658697070386
Ni 4.334863855548598 1.821363642486236 9.770178141768259 -1.0697861460097318 0.07442315210658151 -1.2453161301616682
Ni 2.7949158019690494 0.1921203840917313 0.39043117943448835 0.8740462625688238 -0.4565693002922976 -0.1725883850251092
Ni 5.2566713439287325 1.6533998397136689 6.204371805691319 -0.9210133753469816 0.40622581484273906 0.8773226193272503
Ni 3.2911430702775246 7.309253741552539 8.790200112143072 0.24120161531813297 -2.3652200187633974 -0.970175181783613
Ni 7.431561033401114 6.563665188390651 12.590126694795593 -0.11550398130729139 1.3776747211324532 -0.08101468928117016
Ni 5.972982319405439 8.559540454612048 11.740101335363558 -0.7238262179365856 0.5769586347163482 0.3593378920419489
Ni 0.8703348614148683 8.881237337520712 8.993113143824294 1.1167859117980379 -1.027072409191289 0.2700717613852639
Ni 4.907498003141215 3.3830470845619613 11.785465164319021 -1.9294352593166193 1.638334702285514 -0.4646762456701481
Ni 0.6799030271415711 6.736929161426636 5.629202957204587 0.15553657174914504 0.7121240990083091 0.05637760745878032
Ni 3.708524442897453 4.17780996076958 13.650767687330609 -1.161574014647006 1.9995788102112402 -0.28378036922060806
Ni 1.5272370257796701 0.5584962951961614 11.446091979061048 -1.1273914552280262 0.33179957741236404 0.845128551093209
Ni 1.4582785273612875 4.732085819502888 8.207205773331129 -0.05604979180571638 0.3651562984959389 0.9546032954872851
Ni 6.939630186297321 2.7158447663047114 2.4461420846385615 -0.6249909555342269 1.1695876289801017 -0.16103770407303233
Ni 4.3925372126804465 6.593477473518337 10.964244588623005 2.0128400460965206 0.30999405150149834 -1.670604360952497
Ni 5.328725517014243 8.62171661125972 6.921437938170159 0.35096895125196326 -0.013425272266970429 0.8907951998923883
Ni 0.44323307034015424 6.612117187347384 1.8742677844642404 -1.554355531059381 -0.25329788436103473 -0.5115934790469769
Ni 8.880590060090313 8.993478996284955 6.714844805967983 2.0142772927636794 0.0767847103602226 0.19248023885302978
Ni 5.202647130571166 3.3941821325313013 4.379489413000114 0.4244425949610819 0.42834167290517194 1.8493150568252603
P 8.982756704937898 8.342261616308882 4.438898224112019 -0.23981604782451602 -0.9757179659787131 0.8857653507779648
P 2.5475713960654316 5.286333535739224 1.3969926117012228 -2.3433517579353964 0.7957885672075004 -0.24181688030462875
P 3.8606252582090645 7.979138977854634 12.596951250311765 -0.22412666211371723 1.4091650784312504 0.7526516268087101
P 7.610922547448111 6.372446302285318 1.023144867650222 1.151127108282069 0.454914538297694 1.346150939492559
P 5.115377247455099 8.989154432583298 9.199087141093045 -0.16203863453372094 -0.9832001332883713 -0.06226286259496373
P 0.12285794670603058 3.587727465053144 12.786065077643451 0.22876364666509633 0.8165944482092581 1.546261441197337
P 6.174360646918351 5.340592269904905 11.412522670587348 -0.3808845078644731 -0.4452019389956204 -0.25418800027547195
P 4.328353557915302 7.700012312035158 3.5243833947810552 -0.25166240564014075 -0.9650247479309252 0.24551566931245458
Ni 8.53871500685136 5.0084545206189235 6.554179290743981 -1.7525721581755558 0.6258913558613091 0.017732898503388814
Ni 0.26920268330324665 5.8543147904988215 13.173066624780054 0.48169103506058975 -0.7774347472906612 1.353546460625682
Ni 3.4090507517658457 6.770831489447862 5.793026998672293 -1.044993512446084 0.3892560197576199 -0.03156389084921015
Ni 5.084242264969639 8.279541371386381 1.5984778807026359 -0.2956300694703425 -1.589090620547721 0.7850500977440737
Ni 7.943454291691729 -0.11749773911573487 13.23226999566405 -0.28801831856135557 0.43080581817494834 0.8171444071754572
Ni 8.312430569516547 4.861259880613095 9.049294948616526 -0.7516082731458604 -0.954093445730402 -0.758661580448216
Ni 1.1399399824248417 4.666504420721374 3.084549938075348 2.077335911787061 0.08939442870443313 -0.4769090402909141
Ni 4.247124930816299 1.2318252350446293 2.4576063998224966 0.5334990208708167 -1.8952048773788392 2.2269360634471127
Ni 5.407749648516957 6.22073948193134 6.696186330474287 0.44642192744565057 -0.5549834159968378 0.8873825746664137
Ni 0.5608349366946925 9.087371747022214 2.761308970166049 4.008341343804277 -2.15878434617154 -0.31133282491757996
Ni 1.827845797622558 2.332093677568595 7.162656660565791 1.1535634856377035 -0.1524821011935374 -0.6599286479516764
Ni 8.419691006316407 8.45435318175593 11.214909809169544 1.1852299635030492 -0.5519433436189333 -0.9852220488144063
Ni 6.626376052480826 7.197284126925712 9.938876463711846 -0.7179851857747763 -1.22487688847071 0.8928397411262429
Ni 6.409500589967619 1.1742456862360273 9.87856146419738 2.4458382439370974 -0.8422329747129689 0.10800098806202689
Ni 2.199082856037613 6.909301955391781 3.6497779185476666 -0.1544399962508566 -0.7442186655500086 0.9088906239415186
Ni 0.712201232835285 1.1344897188442296 5.288402009266806 0.5463439951542849 0.3081762815664692 -1.1132326472291407
Ni 6.744762156417705 4.629590845523941 0.2012141629472312 -0.46899801297395355 -1.3982106363022757 0.06379009787276756
Ni 1.937057447545944 2.2158276417370844 13.379645685733742 -0.8445986467316681 1.1646917343403813 -0.8179000543945592
Ni 0.9520419109624281 4.2259523922596 5.385334149677246 0.9118759318220875 -1.1657718547784375 0.35491713726643387
Ni 1.5670211356684416 1.7500505551543704 9.374869867608194 -0.37588371221577205 0.511223497302068 -0.09263684690113078
Ni 8.586576013371642 1.3147799352913652 3.1858207134359318 -1.3052338895632232 -0.19428489616193637 0.5183189706962686
Ni 6.344163092826546 1.8185306311241967 12.088742782958267 1.0557530649554336 -2.0523568732442206 1.6615113975122933
Ni 8.796988082413177 1.715866802163405 11.65610254847909 -0.9104083461376257 1.0907815173144761 2.2222569128038887
Ni 5.233219263117147 -0.021490548772503414 4.686885217029873 0.16852064271363879 0.28472139297763865 -0.5096875202735157
P 9.383271341038135 3.2798673098233144 7.5365597515275065 -1.760686302642258 -0.4766354749145533 0.31957860986613995
P 7.220529829426154 6.55995975962242 8.031436179981235 0.36876689866533263 -0.3544430258434928 -1.0786834484993617
P 6.381677041292757 0.6409838299931307 2.3076491046970644 -0.3707101384346325 -0.2932844520563014 -0.10050699367782692
P 1.161806702573563 7.353850218423849 10.881619155590863 0.841245671099035 1.5021019730713032 0.4716297941698458
P 9.09311281640489 3.2281320195529593 3.747671594271382 0.0687492416502558 0.9548616913549942 -0.3209567211605892
P 1.8499939427410181 7.9080510304985605 7.205698733520908 -0.07424394621623988 -0.6046255045039974 -0.4116408152107234
P 4.493906486780438 2.9027297078760648 7.883676813869464 0.009174724520732586 0.46363623444140795 0.4139265259211065
P 7.178353607294601 0.5321727416100066 5.888105486615385 -1.5623516618909803 -1.2123720711354795 -0.1402307946300101
