# total energy = -340862.3063751862 ev
CRYSTAL
PRIMVEC
9.30860487433338 0.00000000000000 0.00000000000000

0.00000000000000 9.30860487433338 0.00000000000000

0.00000000000000 0.00000000000000 13.62408416178573

PRIMCOORD
 96 1
Ni 1.8708899613466647 2.543501827590543 4.006952289541055 -0.9448225619514374 -0.5271504529449695 0.10114257037929679
Ni 3.997906187272544 2.0490101166337182 11.967218825310123 2.0557790115518917 0.4269733318027356 0.45383621763185067
Ni 7.077444029611192 1.5379397803010768 7.215710323761794 -0.36116363239677796 1.055360457502705 -0.24580414708715084
Ni 5.871998308714257 4.819586052824857 4.861523179744074 0.1857850862210413 0.6947503836165518 0.7183528535268403
Ni 6.454642508334181 6.809728551897282 7.562892430880984 0.40267563559763553 -2.357105617186379 -0.2020136322647618
Ni 4.146034017483304 7.774490983789668 9.011514285182043 1.0559564392154912 -0.7189449785848844 -0.40317365827997664
Ni 4.583854941641718 6.247898392895172 12.799568213830296 0.23257890664612846 1.062108574859816 1.3015142746197907
Ni 0.7578014259585651 0.8338238715406837 0.8516070303941138 -1.113578974824966 -0.8710362720979062 -2.147672809639411
Ni 8.689564082579242 4.648745226591081 3.290584394975132 -0.2234247509506862 -0.8525402701762478 -0.0456332244580827
Ni 4.2096117891378935 6.611920697188639 6.270975355370851 -0.18590875628309916 0.9385318438467191 -0.2631382674902243
Ni 1.984026745635081 7.897271482782938 7.746845358015587 0.13887016683705763 -0.2232630285618413 0.10097827688729061
Ni 3.863722647243128 8.397124950177984 1.8862137867782587 -0.2707700730038692 0.3349162686644748 -1.0631876668566078
Ni 6.616128186615853 2.999102187160417 9.14992113926705 -0.1680197918178203 -0.7179458478964088 2.151296265324611
Ni 8.018395050099121 6.213577566527606 5.119781114851678 0.07397783703904678 -1.6005893652159402 -0.6693869651510987
Ni 1.1601965923445245 9.096638684662238 5.786216721726183 0.6384370537368037 0.3717835740044694 -1.7066771954156543
Ni 7.884509385427383 9.28982016272193 13.383019469497432 -0.2525160118896877 -0.40378326683951754 0.38247884893478645
Ni 5.56629441429136 7.644375304113553 4.401423971412756 0.4725091114510056 -0.6753182430338692 -0.17297353627866985
Ni 7.765163761652348 5.356003720374986 1.0917085315906967 -0.6064029081193943 -0.0034887298795488303 -0.2906506139778801
Ni 3.998781196135726 3.709227731261983 9.472607652519613 0.428951538575029 1.4197953044515872 1.7206166883148817
Ni 1.988206309247513 2.8807525841126207 8.419575443542046 1.1405089664465906 1.487115269854484 -1.5877531326832204
Ni 5.898686079041301 8.943232875457605 7.744460493433171 -0.5854245060955143 0.7616350612542432 -2.0619784554943843
Ni 1.3008496127985292 4.714975950649999 4.9565779989608885 -0.8873702333712395 -2.066768934904492 -0.17271694018317352
Ni 3.884229503898335 3.6879575690027235 4.196845037479874 -0.3602529476570505 0.5732341346769095 -0.787935903932301
Ni 8.388142146422979 8.196319724682697 11.442173480399877 -1.899594521806103 -0.2547145622029033 -0.7768377371366105
P 2.5753558736523305 8.281521385583789 -0.1300114233009259 -0.8216402381632818 -0.42751583456976694 0.4874886155789734
P 2.2484842116243775 8.331164175661963 9.796125424192203 -0.626091130576941 0.012164917497308081 0.19981045396585587
P 3.4741202966089846 6.119514113735566 4.186340276819229 -0.027762514825248958 -1.4426133307873672 0.1652913371430637
P 5.16114669342835 2.7094184018176892 5.945700119087958 0.6996282805341435 0.3118899829726306 -0.4700791618532743
P 3.9548911239027262 8.959616020129944 6.5122581185327295 -0.3590596986798978 -0.7152418187016844 0.8744620099500036
P 7.37050683854259 8.02923026623469 5.869404931381465 -0.7757748430897349 1.9087466206190156 0.2793287612071576
P 5.627209924936695 3.496572651694032 11.477064924249497 0.3345953949899463 0.10707410537238332 -1.4509514183394172
P 2.000419198912348 2.6906801800987012 1.6335959353962057 -1.8638248204056609 -2.0044829323810767 1.4670370110473703
Ni 3.6472044966302795 6.11479465103734 10.87016622363057 -0.8940378751994021 1.1167244624324832 -3.7991561334917407
Ni 6.725252962180533 3.9138308675676754 7.083529064652276 -1.2163999613479501 1.4476544927557005 -1.3514900923172855
Ni 5.8800781777912965 8.509908007479156 11.673142309302124 1.5214047871649734 -1.8471057078787672 0.8842892804530706
Ni 6.8075596469491835 1.5624679542849484 11.77086776727263 0.28173839908991477 0.30347296255352896 -0.26783053075957103
Ni 4.54179866457943 2.074525002739901 8.057610340937547 0.22951980810483052 -1.2191255878092293 -1.7737624190999257
Ni 7.315949105062714 2.688092387928866 4.115550198066839 -1.5646689971702472 0.8580632568770062 -0.98202205381987
Ni 9.100101485695255 0.5834317075967876 7.779148078834878 2.0909069656032764 0.6402697360701682 -2.6599900542262898
Ni 5.719839852569906 0.5440553778931156 9.796370240501796 1.0554476178998726 0.8973024048832869 0.12717293300478744
Ni 3.127681947023499 1.0998489065997652 0.34168630677001444 0.2341429086991387 -2.1370233003453647 1.151187014985727
Ni 3.1598990286774575 3.768086040218347 6.256533985686381 -0.2319207042368393 0.007675257157070653 2.3783236460248913
Ni 3.1019715802138395 8.23012857777925 4.145223237994122 0.11261586112621895 -0.06465758807938542 1.0012803878288496
Ni 2.778646496663251 4.796891674011696 12.22494523907637 -1.744422532485228 -2.3239263022209333 1.8472286066098766
Ni 0.7992070315364247 6.476108151296916 3.5989244863134866 -0.6363099800914719 1.7942569395088521 0.5277225233983557
Ni 2.5590751236341935 5.710559173457222 8.343961645716242 -0.3363249760865434 -0.28145197819774753 -0.06726880044998737
Ni 6.811636815907413 1.113141594436186 1.4100516497841058 -1.3807189072754156 -0.8005029419640343 0.5970484634876879
Ni 8.377837520768274 2.941938044300852 13.503565903308111 1.953914475404906 -1.1927203583428232 0.3141263285023171
Ni 0.9944661902159277 4.572982491086439 0.7802565736250904 -1.9202325097714283 0.59341755160332 -2.7930554414561124
Ni 3.633316058078501 8.378098161706244 11.525198789468929 -0.6621770776662209 0.3254988320053169 0.7062373012102289
Ni 8.899054236471855 1.5337229822689349 5.176961082339622 1.2768077730120464 -0.8337611897965319 1.1657962802584696
Ni 6.867339507793367 7.8487550339009875 1.7759673243198202 1.1201717975511354 0.33534744266462246 -0.6871717999383455
Ni 1.3275653089403552 4.439124752229484 10.037530130078629 1.8641914597164604 -0.30152535190885493 1.3147269166553228
Ni 1.8252312541774462 6.596812831391362 5.791952684082488 1.7614267803527084 1.093981769419329 0.0414181579354706
Ni 5.512844404797853 3.8692612671749704 2.7598170506159736 1.2803070444145563 0.0012953217726558337 -2.7132489135504305
Ni 7.360016040789336 4.726202128192521 12.143009967644325 -1.3219329474854586 0.9294183115812251 0.791914686074391
P 1.0972890402447122 2.975700354372769 6.356329677392753 2.0555247294492407 -1.7976888480085362 0.37165656150830184
P 5.370059713815459 9.386611036757717 3.0425165896816244 1.9534197951566745 -0.7928973617026345 -0.7265369319995294
P 8.084402367639779 0.9504737233287255 9.468370375556631 -2.838484777433505 0.6810916551825367 1.3208808520718605
P 7.47841218686177 3.0603062645585037 1.7868667698293896 -0.14808911433216432 2.0670250167793562 1.8456039265222604
P 6.437030627811416 7.627629123849043 9.678754155522283 1.166634716999365 1.8690462167056006 -0.14078743846442848
P 5.060446205323028 0.40888326402040276 13.230348109221577 1.1438177191048495 0.9450112809234757 0.6214034952932846
P 0.45337467213171717 5.528976217137152 12.41494689769284 0.6727373696805704 -0.6658799804391048 -0.29837086544027325
P 6.632716120596597 6.535962480980521 13.03277203877563 1.2103146743858186 1.5471556708768324 1.0186520463380782
Ni 9.29412073819842 7.378316758076733 6.712218122700603 -2.0315872447970365 -0.03405374715059942 1.499787466005514
Ni 1.9172002708608058 6.734766356416402 1.6644679236381452 1.411728982503685 1.244393618347399 -1.396247599038634
Ni 1.1970586678572879 8.825916527556757 11.604068737298359 1.208175516555629 -0.3378753512927987 0.6556698726753224
Ni 1.856601252783005 0.36307748089333025 2.736056836538618 -0.9498752938839964 -0.5315274989667427 1.1344403916550077
Ni 3.539075741792839 1.2568943803310366 5.169154886247449 -0.4630389671770413 0.28242128408955236 1.148947327021931
Ni 1.9794003689861306 4.6283314559851485 2.634625622946489 2.4582116779007857 -0.45197833848750546 2.606230086896015
Ni 5.1545934355594145 6.363213390736615 1.8494689996875808 1.625826542516174 0.41074067199395714 1.1715419244929952
Ni 7.974691149964669 4.923218751482331 9.93244808163395 -0.07570021904679222 -0.2188718414726811 -1.713775497023332
Ni 7.667190694790772 9.16743993374054 3.618584259920294 1.2984947710671766 -0.05889651722589211 0.13789443318734962
Ni 3.477797195555334 0.892286564787631 9.875145240560965 -1.731230459274986 0.4361681109281262 -0.2959694550876322
Ni 0.7254270288813327 1.8586212200522652 9.897542674876938 -2.2649032867195054 -1.982289169892857 0.4441953521079769
Ni 6.153834940103132 3.0982388296379257 13.6283077253596 -2.067390370538575 -0.14204059414523923 0.1969812120471769
Ni 8.848946016147307 3.6152759817290727 7.870837837370415 0.16502574218650287 -1.974146486181065 0.5455076152959185
Ni 0.2502199547527379 6.479338237206747 10.391266425927249 1.1154689927588273 1.4788139490776402 0.806380998011366
Ni 1.6366482269519216 2.65057871007118 13.059529623639627 -0.9045092070443712 0.22249555426819748 -1.186625558298995
Ni 6.017445260705906 0.8245040962873051 4.941727981520104 -0.3879720108388737 -0.09538869861465507 1.8207477867105288
Ni 5.794904442704987 5.751284320014884 10.057557593580071 -1.0296607387437557 -2.307661503622638 -0.08189220679011702
Ni 9.200336543554204 2.0122504357751567 2.6626091510794363 -0.33922312356994483 0.04936518069668918 0.20434356594951905
Ni 8.508381396271051 8.083825234134276 8.905519062593978 -0.9771719248164205 -1.309291090351732 0.8699312119591857
Ni 9.125076472715646 3.6140379372737197 11.449625949504806 1.0813504538085634 -1.9081529528990753 0.3172365919965246
Ni 2.1518143494526476 0.8080576531014589 7.625386680922016 1.5394356765247552 0.5507953460574191 -0.34814459442929074
Ni 3.884089874824423 1.4764285189403843 2.9159353872964693 0.07490369128742583 1.749817478248554 -1.1415613189705052
Ni 0.1385148339021657 7.26028364759647 0.0640785745996874 -0.32793778046411265 0.8480912332659588 0.27599249774507306
Ni 3.776938523504367 3.2986996367508965 0.7694334586759262 1.3695127541469512 0.6446323839142382 -0.15087079084235952
P 4.59078985231268 5.426292996182279 7.969776206562967 1.7958556514545394 -1.1567776216996273 1.11294314101318
P 9.211423092022816 1.1524145986251633 12.189059636220497 -0.3834101024998042 1.0787788364266453 0.34085114609167105
P 0.364753029780274 5.383073143504056 8.488417231283117 -0.39802656686139837 2.635907045135157 -1.562701074810599
P 8.553044082713031 3.700486951235092 5.593149739507099 -2.3166408243031134 1.6517257788804391 -0.6784956123205863
P 2.3085805650360953 2.593479727446106 10.91350429559137 1.0508543421022354 1.6866009934910695 -0.1253667330339841
P 6.872003118862026 6.123963626890895 3.211209920758633 0.5848591205103476 -1.1882507526072439 -0.05900141823487258
P 3.738708083067266 5.376147541438022 0.9850216796565212 -3.5329119733826833 -1.073759271724867 -1.5032396862201725
P 9.404204300070628 8.1604629785021 2.3316119153476307 -0.2146881424086367 1.0011957985348436 -0.6967774413489096
