# total energy = -340854.7038851532 ev
CRYSTAL
PRIMVEC
9.37258099860422 0.00000000000000 0.00000000000000
0.00000000000000 9.37258099860422 0.00000000000000
0.00000000000000 0.00000000000000 13.71771968646003
PRIMCOORD
 96 1
Ni 3.2489020582630275 8.483657177499323 9.315305960019467 -5.948187514041575 -4.396082469579268 1.051193470609209
Ni 7.544346495847626 0.49181774553786495 9.322479733413099 0.3275971092952422 1.0217016317976793 1.0153484358861415
Ni 8.8945417500148 5.703580986655641 10.517074211843367 1.8965631911789467 0.5695091204168385 1.5181037478161985
Ni 1.3583868898426812 3.3288970359408854 7.55183799973256 0.3502115042606485 -1.9985817364052936 -2.956209677651515
Ni 6.639292597255398 0.4470308678772154 4.995362533313353 1.208397145648132 0.8965542138633527 0.6856805601047998
Ni 4.698184237328891 4.718878895877539 12.671455649339839 0.42291715945549097 -0.46581344459838486 -0.023608126337243213
Ni 0.1655010329039968 5.718867666045516 7.366456785557034 0.004782251879991764 0.08514079563440176 0.024845341178453988
Ni 2.753945435393667 1.1992592119264927 1.3416052838049302 -0.8181962454787393 0.08175285299877533 -0.7970368377923047
Ni 5.51870682910488 2.0983334039272172 12.297496233655933 1.7460132740111156 0.5781133171460818 0.2559679749940301
Ni 8.9772922664668 8.080992358401945 3.516386143552821 0.38043970701757057 -0.24213132622125394 -1.4689825648095152
Ni 8.041477557477533 2.856537705535651 12.712539420300955 -1.3417309560479926 -1.3611186165459848 -2.520379666789098
Ni 7.549164002411939 2.856996961998008 9.90737564225747 0.30949757148105406 1.0912234899479014 0.44247476987244444
Ni 1.6304916574986352 4.901925400159738 8.900015337239624 1.7438571469000614 2.4512208484052493 2.935809259618292
Ni 0.8963158414523248 4.919798911868194 3.2768754631109873 -0.5083739436684148 0.9309956833706741 1.318994176572109
Ni 4.199009953070541 6.877890388321037 7.351257271169197 -1.095653500694797 0.7594329113966017 -1.2469163847692524
Ni 3.5659389785830298 2.5765505973727167 5.870471036043746 -2.764678432975316 -2.6945883610264496 -1.0176889110938603
Ni 3.262192377928781 7.583898787095495 11.974087832864294 0.41384579328184207 0.6582242636660599 -0.322784004177315
Ni 5.46966011344135 9.165840475716413 11.747113916586713 -0.6638362105361987 0.029112343984924054 -0.3637859005109735
Ni 8.21111189854274 1.9886273449091358 6.104193210543711 -0.5911395542024206 -1.2655931352431495 0.059971238347309615
Ni 5.35667365112072 6.429224942341067 0.25889317766946207 0.28566010274182413 0.4691034282035663 0.030156468978722258
Ni 1.4720200602429563 6.698377347024727 1.948986014143055 -0.7889152371264349 1.4287679402638425 0.1776871397042553
Ni 9.433502640042631 1.5676110124792153 8.412404943251799 -1.2873626657097572 1.2675736560082878 -1.7250950358012098
Ni 9.367969554638579 0.9703339243129394 2.398995488218984 0.03710256127925223 -0.5329148662325726 -0.4823278973136403
Ni 5.295208265811828 3.8881589361210582 10.606911336686956 1.9938293093219723 -1.6052451188203967 -0.49246138620321633
P 2.9438620414494885 4.238093615275188 11.352084939119582 -0.9955820518924918 -0.36201749575664105 0.7684379431086895
P 0.9523854319575676 4.976990400302909 0.9945123711688937 -0.2186332430993138 -1.35490605997737 -1.6806080091324282
P 7.304952035408511 9.649728080584891 2.776136895106364 0.0041618446871734775 -0.9048444788966029 -0.6249855562175881
P 4.389929425278855 2.7456225835860586 0.3684333420062433 1.3222296527902713 0.7810427763568936 0.41039640128066096
P 0.14596201357593233 1.1462572671381757 13.963952358447534 0.4822425366886856 -2.927711313101506 -2.0939400960026453
P 7.063214429753291 4.654133107266099 11.649663444306952 -0.14946594007503292 0.039392642865009576 -0.8218788365366491
P 5.729111896930331 8.021129684420869 5.675062097601372 -0.12865671663916553 -2.1355917101051607 0.8025839928627791
P 8.595612655924866 9.104609404929132 7.21527330718153 0.24007572924380594 -0.41620349488074126 -0.047566436925053565
Ni 1.691516531506899 8.622830630755152 0.15948664776329602 0.6058974292378855 0.8199607935783298 0.2162086928182212
Ni 8.235152568459988 6.117258588268718 2.0525961465669154 -0.12366286296899993 0.011502087102328579 -0.1052985015291993
Ni 5.685913671726202 2.7731217358422784 5.34574053554237 1.713412200146643 0.8355563340237416 0.03177729241159689
Ni 3.2408416387196235 1.6660793470408526 12.333931204508293 -0.22882072515527688 -0.6095548234848147 -1.021557392910331
Ni 1.0481169729067932 2.470209294884963 12.155202648230334 -0.9182895486579153 -2.0394517351467782 0.14878536906824052
Ni 7.40143338282689 6.713907713517077 6.6864694830364755 -0.9334333462778892 0.5366607064282499 0.22880915519105113
Ni 3.9431759857952264 5.359401072152267 9.925634367039454 -1.2567374846247323 2.732793411341261 -2.1572385989509746
Ni 0.21397039758627842 0.49451142527830033 4.916225146784589 0.00490515061110123 -0.29014050711068096 0.8967352195259071
Ni 1.5299801003085534 3.0323766951331077 2.323452486451728 2.1592147488407396 0.45889512021199685 -0.32810001707358977
Ni 7.427432922144802 5.456285440547816 9.05125317658414 0.27572638856788 -2.752460550752885 -1.066761500250795
Ni 3.5111562434304724 5.132847047497414 1.8460891351229776 0.42587752763539555 -0.8101132113602887 0.08698453371135986
Ni 8.97655183257851 2.766092300193961 3.855255553738412 1.9667154838243162 0.3235188254608105 1.3499888251814105
Ni 3.7227984919300283 4.528915426917396 6.5511434742254915 -0.9304742636495652 4.440980358533222 -1.4066101732198808
Ni 5.063424341034626 0.9980205281864475 1.3935012640512452 -0.2800383856796726 -0.21798095422729558 -0.685199249593007
Ni 5.677309642492661 1.689107778224742 9.506982736761627 -2.848266025189985 -0.05614826505679362 -0.29130084596736927
Ni 7.537813806985122 7.739642963319627 8.956573239207904 0.07257067227887502 -0.7197458772196249 -0.3458408859967786
Ni 8.19265728682069 3.837856294621695 7.246797045660934 -0.27158099894093873 0.9314368846731508 0.8963500682723466
Ni 1.6195632282107169 1.6681319422501615 9.98991527564002 0.7077025729018457 0.5696708428056834 0.6508606242121371
Ni 9.340760952389155 3.0264438514459275 0.8018777166623897 -0.7806987627539135 2.283497761892242 1.041589886081174
Ni 9.522073529211436 7.064142315258868 5.553879313314804 0.943604116163304 1.4468525656796953 -0.20827812511723487
Ni 0.7674316074694592 4.632866721284722 12.27487644699773 0.5439397565881664 1.7328163157048673 0.33820882337281755
Ni 2.459402709148283 8.685317627378266 4.717372722132628 -1.351969603056865 1.9645205330555262 2.8997109712338385
Ni 6.209859687209225 3.995812399929831 1.0106969438055808 0.081980138518233 -0.3994890103395378 -0.49634478041802266
Ni 7.00075555087277 1.5751746852368054 0.8171044115347328 3.0164100012904953 0.13131446597698676 -0.16297503030506125
P 3.910765601166049 9.358147089892663 13.544053237656653 0.27532761046756454 -0.31364810331431786 -2.9438249308339173
P 1.6035923504177385 7.028976391855551 9.327816480957301 -0.43115600242551555 0.16947195088331457 0.12269895639383385
P 3.978473125330647 2.805588355956643 3.599337233235318 -0.21479175786603652 -0.10152772163285739 0.5216179531625146
P 3.5584409138914905 0.7745847611851875 10.31280349819368 1.5201189784740141 2.1163791417324522 1.7095907695180232
P 0.7633086091471991 4.251468288168721 5.308153674501771 -0.7705565321135891 0.07262286567304913 1.3983237648413724
P 2.330257917417386 6.537300172288738 5.511738315232181 0.42036688222981156 0.5550196685514119 0.7063419451088933
P 7.618005608861133 0.7224600899657806 11.739912025450492 -0.5775890692114956 1.858926097552463 -0.562105885974232
P 3.59269769695096 3.6229336428195915 8.252730843871214 -0.24856782587521703 -1.3071365059025746 3.2898133981521536
Ni 5.579628604723635 5.4260494946791855 5.56995610127155 0.8967017951848106 1.1659734292662822 -1.2412075073099333
Ni 3.3550652817143574 1.2601997327069765 8.095950997461564 -0.33328336104674217 1.3459642774030498 -0.5765066347805943
Ni 5.592019156626404 4.360349560070733 3.252690455448428 -0.8621816499207539 1.046834422309565 0.654401290375544
Ni 8.160153176382867 5.462555697146116 4.715671598705733 -0.20926465740022024 -0.5521819419923006 0.039965484649344074
Ni 5.780211207803171 6.722586723397534 11.498631801741453 0.08140729673389852 -0.8683792940910334 -0.30323205018731647
Ni 1.7407225810451243 8.362807119833441 6.884745493965276 -0.20242320899835461 0.31494573907981893 1.8279818425651229
Ni 8.735029796283172 8.288192003571762 0.7861374043586763 0.8467324052452192 1.6513288005523366 0.8618168103821674
Ni 4.86650641707308 0.24598057301254528 3.4056294182198372 -0.8946145736384786 -0.1208809293484886 1.4356723806931597
Ni 6.8090206641292506 2.2476011267740317 3.3419521038269417 -1.2414857006719844 0.05650024907957366 -1.0280491712822617
Ni 5.813015240828654 4.383293638026843 7.644322878670349 -0.23316228995342425 -1.099838742420738 0.58771535901222
Ni 4.029319376520146 8.070476322672059 1.3783561106324225 -2.3169411291523514 1.2609034430769641 -0.13423369650631076
Ni 4.368841118333901 0.2982130289118931 5.840580001150925 -0.20371673099879753 -0.33018492462707655 1.216341597306189
Ni 0.47491148417461715 -0.04191980517422223 11.377270938418462 0.002125016762802792 1.976432968222396 2.265043668952112
Ni 6.602777022207603 7.827126633108159 3.703441300670733 -0.7003767286643937 -2.151346658946572 -0.5555341462939851
Ni 7.817351031266564 8.081470360026028 11.474241534557963 -0.1561991450338084 -1.780169351067534 0.4278696183647599
Ni 4.9793054277764215 8.916286137620265 8.587045179756696 6.364367611883549 0.6432108209763633 -2.4955119570131408
Ni 2.7138495344556617 3.7193587547527844 13.418357555683864 -1.8635162880263065 0.4796236110085998 1.8657899145518317
Ni 3.286842265602216 7.286881699501902 3.4695682276188506 1.9125847634181836 -2.999399582775428 -0.7869396014573028
Ni 3.4053585506328554 5.071531623482352 4.290463848113243 -0.44282701100554056 -1.1499626556603226 -0.0330841841484785
Ni 2.081565856760763 1.2609870294995882 3.5471966286284413 1.0229951537981221 0.4819915970201441 1.6348210327053008
Ni 2.569811711731196 6.221247372959501 13.696045569760756 0.028106528428229017 -0.33988569685460823 -1.2711989114657012
Ni 8.09558546680785 5.029954854767769 13.50814031955844 0.8183764798103456 -0.19303302603270625 0.6657331704485954
Ni 0.42096009694473396 8.939511393002306 9.297088474593288 0.598974219755491 -2.6028809679181237 -1.8342311659089443
Ni 0.7036633790421785 7.319263966388487 12.28369698284924 -0.40626798093458416 -1.8981467336159825 -0.18346183740450342
P 7.437189778824668 6.972159806655413 13.688459402809091 -1.1963142463416687 0.3838361342936293 -1.1817540891393066
P 7.773440489916739 4.225806161761929 3.0238513955788275 -1.1080500745869368 0.2856935270829209 -1.388227556947635
P 1.6217657847138565 1.492799072019384 6.26138451325331 0.5239887673875363 -1.189256825274255 0.0032899836051814304
P 5.740415229452827 6.409786209628251 8.631476836602584 -1.264822832736028 1.4960112867925333 0.7560226001634721
P 5.015980336698912 6.646771916785209 2.3765950199530113 2.712787914753612 -2.193610709822106 1.8084018635506662
P 1.8278500927608086 8.593888101045811 2.6665601777042114 -1.022937046866677 2.8063156489001284 -0.8690524088986581
P 0.1341600597514498 3.568357104446051 9.63668425979587 0.44769950860649343 -0.3718483658041338 -0.24732469749673536
P 5.648085935357387 1.7240862500107719 7.206384351489711 -0.034611162315966205 -0.40507730306059275 0.5143270759280562
