# total energy = -340866.8296222998 ev
CRYSTAL
PRIMVEC
9.28262578648798 0.00000000000000 0.00000000000000
0.00000000000000 9.28262578648798 0.00000000000000
0.00000000000000 0.00000000000000 13.58606114071701
PRIMCOORD
 96 1
Ni 6.479875970773461 5.330668368424544 10.629883488599472 -0.5698176527961928 -1.878386777380236 -0.09573374065889964
Ni 7.33628171692545 2.3972009052858443 10.118612256434773 -1.4958156258419593 0.6971736483460638 -1.2394049068835558
Ni 3.236953621287966 1.278403184080166 1.6972927989904067 -0.18610261746146015 -1.6834256810868815 0.3211811784665694
Ni 0.24752863510052925 6.702974592078883 1.1677997729660679 -0.6251778747340523 1.0268325252663413 -0.022030754547794316
Ni 4.740079886136334 0.09377493934224987 6.836179339764272 -0.7807591836782037 0.3507812607211894 0.20895098281454333
Ni 7.757638653694016 3.1239098079294982 5.951727068921754 0.6709003164718317 0.6746343295929672 -0.26565100660974894
Ni 6.416531334350551 0.2973930427700168 10.074430672097362 -0.3898671709790576 -1.5690087621961817 0.7651181347068372
Ni 3.5494532087992847 2.677480499681114 7.0020115878252325 -0.4081176325488132 0.2171378895007099 -0.36370311098918007
Ni 7.085734372011801 1.9813021523122187 12.448690496718557 -2.3844539272923453 -0.9426175838803185 -0.2529106762249451
Ni 2.9883649103551546 7.42610968390442 11.862669066177132 -0.9950045821224671 -0.5467098631341358 -0.030785617922288913
Ni 1.6258147261029967 6.302039431413834 5.0194655636958 0.9260835907810374 -0.36194473353717665 0.966082242661162
Ni 4.347545501550232 3.7737771366709176 9.551259114039613 0.1461661862778386 0.4754823351467166 -0.03814720049368269
Ni -0.12488008913555679 6.501031074291603 6.880171558541449 1.49696850849948 0.4806988463506495 0.43771308681774296
Ni 8.057151848128598 8.759438163077546 13.221573963394812 0.4141147306725126 0.6523708902090766 0.042521675412294506
Ni 8.514423262962849 5.794827491380982 4.508017961646568 0.6038567446587729 -0.06913644978634545 1.4930087525207834
Ni 6.214216511543208 7.156700043971523 4.494337228182312 -1.531473741365201 -0.5068739620841206 1.3906503074565146
Ni 6.373571343529153 4.026431637573429 1.0680356836501863 0.4374878581808143 -0.7097129184636551 -2.7895957650422862
Ni 6.7711276285116195 0.7688668746217138 5.825607749281733 -1.043569378405048 0.18496901807764918 -1.2956488169779492
Ni 4.016025814386137 7.0839613905409955 6.282805831374521 -0.12083722059474673 0.9998372276244202 -0.38071970015183465
Ni 7.568700094234478 7.522286966726484 9.520594888957632 -0.49364409365740786 -0.7414804406832392 0.9348981037488737
Ni 0.7862318821475545 2.2713563513606716 1.7655767204427164 0.5209764629237738 -0.7645663759684252 1.030349280170348
Ni 9.048489838571825 9.04566792041934 1.9523171541834767 0.6795245678057329 0.1941350008476334 0.31937292161323705
Ni 0.530845504559922 6.121223169268194 9.943637550517288 -1.4462123609925353 1.8458551233011176 -0.2833697640457507
Ni 6.480934190080642 7.528682695697085 7.223327945034347 0.5885016023589413 -0.2247308713566194 -0.583516233329208
P 5.253771098769302 3.659127429100673 2.7052968152592047 -0.08093035709747998 -0.37122950127321225 2.0554010593871825
P 8.691470779154841 0.45673673560535893 9.77828150114456 -0.39217962116231814 -0.27360291446697393 -0.5769069555428065
P 8.294963430854054 4.238864522177515 10.12359888285423 1.6875564154258034 1.3570375044980756 -0.9974916102103788
P 0.04147755552879324 7.594468662626915 3.7054895021684073 0.9597930672183405 0.5875893749573171 -1.1093808775832183
P 2.6087148099652713 8.814261349289987 0.7099259157367631 -0.7163317093317534 -0.7881107389472685 -0.3401075830574271
P 5.4666031362699545 3.7634362918621367 12.339743105993943 0.9413312609687272 -0.725818051555634 -0.3402878173890333
P 8.908387171876196 4.061120809072904 3.0529506338076273 1.4382509400536132 0.010935930186213425 -0.6161142218698873
P 5.943627978171608 9.037527057854438 12.366345254156425 -0.053985453077519924 0.23893390232987885 -1.4134799037565207
Ni 7.811747077742834 1.3712665695981587 7.864875256538684 0.3478622873021816 1.1122777395150394 0.47822056001348606
Ni 4.696562937784839 8.349805182317498 2.228575515211454 0.14476082128987974 0.3320296911452992 0.16541397876385708
Ni 5.245184670180322 7.353371030473894 10.941126208617874 1.4261868098002275 0.8073058238184807 0.9019082790864145
Ni 3.2629078421904363 3.3114002778107876 2.569015805482584 -2.1163372327509227 2.3053151148776494 -0.4357641906214882
Ni 1.5046950285581375 8.727403822471528 10.086550067952249 -3.4519893295946877 1.3221388928486777 1.2650596313371827
Ni 1.2119117376122148 4.2459471654352345 10.954970316290957 -2.2564093903158815 -2.0822305208752008 1.9511425690867235
Ni 3.4303478409882726 -0.015374812618297842 4.47963633417543 1.7749854928737494 1.488940495988681 -0.3618904832604735
Ni 7.168544674111563 7.074725178166905 2.4582620158353605 1.4091925892350765 0.8873468363324719 -1.2647613833704734
Ni 1.028199296310076 0.9321148397430283 13.30855216434479 0.21167223840044835 -1.1885549141112242 0.6865277385964433
Ni 4.971152282747629 5.914053533323514 2.2743741329112415 0.23621084697176092 0.3842205142162415 -0.01453110373663949
Ni 3.986200738649501 3.0757886773292107 0.376101352660622 0.5088544828492592 0.6188866424087018 -0.6570623821474749
Ni 5.839783246685224 2.7534587894116993 4.6569344812559645 -0.8472790217773086 0.3532595470583529 -1.3284023572598864
Ni 1.0889633628435407 2.351669627200503 6.663256094082643 0.4884080420694492 -1.046038665881147 -0.6123200449347777
Ni 6.0005211898709065 7.472225767396362 0.2912405185875573 -0.7067096128609571 -0.28443754318863274 0.4857304952372861
Ni 3.4382009421626254 5.317496322837776 7.575750248302942 -1.2676867845473845 -0.07525027599356718 0.3369443548380971
Ni 7.921077840900664 4.310869848193415 12.277927317991146 -0.7803480642827141 0.8752742214386539 -0.9925368373082649
Ni 1.500248650942872 8.617720319544638 5.260196532141508 -1.9279131662451374 -0.5488022268867904 1.8355794524067226
Ni 8.046198350036711 2.0379076026209675 3.267379282894556 -0.28482629398661913 -0.05771920908833931 1.2008044209025384
Ni 4.506918898787179 5.69441733133019 12.859572918871118 0.3084971552409977 0.5690103264035491 1.0362029107376476
Ni 4.901068460210559 1.8294755296080714 11.216298502462163 -0.10384120025738244 1.16178227400307 0.16368105523315035
Ni -0.2693576572300886 1.803948309478675 11.387591719105714 2.882325942988172 0.12519755444597147 0.8543775804953029
Ni 1.7880750198709412 5.5022484181960944 2.8176806339445095 0.01160544544941227 0.23993200457709002 0.9382809041781777
Ni 5.297900700403901 6.115644311341733 8.85887271918812 0.5141815514891274 0.20840565183403464 -2.1557864398854805
Ni 1.546346169183811 5.761400756949725 12.77087000610294 0.09707919894320054 0.2220319843682176 -0.18543901573553223
P 8.91618457729754 1.106071241642987 5.851611168099361 0.04435487196629135 -0.9880538618362468 -1.0917155990929717
P 7.5985623004731195 1.3142155532653335 1.3230897432448616 0.04674908323008078 -0.845384375857757 -1.2455539572040872
P 7.536934949768006 5.74458992216633 0.6422063779149504 0.8342183319386084 1.3806430597321575 -0.3440213162895365
P 3.0172988540436374 2.4350554520813636 4.374860555351236 -0.6486008816436829 -2.063927351690639 2.504371721396616
P 3.89741242572671 5.734499708246092 10.360145243723817 -1.6014936221977645 -0.7444058418601502 1.5516574154019278
P 1.5976141098291403 4.367939429777244 6.82896581148698 1.1768530522932634 1.5027838296296763 -1.955487990539613
P 0.4395926545664564 7.459109417562604 11.766424948451457 -0.09151610303312625 -0.08985465617030332 0.24971968009147316
P 3.219678655229491 5.301743707361563 1.2721188466155835 -0.9082684169764874 -0.38965814029204504 -1.9686643800205708
Ni 5.411909906814535 1.916212382295009 8.556432712932883 -1.335905607615467 -2.2026046857906003 3.562495857687387
Ni 7.451172772758737 6.640316869943091 12.150177041050496 1.3686815164949075 1.5191072493800484 0.25195216896641764
Ni 3.2414556946562416 4.012080698547958 11.908114015845308 -0.16393019512947896 -0.6612072575537838 -0.6938666954600179
Ni 8.824565063596761 8.558450755716931 7.955847771242001 1.7309604934430511 0.2574450737601888 -0.7554153055967765
Ni 1.8554483157615442 4.553016417028117 8.960577805496385 1.1279612116885671 -0.7087394988067923 -0.3768193366561639
Ni 2.2242377443145567 0.4275085326884752 7.616168656262002 0.4015698041279665 -0.304066887383786 0.6185179462153735
Ni 9.055461090323526 4.065994187461244 7.76793865495059 -1.0194709426949475 0.881596821222572 1.3813891938695628
Ni 5.097878686095454 4.714478405002924 6.346647088261765 3.457053374381156 -0.6688830289314868 0.8507474399418833
Ni 2.3432224379940485 7.896748079460973 2.6430326764446814 -1.3972202473645483 0.066696215775969 0.5670652868620364
Ni 5.524879459168991 1.2137218495850266 0.3357553491804736 -0.3092790277123447 -0.6385589240266486 -0.051186293065827976
Ni 6.927391346205532 4.866908398364676 3.264784789066859 -0.6282518856736857 -0.968843350346067 0.09570340164159648
Ni 6.706464859267483 3.9051727006460464 8.228710547861493 -0.4477956678647256 0.681920064621103 0.33903029083284836
Ni 0.9236815744748259 4.489866715740742 1.0322715841176273 -0.34769876514112374 -1.1149367744044414 -0.48365304388296704
Ni 8.502160914675237 2.9514200608587915 0.20275389099356814 1.1835813721560327 -0.8313849762548714 2.3639198118947355
Ni 5.582617389788934 1.3719627665107788 2.590658246839562 -0.6120251394021782 2.476772471622109 -0.6951584176882479
Ni 0.7325086870570523 2.204363643115634 9.0297575003096 0.19620756710594597 -0.47598421448379963 0.7833840228955605
Ni 2.154831553439104 1.5324779266844224 11.076063094221864 0.4783079775209698 1.0702096067003954 -0.003885965317967501
Ni 3.8187143267241566 -0.2243898345126943 10.356477678388137 0.34301832894631895 2.492526649132572 -0.8922548151570505
Ni 3.6256821294184127 0.3207193523929841 12.604087217190617 0.17883693703798234 0.2727840181101044 1.1655944486603087
Ni 1.1189833737157107 1.1014856246451972 3.848945053195213 0.2527787786327711 1.0718813379758636 0.32005889193666814
Ni 8.12574116795991 8.284938195312327 5.48416307893133 1.2464165623146988 -0.881180816731076 -0.4322795745069975
Ni 4.075508878600382 4.982124346090519 4.486158306852853 -1.0574926733543595 -0.08552543266733012 -1.8655641716942708
Ni 1.2480582813154397 3.7782420795371867 4.578720007042045 -0.05583844712585868 0.014741419975232678 0.15815035522290827
Ni 2.839768641325563 7.36827892702946 9.205669751402745 1.9616280419990797 -3.086897565788097 -1.4423083979524385
P 3.0481728664619547 2.074230516208723 9.124085684131744 -0.3676469261282765 -0.6764577559549512 0.17260406875439305
P 3.869267505205863 7.141792147415955 4.15249804624809 -0.04542779331549596 -0.32514350554842714 -0.805449230225716
P 7.476031643852018 5.407742007964319 6.754296371952122 -2.26705478584487 -1.0174492842792282 -0.47517046033325266
P 6.183407477503403 9.20296200954393 3.7575102637419167 0.932369166679433 -1.9286225336073366 2.208766591626938
P 1.7705401402984213 7.518731721159371 7.406631022551866 -0.1744408648528157 0.43279482358051913 -1.3892747672652268
P 5.717317568442633 2.4766230490775225 6.752095461445691 0.723223037134948 1.0468315940960873 -2.6270621931500178
P 1.238385785542774 3.0081461852990614 12.882601256215484 0.8667571851065782 0.7841676951391204 -0.4265488426708074
P 5.0594300512678325 8.328046708141752 8.723270269335666 0.5121161843196663 0.17749739229095235 -0.34542848104970836
