# total energy = -340867.8934362497 ev
CRYSTAL
PRIMVEC
9.25913440947708 0.00000000000000 0.00000000000000
0.00000000000000 9.25913440947708 0.00000000000000
0.00000000000000 0.00000000000000 13.55167913591913
PRIMCOORD
 96 1
Ni 1.6085431005285669 0.8011521479297428 0.8567976930473516 0.32803188283981566 0.9256884122251477 -1.0113223454458842
Ni 6.656845322100518 4.43477346677429 4.8045175495435934 -0.17261641004956724 0.10199874773200499 -0.1000699061404083
Ni 8.507718484664105 1.7534948474779104 1.2554089787207732 -0.3456940760062691 0.31216534812120433 -1.5743466294693276
Ni 1.8971595747641459 8.855028611017978 7.015596034754655 1.239674872715491 2.8484927964888103 0.7785238665897818
Ni 1.0028568324550242 7.64970228954722 10.033947881559348 -0.02218733473031663 0.08542721652656901 -0.0985033329842368
Ni 2.9472379919806935 3.834244536487447 12.070968531252861 0.8297047603389711 -0.6376189287108825 -0.6734855607005046
Ni 4.832518097480324 6.357506770383794 1.0593912544622617 -0.37980104499230716 2.5141797086259734 2.598399535108002
Ni 6.321692439039173 7.649748585218556 4.408171048111871 -0.9489918628377785 -0.5193625814694346 -0.23846261912041514
Ni 8.453061815086208 3.721773832546618 6.2984270123665675 0.07284912275124228 -1.3288345597012985 0.18375725715773514
Ni 5.891207509565149 2.734416790854494 6.774660398340241 1.1118565928172206 0.05025529661112634 1.1862594332088279
Ni 3.46336065428988 6.871240576052103 9.974848679360163 -1.484097566074083 1.3786769371447225 -0.25865066403251585
Ni 1.5712287894326964 3.225336089689 1.7360515644323744 0.18072258409646938 0.2198190358772988 -0.031505012586816705
Ni 4.467921167450026 7.939828002668315 6.277137484946534 0.6042526945456109 -2.0772263827923902 -0.5966067479645789
Ni 5.326752166382403 1.6930234415803596 2.3526524999798157 -0.3290184151228011 -1.7763414926810115 -0.9021908433238398
Ni 2.8454430698496758 5.902966610084195 5.352479596856593 -0.1588761776453393 0.5567783031137314 -1.232423076249084
Ni 6.84302799394066 7.470649151092644 8.455312710626508 1.0122610552100695 1.7858386335381695 -1.510471170971605
Ni 8.1790562547239 6.943684042556841 3.4681865150698226 3.3897807172764267 -0.4579849496929016 0.7267269365231483
Ni 8.799510841953254 8.781585158012408 0.5937234666006234 0.06343040054050367 0.08256146494299975 -0.6724206097711
Ni 3.133318813343898 0.24289301739845037 12.087840525714126 -0.42971387066235023 0.6269660769827267 0.695824333407021
Ni 7.1678476831600735 7.334938020141731 1.485792905724553 -0.8772709401537084 0.6046411882332813 -1.1466127653514835
Ni 6.77855664203978 5.501397956925905 11.313307462888481 0.445249247293788 2.0170967644903453 0.10479893618496143
Ni 1.5225442614569922 2.377782716293787 7.908461759425544 0.9354179808080857 0.4628939569587447 0.2019994911973747
Ni 8.302128667400405 2.3315148223617608 8.623746547990303 0.23132215142089194 -0.6236524392284614 -1.7310371123172574
Ni 0.04408736781215583 5.3274373423181585 1.9661864207243733 -0.7667844666656666 -2.101134299758239 1.0095125459306549
P 3.219299134146939 3.215447334291881 6.445625951202504 -2.249608308233648 -1.899980958611244 0.04880519442816111
P 1.7273470523080001 8.098066607290754 13.162230651775445 -1.810217062382534 0.6154120535965402 0.0961281478838409
P 5.65354405120068 3.4196297631470025 3.2548153213681648 0.12398990729111549 2.10627393497765 -0.17953293466374243
P 8.178898849441362 1.3708703830298317 6.328078463943099 0.5320046957134773 1.4624427068084684 0.8647339840289623
P 5.1765967859750255 8.675975472563401 2.398118552884323 0.5060455526455544 -0.6840329971990478 -0.6374353519451668
P 5.0316728164284825 8.703512137873355 12.453004114761562 1.069536749003087 -0.6317508999658799 0.3210497950950278
P 0.3773773130589896 2.3208482996862165 12.599971575240824 -0.63441070618623 0.7408250664874274 0.4366365659241126
P 0.5853282095607659 9.033563237953604 2.533283394913484 -1.0428746663308686 1.602970206743291 1.1149714842971183
Ni 4.581891851142103 2.4737629021051504 4.875623071146754 -0.845998355292672 0.7175835794609835 -0.7865696197123937
Ni 7.002414731212203 7.678275977895076 12.57132381381883 0.7767433776505913 0.3436035120258276 0.6519289175756514
Ni 7.989392148399381 8.989054579532302 9.954087848506774 0.8376936920817186 0.40288980849097067 0.6573912262418034
Ni 8.787335080392193 8.623050261093425 7.493821060509152 -0.10530492928710251 1.7176480926048612 0.9930595425809543
Ni 7.970605364971708 3.747504966674515 10.538815140253613 -0.27265906249646593 0.17419583872154515 -0.7580874531123009
Ni 0.7766580341399125 4.73345461995806 10.761036214487635 0.5875641781463364 2.7763173027658254 0.6206195659394086
Ni 3.7003852323899276 7.1528756630503905 3.26707904470476 0.39642168426812374 0.46049923147432303 -0.027630360122758865
Ni 6.520245314259979 9.223153271203989 6.272313475993445 0.3516718908562589 1.017002683660113 0.3352643960325129
Ni 4.089148502857005 0.7999392013407703 6.649252832001608 0.2572879793570343 1.5703855879390503 -0.7520690148323629
Ni 0.6826000446023711 0.3392398649267857 11.813689596943826 -0.06920098447569371 -0.3573470868641652 -0.48356485504453495
Ni 1.1071887573751906 2.6664547453349674 10.23149058523163 0.39310418985911655 -2.3284164767818027 0.9654646636818213
Ni 1.1163367820309524 1.6989307692426834 5.794887513526188 -0.3153434887388698 -0.5164292098727236 -0.7705251646550214
Ni 6.0705939768533375 2.6551215649922018 0.31041247630001556 2.1856156074317714 -0.9011667729346996 0.5469906275993484
Ni 1.2883066827713012 4.640196619621185 6.713040859793585 0.5064684991155858 -0.33696543788401967 0.5658784656427868
Ni 8.566180658425724 5.888207550062653 8.979044529476287 -1.9354884074892345 -0.4907701145437226 0.4477481024562418
Ni 6.9079160068835535 5.555841666415661 6.821888464495751 0.2788484791366294 0.9909121572206484 -0.1627289757325262
Ni 7.591286411456936 1.1364198442560003 12.372303352317543 1.1923768589604755 -0.002085421774118989 0.2147285087282689
Ni 5.2066982314769295 6.039974019832482 8.580042508336799 -0.953575625553719 -1.8120998812275437 0.6009321148128103
Ni 5.405427030248808 3.84704991917866 11.924664024787113 -0.013913781867614746 0.18202227674449942 0.29879355479998865
Ni 8.67036443719762 9.110701085531694 4.650936289457438 1.2578872819584594 0.08065756305206753 2.1499245817880652
Ni 1.891242987967555 3.6065809431313007 4.39831932925182 0.10406565756336271 0.4489076699819817 0.3449641398187801
Ni 5.256642001712941 1.5630807512777667 11.951537736083555 -0.8286094703922632 -0.6241262935410864 -0.6335979804769475
Ni 3.844179587555901 1.572599141304207 8.63350382368083 -1.1135602057718887 0.9474700268766133 -0.7263955213256587
Ni 4.964275578099241 0.21957759140080474 4.426493022999343 -0.3743842448521101 0.5209479236786835 -1.0687001120344046
P 1.2694828628065604 6.0236964617911575 8.575936082289399 2.4289219277977327 -1.1116339352834532 -0.8609189811582463
P 1.0445229366563686 0.5602211410824625 9.120279659930869 -2.528875362964935 0.4649140727125671 -0.627902472754067
P 6.441070457143157 5.197318728464493 0.18592063834038547 1.6545203109064408 0.5430007897136647 -0.7367766074496666
P 4.641715117640967 8.404636542869978 8.781610157674928 0.7117839420600709 -0.03596330546848645 -1.372607848132507
P 8.395118152843539 3.3095756932498515 2.6106906832987415 0.4287880164139712 1.2834502180292284 0.757275755844283
P 6.828194860844981 4.367839185158397 8.555947463233874 0.2424599132052663 -0.7618034685113073 0.11500904394874385
P 4.3272471405320205 5.280975006566526 10.7580140330629 1.0842971951417133 -2.327786299396972 -0.0449084304769162
P 3.5256561096380232 2.198738836973477 10.640398954123343 -0.6432954102703695 -0.5305196265275186 0.9934331238702893
Ni 9.0220448749255 6.553994858663068 13.47860786237024 -0.17359060103737844 -0.07041171695434326 -1.507255749358101
Ni 5.373621904041782 2.863896524443738 9.592474211537292 1.7003252850556974 2.0283787651620675 0.5493992370408409
Ni 1.268769909468004 7.213745211721421 1.7311590378857098 0.9042808930836491 -0.36474415065918475 -0.466627455859248
Ni 6.576327890514988 5.484277817666285 2.598195481605472 -0.6209435249377306 -2.0125561963075143 0.1979389479747559
Ni 3.7349218032057085 4.676585017290359 3.154789819795564 0.37100555818786424 -0.16434979916540082 0.034627617376198426
Ni 2.857961419378613 9.162931861931646 9.784976242514636 0.430161242612414 -0.5463437380439687 0.7925178668760287
Ni 4.640696612871601 6.523754526147158 12.438558013478243 0.39271286795796884 0.5646127115564857 -0.7280932207430557
Ni 3.0675604417799094 4.067778420968849 9.445791006480025 -0.3709021998407806 0.6871792561375133 -0.5749511173680163
Ni 0.5119467927547848 1.8159291898400582 3.464608785589067 -0.12725957918132277 -0.5513576463187924 -0.32106650726557606
Ni 7.347928585518284 1.9654456899830157 4.360415211303144 -0.6572752694892293 1.2153262686677972 -0.02580127733382008
Ni 0.971088742785066 7.034192080016428 6.479558826464079 -2.0798910741087466 -2.4685274580044974 -1.0862581755228258
Ni 8.203454073517355 4.1446107171161275 12.884801063561213 0.2772253417109096 -0.7505852311979847 0.5264382573692934
Ni 3.0595235132361833 6.8737960971097865 7.67075200538974 -0.32084899193813127 -1.026644063404619 0.6154467634892175
Ni 3.2902703983032286 8.24813865548973 1.0335869731736558 1.7205961194895916 0.5455682933305248 -0.18039374000214095
Ni 4.489485691157788 4.773389266051482 6.640837204866363 1.2548940036580905 1.1824292608294602 0.5317666115607422
Ni 6.146991093690069 0.8756020688301317 8.544482803184518 0.30914892989238374 -1.1398427936175013 -0.10815422581043954
Ni 2.971765438653885 1.360870518021509 2.823194296119585 -0.4209674919282879 -0.15932843469140948 0.8492405163790536
Ni 4.67209433717088 4.237044654503243 0.7543111135865915 -3.4522973477534094 -1.1957725149055858 0.7607961102927155
Ni 1.4217400666925397 7.792626286092099 4.162127147322373 0.11390192692749417 -0.3914437714375581 0.0499472784524043
Ni 5.865356006691782 7.653378165851206 10.553261241536934 -0.9500362449418929 0.5055999804677034 -0.48346818156567056
Ni 6.253137808926559 0.30022187312579346 0.5916429391308363 -0.11520624756121449 -0.997799628369101 0.23505616454202743
Ni 2.309505860209184 6.437348285167838 12.070276873923119 0.02829679006216417 0.1170510140794371 -1.0597567867981879
Ni 1.3493151184563361 4.809805441123457 13.266416282374193 -1.8251140340990246 -1.4297603860840988 0.5742540913009916
Ni 7.447890199064442 0.1337565277071557 2.906252434147971 -1.2369461609304182 -0.45449262026892695 -2.372048611649457
P 8.504459269402133 6.918693639170302 10.964663095286738 -1.4288103634660037 0.15481666286398496 1.1620566107103794
P 2.9088311030413214 9.183255661647635 4.973194902138609 -0.42893816883859026 0.2979957414890416 0.07872100815098701
P 2.4612723299790136 5.255012394081954 1.3829628123824884 0.9956730689444012 0.5396141326296191 1.201973244399659
P 3.505137868102428 2.277580365256687 0.6325933122533443 -0.009689202263305895 -0.36964467328459566 0.5119210375897248
P 7.154468234144308 1.8482713458345685 10.401956802567025 -0.8340087870309636 -2.1212891774395595 0.11328923304415972
P 7.819561107674702 7.504778320000678 5.9601371346155725 0.39616457395199517 -1.5365375290413537 0.5457696107080536
P 5.042218970358556 6.031566725918078 4.847639189651704 -1.0563950694148065 -0.6108938540112124 -0.07555777993165698
P 0.6923017654872975 5.621100044729234 4.44947697199023 0.5144553739758043 -0.3450253320740187 0.438798863682754
