# total energy = -340889.3965406361 ev
CRYSTAL
PRIMVEC
9.09130738615985 0.00000000000000 0.00000000000000

0.00000000000000 9.09130738615985 0.00000000000000

0.00000000000000 0.00000000000000 13.30604732308352

PRIMCOORD
 96 1
Ni 6.406926086857269 2.1121925169825597 10.889416062542994 0.9268238113811714 0.1282607667523275 0.9680810182587457
Ni 4.453040503939545 0.335419237285653 5.9958380806283875 0.2829681577319578 1.3776616085063307 -0.3889973667795946
Ni 2.787476640824968 2.1212110938270046 4.390915964616129 1.0528235500134644 -1.6910469450775651 0.5181947864135785
Ni 3.447350998789015 4.375528017875295 4.7635113757246685 0.3915725837059385 0.3171982825594215 -0.10628374826060405
Ni 3.9036073470907344 2.3997323843576597 2.119307374077784 0.6069268989436644 1.4809384516198107 0.7253819924594798
Ni 4.990654961294627 4.8098106764259825 2.30716196600767 0.14680176297930847 -1.318706470128361 0.3457629815709916
Ni 4.9574444157172515 4.7445078160694845 11.174791289649281 0.9230270633429006 -0.8404781968053912 0.3748344450156512
Ni 5.809854479741431 7.886827272232682 12.273817610355433 -0.9090163508861056 0.6273080337031778 0.058698799392789235
Ni 1.743049075256919 6.702757226492585 0.4306224982305535 0.8703790981298816 -0.5778145549587403 -0.074100221549524
Ni 3.0717709114929446 1.775268668338282 13.234606966998559 0.32618685921127694 0.5499723359354916 0.8059932756546441
Ni 8.301799994072079 9.028349999795358 6.797407735953471 -1.008871055691914 1.232359312890684 0.0005257905964829654
Ni 8.568193480660709 2.316710566067872 1.4402067194296317 0.8014010282982714 1.5869792306316732 -2.4656614493106113
Ni 7.126566699030369 0.7674263416184331 4.818585606234711 -0.4333761500052859 0.11763748271052643 -1.0355444512180423
Ni 0.9841158329208246 7.756612477733707 2.5989502012854 0.5870887811718147 -0.57326730190769 0.14804000626178376
Ni 7.581241159861389 4.019194228139395 3.6859750872210357 0.5812024975943668 -0.7085973168019732 -0.5667924928166238
Ni 7.682345588376581 3.959000682487108 12.171893145921523 0.1075764989300986 -0.1762007849667159 0.527879103580878
Ni 8.685462253560399 7.328839195211873 9.579409591520653 -0.8078095029277765 -0.18640857873765318 -1.7590906760203642
Ni 6.98897885430877 0.8272489619327633 0.3394066846686908 0.008989605093120002 -0.7556595603970986 -0.9320151257741239
Ni 1.963158716366649 6.546823123633797 9.264681260525597 0.4866586634785102 0.09147933625791987 -0.26174061581174923
Ni -0.02403014346293995 4.938707231366042 1.5518579735468805 0.7824411993663171 -0.6023837596576722 -0.7282153481432168
Ni 6.689593013518032 1.9947419179368115 6.965090535239754 -0.34733366849222114 0.09120885620535259 0.2017169269599494
Ni 3.3601835443691197 4.44123089575312 0.13503773302314565 0.8219927364066941 -0.035756845884635194 0.3675548806351025
Ni 5.948205994276473 5.549843090879415 4.613884821872611 0.34258072718826804 1.1995705484954373 -0.0643084322700828
Ni 5.3627985344302145 3.2380781959843037 9.031825606577245 0.21015991552097998 0.03478753999283041 -1.1281347611519539
P 0.25814767086492885 5.904431349613165 12.438519369977106 -1.1994947009521795 -1.2185776857255595 0.13336209253463482
P 4.1235715272836195 6.278165901526753 12.481817630137742 0.16997871531640404 -0.14535834566456257 0.24208864590877663
P 2.6616711303678846 8.550210874815637 1.0641693393762264 0.39342712041617406 0.08107253910229908 1.404389511419478
P 6.512230699346386 7.891182008430755 5.653167616637967 -1.0018704560043648 0.2996219642385549 0.7205202934918044
P 5.153371179401353 1.0187991702812649 12.334372990038373 -0.7329394930917635 -0.034458438788185816 0.4787226964608852
P 4.04631359782385 6.277129492494227 8.182500223120927 0.041655727867573426 -0.636152371467685 -0.3351900911511517
P 4.7607176169904974 0.870679955180023 3.6416122349752325 1.033529991891175 1.7769960955458752 0.12144348672017795
P 0.2518264848972449 5.609800262541828 3.6861341850988363 -0.40785872246047183 0.47569985047416136 -1.2046857582348156
Ni 0.7649298686330657 9.347954908027672 4.829376988003215 -0.32665891375168904 0.6209898047946337 -0.5050811318497559
Ni 2.078818327873732 6.424854144858524 4.654056581451793 -1.105843039633289 -0.04130271540352886 0.639279347132441
Ni 6.000344641658419 5.910177055828576 9.17111352576448 0.7359872787791518 -0.0799116860249785 -0.6520333043639996
Ni 8.798039911891811 2.7155734913665874 10.236221997185092 -0.22438917174648454 -2.8729946382849163 0.2197609289458538
Ni 2.4544347803990147 5.361580299251631 6.930414470925156 -0.3670884825216452 -0.35675393336485656 0.2896013467777593
Ni 0.6460592073866097 0.23326476277697988 8.92300902207703 1.1451289817171053 -0.14472662561783461 0.5096019025382449
Ni 1.6126069980753728 1.134540603554074 11.497981809481846 -0.4511082771777263 1.300151332833993 -2.7153014252040846
Ni 4.191838153820853 6.836126704625654 1.359119531333894 0.2301921515815068 0.7973870220428719 -0.5681099260764668
Ni 5.562898208166333 8.057771123448504 7.9279427095099 0.6358932042690274 0.5701156436525859 0.015547203705979675
Ni 5.416019047381202 2.958984153093567 4.5436426542584645 -1.1281242196289927 -1.3742847216142977 -1.0213877001016862
Ni 0.9840067372331902 7.680045487628956 6.967405182079064 0.7611815186565923 -0.9130316426930857 -0.547108127013819
Ni 5.074085888413045 4.93930725764803 6.737250555530395 0.4462638046012315 -0.26708491084279806 1.1349818659807744
Ni 0.9677696623902685 7.63095242819347 11.367209717845206 0.7698443365379128 0.9429821663085889 0.7324419846300546
Ni 4.692232799077995 0.12211989447650089 10.174522021912722 0.6771835783773822 0.6389343050881963 0.04099623990670359
Ni 8.316591551053845 7.444562445870076 4.535233195003312 0.10851855112839376 -0.5145227368786299 0.11438503721149977
Ni 7.629488727717709 6.695947837322737 7.042757573528152 -0.366796148092207 -0.14184004809865897 0.5045201171399634
Ni 2.386486349617382 5.557652523852579 2.4847315619858215 -0.474127620891035 -1.4842032384140116 -0.5714253636029449
Ni 2.278008870879564 5.528360331722738 11.430227023545765 0.7386702249279536 -0.5145093671421914 0.3434029659792473
Ni 0.8553138275767159 3.3242637892154896 3.660546700694915 1.342537768220004 1.1022010720053275 -1.8469056760528193
Ni 1.97863212139613 1.0227720715726183 2.4072372585361768 -1.5457243377469445 0.8914850268705615 -0.015683472173527828
Ni 1.10539387234108 3.4382869654080563 8.381226200323582 -0.271537547297513 0.5065435753278953 -1.1994093403272246
Ni 4.053395726212783 2.7488567674023856 6.637003437293863 0.02998754750102577 -0.548403705896791 1.02410638458443
Ni 4.183519607638729 7.140194568677368 5.877108334645126 1.2466988694418077 -1.431288135582535 0.08986494058294846
Ni 0.9997346988671514 0.3939963484994903 0.18645907625889574 -1.1381188689478592 0.2333795481705529 1.0160778578529985
P 0.36160038405645145 5.839973980835833 8.127613273541325 -0.6682754772544748 -1.0122641405338633 -1.1415343223873113
P 8.740019188684908 1.8608815092093873 7.8440744905102155 0.04332565937082861 0.15878336082121686 0.20049359607580952
P 1.9933236739975642 3.3968306041069796 10.628059160200152 -0.49906886421740504 -0.8423134502419172 0.41903916455732354
P 4.058995971511349 6.213172145618552 3.7919442742739924 0.8465429149422324 0.2624661811238641 -1.3453842365298636
P 7.084146659155188 4.175546531134113 9.944221025316475 -0.049245110179057125 0.05666248568905081 1.5972276478325589
P 6.5960343700642206 7.92793816385625 10.023365401041591 -0.771564147442497 -0.9397739437839364 0.08501069781444069
P 2.5061370450304232 8.338719793029025 5.340927576451706 -0.17121618726793095 2.081236789503364 2.11699954892527
P 6.927076142883543 3.96839200293097 1.3962166107832457 0.7080645842269548 -0.08262779940456091 1.0508630838529838
Ni 5.593708648615752 2.9958766781286044 0.06934212819116294 -0.9172096853301752 -0.2685344988051311 -0.47138219693541394
Ni 1.8900009665004724 1.333422042111608 7.05374896405732 -0.7993904256261458 -0.1702581942300358 -1.8060878707055088
Ni 7.406160763822762 0.6541977456841369 9.26418942080051 -0.8249160807010761 0.4994193055782882 -1.2858904520396046
Ni 2.824660087693697 1.7104840124980467 9.089853602829988 0.643430136076021 -0.5014139674108138 0.6042390676988562
Ni 6.401862228689572 1.8455262911748438 2.4725964849979536 0.08960114539860052 0.39619774118277573 0.36834472352624953
Ni 4.137672144910367 6.871537346570324 10.342750299637176 -0.24447848629719188 0.8468995269507027 0.18133296398695867
Ni 8.603876861824466 7.772149521914308 0.36382229956127227 -1.2420618848904286 -1.6128159891891192 -0.3445494208788647
Ni 7.680954618359242 4.384092029354597 7.810131185564229 0.2638401786532553 -0.8596735387869193 -0.26355427198172027
Ni 3.2341780251513734 8.538564910160662 12.269479238510504 0.972682778696815 -0.6225095838732698 -0.21695636961752313
Ni 0.2093000767266206 4.861567488901209 10.288794299925387 -0.07793347925268514 2.170554856443907 -0.2507740894979165
Ni 8.879016186038452 2.571012613943688 5.5145451811453015 -0.6053479844923187 -0.48133982236875816 1.6903990270809208
Ni 4.032167523660587 2.431388316386245 11.03904261639505 -0.740034452265332 0.5804478788165294 0.36309787330501336
Ni 1.0748016232669302 3.7822474859047532 12.79090389582064 -0.2287515624802383 -0.7567404521661032 -0.2345450292335638
Ni 3.1141636774462165 8.241751909336639 7.942526075554431 0.22661034776751943 1.2654969759849173 -0.10421401021576893
Ni 5.77586208173601 7.88647271124787 3.495365829178381 0.10402400569214988 0.17883282327292427 0.026073300048284127
Ni 3.4065219376918368 8.369575690014958 3.28612757334142 -0.736949385582105 -0.8147802778186548 0.3208039976328088
Ni 3.2407328577167407 4.246267810643122 9.135998351307155 0.7373329941737689 1.1423907568503358 -0.17209241922529717
Ni 7.454126501152693 6.3624241376097315 11.340504911773762 -0.02185283420903333 -1.2165627121780598 0.45282525986883304
Ni 8.023887821130716 8.772684255824112 2.4611659843260583 -1.242560164683086 0.15968530381019597 -0.16598244967281736
Ni 4.746262438378938 0.3567210794270023 1.2481428522185178 -0.05288065004911539 -1.4266038427329881 -0.2660024764118967
Ni 6.250546509940642 5.644838160887081 0.21252567255767804 -0.667519830035373 -0.05958814397627803 -1.0496868041566954
Ni 8.021178611554461 8.881070821488901 11.464809447395142 0.11476273226589268 1.039660530268945 0.46282453717339
Ni 0.16226801665669502 5.297741139370893 5.857348378222343 -0.22138920857789615 -1.1484343919412543 0.025302226210214485
Ni 7.255181423444039 6.099103512889472 2.527137964900048 0.008760776911765557 0.8326360750531531 -0.09023235122469621
P 8.8037128876488 1.4890106752928862 3.245663982797816 -0.11053326756557738 -0.6843808674567697 2.9259765897985863
P 2.017179264360289 3.4216407817365053 1.5491833109383766 -0.5079661667070348 -0.22902564207723136 0.13709610565577035
P 4.92415204837415 1.2353268363136654 8.293393262209117 -0.08172765618779473 0.04573529725358575 -1.5803750950515945
P 8.605295105763712 1.762977220864805 12.38590706548468 0.030477342653250736 0.537324565264494 -0.4151709398511689
P 6.432663577831688 7.587277787910494 1.0753161912602724 0.5764444140840912 1.5187619502254877 1.4439564750788227
P 2.00935164877252 3.303381056340802 6.028824070915382 -1.0964088908035827 0.4725595050729668 0.2884320090600065
P 6.8293082241485035 3.8593872283695863 5.703783470046684 1.3899715362219351 0.32647533698597325 1.943159550881247
P 2.5227104982435513 8.644278631478409 10.061727081336771 -0.6927852894703811 0.27021831426545717 0.3763645085069325
