# total energy = -340892.3006999334 ev
CRYSTAL
PRIMVEC
9.05638746426419 0.00000000000000 0.00000000000000

0.00000000000000 9.05638746426419 0.00000000000000

0.00000000000000 0.00000000000000 13.25493848762761

PRIMCOORD
 96 1
Ni 6.21480097031122 1.850998800872631 11.267612189638303 1.3253430016082721 0.15110013324434624 -0.3559000700049935
Ni 4.457907091203619 0.3805050234289221 5.823344963204281 1.068868776401785 0.4869078033748388 0.5129391944415941
Ni 2.481196576442009 1.60707406188511 4.841724035514985 2.3708363365089102 -1.6975502934137217 -0.6345873409734103
Ni 3.564494471424941 4.276688778768025 5.139310586930024 -0.10836377071808435 1.2024103319370776 -0.9095534543364979
Ni 5.254035997230017 4.603053812513228 2.848009247718439 -0.043369882345202726 -0.4121015568972257 -0.24043671212765041
Ni 7.137293650121418 5.9408995889368015 2.6743294721779662 0.9640248459115012 1.2545985839048586 -0.8015056721969358
Ni 5.168824447919347 4.584868586557672 11.527103952975924 0.03335312153914901 1.1673957635351058 -0.20336963207202394
Ni 5.653975122440825 7.5669648952585655 12.293398401898045 -0.3787648904183089 0.7945644649924123 1.368120758895431
Ni 1.7299692392839612 6.675780146787191 0.49054556451237685 0.8740370065974431 -0.12305762528483324 -0.38881713244798843
Ni 2.872713261344716 1.7918243654176498 0.7107126823598531 0.3876688777761581 -0.7950866560444694 -0.9501295759866476
Ni 0.6794971261727963 -0.08977415729692942 4.6730415745573195 0.2012351022275244 0.1038064903647051 0.6208625351881502
Ni 8.738417665466288 2.166514282479011 1.3641455255146766 -0.8444549220649522 1.7050378600400184 0.7663404371497125
Ni 6.797959869579225 0.8069992878563046 4.900192072750577 -0.11595315302956805 0.6251290237739879 -0.7208725346249005
Ni 1.0180828491134308 7.644831714365075 2.700057763222358 0.46456928777863865 -1.02208678305124 -0.5588624393362698
Ni 7.822653881515143 3.827727428409098 3.72116454009802 -0.4157358112157034 -0.18879893334670064 0.44137999414636886
Ni 7.2476276181575425 3.714993517704536 12.720353636445518 1.6344104275304432 -0.49686105793280877 -0.27068728348207577
Ni 8.161226925513379 8.954430618400512 6.651990828291148 -1.2283810449692265 0.4007982160692646 0.6251470214961169
Ni 6.981940380180379 0.6524411687314501 0.30554983288053655 -1.3106134087075816 -0.44854822976003395 -0.16056667797388477
Ni 2.042161026704241 6.331583086196127 9.204017410808058 -1.1491525010542014 0.9396731565400139 0.4291587694898287
Ni 0.12836432976666007 4.835105627582554 1.4829490270735277 -0.5772738519639219 -0.032906778030349776 -0.06004168657392885
Ni 6.141489514081028 2.2572230589585165 7.1802535295251895 1.068814783235398 -1.0773773280934285 -0.926568757947572
Ni 3.264891062529672 4.5198256120493046 0.6515799062870411 0.7781420577703309 -0.899849596785173 -1.5893150778537015
Ni 6.063405341676247 5.828383031530514 4.851956847669957 -0.6895271875443996 -0.880968957830586 -0.3074592008947866
Ni 5.2805259304571095 3.071356063191909 9.18917127489723 -0.5029715417059208 -0.2523355204477654 0.579219405726067
P 0.15700062681420374 5.417721143604876 12.50253483985814 -0.10415230373989803 -0.4850126432346551 0.2382276202914736
P 3.957985448786966 6.133963656128306 12.734867402937736 0.04285129083757136 1.0324712116093575 -1.109394247319657
P 2.649174450457771 8.599891163366596 1.267572738175498 -1.1735836375133724 -0.017100150015396356 0.8479860751466622
P 6.103244389972307 7.9702005454931895 5.7536904762175425 1.1220769849936483 -0.9816356170147287 1.4360698732418944
P 4.843265432655242 1.2964490294898856 12.741694107781012 -0.757217906023154 -1.0705394792359884 0.2962754163638252
P 3.901536985947833 6.029145028035874 8.081058878361398 0.7683276427830703 0.012558296280984824 0.5919957315551289
P 4.630603343069404 1.1774118731353904 3.6176835404287133 -0.05775751852544246 -0.249969334208434 1.2727230614197111
P 0.07480123196210843 5.7921393690433955 3.586932576916716 0.3783943944527677 -0.11630770815550937 0.5588719524179665
Ni 1.4729670768503136 1.0035564036788134 2.6460961843709714 0.5017718649708649 0.9727640255567117 0.0021149894604737766
Ni 1.8130344247741796 6.361731799944158 4.766794202851399 0.729113434477454 0.7491035044461356 -0.27309332182040713
Ni 6.157655165640126 5.533561395197264 9.178050936774309 -0.371870734401637 0.48737754392240573 -0.07396858106766616
Ni 8.673927130591032 2.401002265766487 10.296210489522837 -0.6340641214800887 -1.433369700701912 -0.2663683443917477
Ni 2.1424967430197808 5.169494620589024 7.028165992890711 0.8413495436667511 0.3984184029831783 0.6408963139105737
Ni 0.4592068414562985 9.216685485542436 9.074185040639309 0.3181017682102973 -0.26141125749678856 0.7975042643470265
Ni 1.5208119716327844 1.0916388278041804 11.5203967924467 -0.11376668690121053 -0.20993494399436746 -0.25558153818888885
Ni 4.258902033859305 6.793839213299456 1.695094902575966 -0.4925809425002162 1.0033352134753495 -0.18261954400886612
Ni 5.612777616030554 7.668477941939753 8.043878785414218 -0.7011395749723474 -0.24202591099164122 -0.8413983946268155
Ni 5.432320040138917 2.9165642892714105 4.806519140665866 0.00732198758270997 -0.2801281171800014 -0.14684932838779227
Ni 0.8579070528669472 7.56216500992169 6.920893989444017 0.5714968402708287 -1.1158220052228718 0.18494330704603631
Ni 5.20561149365215 4.536860676801496 7.006004107215492 -0.6072027783128704 0.5281485551921807 0.3237507389659585
Ni 8.079420577875663 7.447973020841211 8.762588257873054 -0.7631301577425308 -0.3436204813066921 1.0446541268287945
Ni 4.47349313396732 0.2970467907243257 10.302997346261428 -0.1625032328749653 -0.4231737555509873 0.3537089758909457
Ni 7.922518665684424 7.5544580242204065 4.54859141543707 0.44278921578906966 -1.0101293535790474 -0.13550690679177954
Ni 7.331362976317437 6.265589191007812 6.742535684158205 0.5338684883950935 -0.1502663244891412 0.7178592017198733
Ni 2.4502418442128806 5.231241070073575 2.547453106865737 -1.2888965858557802 1.0334929680056522 2.292844493214464
Ni 2.4122231297898606 5.152685965522534 11.492893449466408 -0.3833679364079591 0.11550192442476238 0.39969495570275676
Ni 1.0984311183752296 3.1817443695526015 4.044837109860858 -0.3521557724712128 1.5478462691859536 -2.610173644924795
Ni 3.6903692002876256 2.9912613727780957 2.9287451303621586 -1.5219367484090434 -1.0237256042062433 -0.37250528266184235
Ni 0.9738695656896142 3.102944742541002 8.06284648324356 -0.012458280368010803 1.1794418960663622 0.8093966449092382
Ni 3.540241465892581 2.57099065779128 7.032049371819866 1.1279678965567865 0.7337864144730911 0.4442586012457446
Ni 4.029123372034422 6.802786924078384 5.934222314486089 0.02607818514429057 0.7086086296558829 0.5399146945891734
Ni 0.8104869026548527 7.145734203204375 11.403568488985911 -0.522484672038184 0.4826197175224462 -0.4667549825760478
P 0.08419632827998377 5.740961723687396 8.108841158074476 1.4837705217519672 -0.4445889880019698 -0.43244078267521013
P 8.294210918507096 1.6361631783040569 8.0219686673095 0.2876845893710207 0.7912539125619406 -0.3575638308606616
P 1.820533113564618 3.1077084023281643 10.67506362788488 -0.032638869080943794 -0.07416784156266583 -0.835190980264523
P 4.036794132185994 6.131871630632423 3.8007873927268307 -0.5958413305534641 0.3709605638825418 0.6782097056490514
P 6.882528415382502 3.86002250597758 10.380233840802944 1.3391104877060098 0.19422061858290424 -0.08689505932134711
P 6.246090788875187 7.655165052420497 10.248241522232602 0.7709439973599949 0.08587356003536824 -1.136474648476217
P 2.501926647264851 8.681579777967748 5.90393503801041 -1.0254711261424403 -1.5177317091887603 -0.725070631866648
P 6.996829081112119 3.8331974864156493 1.6375279758894665 0.12226726817305394 0.1550503761413459 0.1469424023222308
Ni 5.148628703954761 3.1114668031108113 0.7071589559330801 -0.044617638709374775 -0.7820156817931241 -0.09614691693691829
Ni 1.393442938844469 1.1190253433866508 7.001112752365595 -0.08335387893730806 -0.9204004243533309 -0.2649521807705114
Ni 6.72733816041517 0.5230489389917046 8.974203429072206 -0.42624313850493045 0.48903050614479654 0.8320619477172378
Ni 2.5796395077850827 1.5546104095143256 9.135608177092678 -0.16421970134543978 -0.06841859778371442 1.136052987557766
Ni 6.374012261296615 1.783746067831815 2.5059386268954844 1.4218948672930931 0.8374862040566029 0.489211511807351
Ni 4.273519043168203 6.747832765164881 10.279841069246608 -0.8651085937595618 -0.09065684035662451 0.3390439176796032
Ni 8.41020512868576 7.311592882561969 0.1743744004562049 -1.6366722269814267 -0.5823278694480616 0.3971392791604386
Ni 7.8012264688603405 4.061653915676034 8.104294851585587 -0.6234164119582555 -0.803375892636455 -0.20091011478793785
Ni 3.132749313566766 8.392898372310727 12.28309947811485 0.6132363861014599 -0.22874487761201895 0.8128974589736452
Ni 0.20817917780894565 4.6038960565440386 10.183093493630068 0.11697593786712757 1.8384706579115886 0.1880772246893277
Ni 8.650851455424322 2.323370912733109 5.792076879970141 -0.41094687446749223 0.45139984027621616 0.9093266830376726
Ni 3.7824726604310532 2.9521106099265677 11.720811929313566 -1.540159184954341 -1.7263564190121365 -0.06580172898615765
Ni 1.1148050668451723 3.1592754723435705 12.845506571230185 -0.7671444211082465 0.9170189094756078 -0.6770660789629114
Ni 3.1987250959802243 8.345886665171639 7.9528439789873016 -0.2376252108207843 -0.13725808515493138 0.888429013653057
Ni 5.707290075229848 8.045178377010146 3.571688865597796 -0.20066071778129313 -0.06851475704194653 -0.6798636963127065
Ni 3.327343910233613 8.401474771205105 3.7532150952059444 -0.8871848568333108 -0.35823591722702175 -0.3713017492720444
Ni 3.1582068186270584 4.11490547375306 9.3084131056076 0.24507601067187468 0.14845601075327983 -0.7064571305305188
Ni 7.226480953513008 5.889305349759112 11.478710241115314 1.2359866252306262 0.33540503537543526 -0.2688648855613563
Ni 0.5511907572856759 9.281891475024509 0.5268942810936613 1.4108146982195313 -0.7924890705206223 -0.9566270107855331
Ni 4.70923089871987 0.32117028991646424 1.5770729672521568 -0.10971154299523041 -0.8041706206236087 -0.9003566183285785
Ni 5.881091206361856 5.529667148603195 0.5302614459394162 0.8320195245150768 0.39738070574728335 -0.5050016847620722
Ni 7.90732204758013 8.71991546595075 11.190613878086147 0.23770054414341 -0.3289119714519238 -0.16089037986189067
Ni 0.24747755977555105 4.889462064925805 5.7869871902355685 -2.2156622903055068 -0.5716040552726542 -0.27845998544895917
Ni 8.101826080372696 8.893127931899935 2.390978656161104 -0.6907903705275393 0.1071224421118155 0.5914583709944201
P 8.578970908407765 1.5995934858695278 3.726546751146519 -0.6536965509990355 -0.5435651468575672 -0.8643755722482791
P 1.7400671112662545 3.3367534967713732 1.7477559841926822 -0.11346818182418522 -1.1850001068804301 0.481785394546609
P 4.520287487808136 1.1282085202387095 8.250112651203615 1.2718954233120934 -0.9119978021119326 0.09668582015952382
P 8.482583777010861 1.4204038042178204 12.264701427054733 0.3500232995092423 0.9963073600942906 0.7562414010424976
P 6.435197214760627 7.716422456983933 1.4594612862788392 0.2321608452721034 -0.1240187036465219 -0.991973508605627
P 1.8884197937253984 3.224789378998197 5.983106882545302 -1.9448251115091282 1.2366116604091348 1.3104799684535107
P 7.006148103775599 3.9277371147772264 5.956040057439042 0.6468669296717118 1.3100115134575243 -0.5994159352785999
P 2.1519606678821095 8.391041812887973 10.297404121385854 1.4530473816364975 0.3272965473356879 -1.2159140228504672
