# total energy = -381171.04215785896 ev
CRYSTAL
PRIMVEC
9.16906592837247 0.00000000000000 0.00000000000000
0.00000000000000 9.16906592837247 0.00000000000000
0.00000000000000 0.00000000000000 13.41985480956083
PRIMCOORD
 96 1
Ni 5.536217662179768 6.057928329180488 3.0041682603253177 -0.7454682216863936 -0.31786316983692997 -0.8807123617350897
Ni 7.105154825430922 1.927282587383779 10.748551833510838 0.4805672058687917 -0.30593505094077633 -1.2282468333842074
Ni 5.780637445484188 4.860805947516818 5.630984540310946 0.011140847108167911 -0.44451596867218923 0.16847230597420662
Ni 7.33810410759441 0.8411517455370424 1.293178430426676 -0.24307852062587174 0.4838674738866184 0.3399530597574339
Ni 1.7766348385864035 8.611558960879393 2.7202178842400007 -0.550229189141304 1.4031250428847577 -0.040933504989568215
Ni 3.3792958253358383 5.171683118726496 6.767069368781114 0.709326481658514 0.4796706621964514 -0.025080854228027773
Ni 3.502115459854453 4.299778326965084 0.08034210403452471 0.12839420700639823 0.10609348662666888 0.051807214479278524
Ni 2.0314615114151713 1.8558830730876643 0.13738011078704035 -0.4116624124772781 -2.4563993072823953 0.7509469854127777
Ni 0.1282422199500675 8.641422607734722 0.14309060488022388 1.4291057832192355 -1.4675653727470144 1.0000873959620131
Ni 3.5912571162030886 5.490519038929243 9.240442251849569 1.0161619329263725 -0.8604078458497828 -0.7186984097917171
Ni 6.900913887849574 3.3493221496925876 12.617132228724772 -0.3126646563551261 -0.21636578722137578 0.08211923519925858
Ni 3.4227847037622503 7.940429199879765 10.04614363882451 -1.9131925722055116 -0.887205168548285 -1.4485929454095696
Ni 3.571983740185311 0.6075551273379427 7.201456605153622 0.05199336234815562 0.21291999476462042 0.14995290701378047
Ni 4.6068044905974705 4.223647574788297 11.263512234372508 0.05146602908977588 -1.1997191582581594 0.011295113297845064
Ni 8.396819443117096 0.64519322496657 8.840248295137142 1.3130608418068097 1.548258674133024 0.05978354781653574
Ni 8.276512132589382 5.563999931130226 13.408689415012264 -1.2770173179196909 -1.3675949682989479 -0.7053173604991207
Ni 5.798260389683127 1.1076139626886263 3.7973355345427438 1.6202786161147513 2.7073569735460277 -0.16607938026199787
Ni 2.0772701634536186 3.520251871730364 10.162171746408601 0.25470504912120656 0.6223738296263539 -0.2424599132052663
Ni 3.7625719389985948 6.205770343885837 11.605315747147532 -0.9816032211148964 0.8647820636580783 -1.75483987116381
Ni 1.6298014211036789 5.212082022025415 12.356612483027575 -0.3528985641745083 -0.0021733535022349666 -1.0485750591497556
Ni 0.7142124498172919 1.5625554935516432 10.846449947564981 -0.20883322628975648 -0.3345933381074173 -0.5082029653081893
Ni 1.2588852079508963 5.529753470889314 5.852881430727608 0.8176791966330048 -0.27542659793927404 0.7992945234782299
Ni 4.996755684060865 0.2214824486488203 9.401373107784876 0.11104208888119585 -0.6684575113582939 -0.3381628006262305
Ni 8.446240707025668 6.800677662052076 11.486832163779635 0.3790356275811924 0.13671789638074522 -0.792870622229757
P 7.071981145872254 6.8269011898402985 4.2551139743210316 -0.7854535038300796 0.3870649256435721 1.6973443480505026
Ni 9.127694835958701 3.5599722641704266 11.421128473071649 -1.079202040006993 1.7732194021122623 0.9779813080915932
P 2.754378155263708 2.8290326878691996 11.924305707653371 0.5716297663042671 0.3535467392814685 0.7392276400933204
Ni 2.9634328523166693 5.613402856907478 2.0422874272401903 -0.3285959828734018 0.22309102176035128 0.17292159999481185
P 0.19913010038234183 4.80525057868156 2.2030834979102942 0.11875719813726644 -0.6767709163199958 1.2240564494519435
P 6.002171240900706 6.003812503653884 12.341998826178319 0.09470144273964336 0.05962671052369732 -2.4362246321067333
P 2.392346766735676 7.014344399132127 8.109295882143991 0.43325530815670543 -0.1042453776743366 -0.5830086975651702
Ni 1.413897432002535 4.291425308148625 8.183440614698776 -0.11043685119702916 0.8845430483350896 -1.8167201536083744
Ni 3.9415796078830225 9.206475448111291 4.3740807674492235 -1.316382449980875 -0.9699746357370327 0.9283605597406721
Ni 5.561670988452532 6.7903716322499905 9.664186953710258 0.4029815968738286 0.2832268107099832 0.6966709976780324
Ni 4.313871180884838 1.8533615800311045 10.788059503627583 1.8267757380721634 0.7582622881272683 0.8354344637338966
Ni 5.717031636999258 5.063277255425743 7.92415594214601 -0.2817132022789342 -0.9556438209366575 1.0940455327777288
Ni 1.3885999798459947 3.950693659149279 4.363036627861491 -0.022349571339793765 -0.7584882880951453 -2.0520838220884916
Ni 5.880323527342073 4.985716129005962 0.7518982265873523 -2.3983196295308438 0.3396918356762472 0.32604133477234815
Ni 8.66880143779613 7.399133408628819 8.336453982436488 -0.061646826277519634 -0.9408391518236571 1.1133923127354566
Ni 8.838823422333546 1.4513530652245241 12.903753553636909 -0.9805621814448919 2.7805732498287017 -0.3470986696632796
Ni 7.993600611643367 6.520113421915077 2.3486359969202866 0.12092180988875303 0.4200215830752508 -0.41990819742583807
Ni 0.6281983617653566 8.547971490525784 10.219313363603078 1.144600362907145 -1.10925592196958 0.8044464999928146
Ni 5.966283517906613 8.385422294501446 2.688601112030439 1.0478579784780726 -0.48613904352961435 0.41684061424410795
Ni 6.173596092484134 1.1755017248368775 7.735619780227484 0.3036357133836384 1.377616099980376 0.7695900544352617
Ni 6.53284925411712 7.227011708055214 0.6445972356986558 0.33084338414668185 0.033609203414013085 0.16573588087965005
Ni 3.8164218616210523 1.110172132007827 2.3327735133281102 0.12880918305662978 0.281698804101231 -1.706844574231454
Ni 2.5956066142913796 1.1594741980628172 9.426414743009495 -0.8197286229628656 -0.31517739547465073 -1.8035969859628551
Ni 8.453291718518376 5.114770728173525 4.4711866742303235 -1.074733205602362 -0.6916851144276668 -0.3079582520183922
Ni 1.5537623595834944 6.071150121862522 10.02201432563308 -0.20465132699792496 1.3273044962100173 0.49684331732099596
Ni 0.892493011794865 3.6958669863205116 0.4826247739043458 -1.7030326566845315 0.554066046388891 0.5283696700640513
Ni 0.6823664509662242 7.03639600204495 3.9098344687542177 0.5757252765298795 -0.37187844771112083 -0.190327197065769
Ni 4.73783043888198 2.039035159650511 5.861162013925351 -1.0417516084700187 2.0273618938617792 -0.7612897620996825
Ni 4.349859763601192 2.097001992754407 0.09695186647800888 1.3787859519187609 0.34913498336701804 -0.2238330421326984
Ni 4.63082744262724 6.961026282317961 5.069819383774308 2.312321885212785 0.020377792325403616 1.1977430083683953
Ni 7.96844986453739 8.890390247606609 4.634801315684379 -1.0473121332769317 -1.151042776098379 -3.112927671303271
Ni 6.740620281977651 6.746240919227364 6.609708030107328 0.8206976717443544 -0.02425347323072597 -2.223210792076726
P 8.748544801843043 8.83008530275936 2.3724829028893804 0.5970433212813653 -0.19634306424254575 0.3719797491756755
Ni 1.3785965292106972 8.995284358759498 7.5019800674197805 -0.544470689390972 -0.7077822770998455 1.0794275257542378
P 6.8246639378192056 2.137969378124259 5.586336691985083 1.4094329873806566 -0.19370382684748574 -1.0119496946172377
Ni 0.8727685177466048 6.505442916858729 0.8631969301039036 1.8195190565097503 0.5924950397890506 1.1159932406934137
P 6.643446524110664 8.122040883411694 8.059790262831346 -0.47930325155470366 1.8732671967654837 1.5935936506243973
P 6.229206475713354 1.163435234428031 12.528762607704726 -1.3846159283369768 2.1868636209062595 0.3868258130495725
P 3.02919339123175 6.541734078741871 3.977295869349268 -2.349442701324483 -0.6955222287855699 -0.5998738487516249
Ni 3.680838887703415 3.0484392600525463 8.156721957364901 1.5154467698093255 0.2582783682947616 1.4763896559068637
Ni 7.298209502906803 8.649060439429682 12.464749692704483 0.9000946229164435 -0.589232824098011 -0.2451138058883456
Ni 3.869776654697859 4.236080827823552 4.119922519507085 -1.0544191766353581 0.3604342104299212 0.3834206440227655
Ni 2.57244555443367 3.369008133665074 2.1286710286382324 0.630325737483579 -0.7896677990217433 0.46370076913075625
Ni 2.4461325058985124 7.750977965208349 5.811172267945845 1.0913381611488946 -0.4858009434639053 -0.0981030122220246
Ni 5.75754973815176 9.139596283185663 5.908279091633511 0.7100651595967512 -1.848970529001648 -0.6748091646079346
Ni 8.731637044765602 3.034502280249016 9.043653013930278 1.2846614647285102 0.2273755080683181 2.160892136543162
Ni 6.0837667562109825 3.9003646577403446 3.631721119868195 2.072777860102734 -1.9899335738119923 -0.473089666544824
Ni 8.271991783218894 2.4870173696774223 3.437509306305994 -0.8012506187633363 0.13957979130957252 0.7865572784172196
Ni 4.202017748895844 6.655439661994229 0.1977684941317995 0.0638137520218514 0.6606367297622945 2.1890876251407723
Ni 7.4429798806159795 3.2343787425760993 7.4120407023587065 -3.2068099605757285 -0.3215154218775366 -1.0485994846297877
Ni 1.011448802044264 0.4236172518480154 5.050870592680902 0.8864960582964024 0.40426200624814895 -0.6814991750336006
Ni 9.368584528983938 7.436607379982128 6.149567639014967 -1.8878034427084456 0.5161898401684077 -0.04994033647386883
Ni 8.402559278220393 5.149173062530662 6.9363605787854095 0.5937561658896613 0.43374767441209167 0.2513554159226833
Ni 0.9967966351192363 1.6471951386611117 2.3966653966616382 -0.5942544456823184 -0.4814328963031967 -0.3855808848988779
Ni 2.7357007685138446 0.3708703678244816 11.577697604472393 -1.139592368169592 -0.7988371242258372 1.6516643295148845
Ni 7.124217312938514 8.642862151043374 10.13755922345688 -0.22186537688336627 -1.107356648064338 1.0118792463906185
Ni 9.097391073951682 2.7339769841697237 5.850371857456407 0.1719669493910264 0.24713906384849046 -0.29142297336753037
Ni 3.7684493100867935 7.790625005123129 2.3152468443186045 1.7460153308936446 -0.34570821707365623 0.3034811900836451
Ni 5.0878778585921065 -0.08215482831554971 0.47459725691882526 0.3878539972037708 0.12714696486285845 2.2349800167975125
Ni 4.94262152040294 8.420796549818565 11.79199884089613 0.457485898569296 -0.2771685203310452 -1.423698496160735
Ni 7.4710738977988855 3.8390236084734886 1.388659578772786 2.8588846812460957 -2.312609334546217 2.5112527647871654
Ni 4.579884113819071 7.650200764536897 7.422186273511738 -0.9321344249608076 -1.0581274787248809 0.6563874675676373
Ni 6.744764699656069 4.530444511779178 10.407822018324625 1.2307359183546482 0.643252472847576 -0.4181657608134347
Ni 8.390822874175313 0.5308540592770904 6.58089515817666 -0.7393721360909847 0.8364009414122241 1.362448391101002
P 4.858211101934977 3.453556088117941 1.9930092007559168 -1.3163917059522554 -0.5936630919552227 -0.5127183366800395
Ni 2.828711770571092 8.60901912969151 0.4497866821488425 -1.5809656774477416 0.18171631546830638 -1.145954048721562
P 1.5014895162545938 7.331859973879801 12.201989027359929 0.3828732561597277 1.3617811898306482 -0.33706365402478083
Ni 2.3692865666002287 2.858300345456614 6.376296627034564 -0.49475198200960596 0.03557018379512583 -1.418288123778441
P 5.665996617534487 2.8764550954638453 9.321229972475178 0.016401838396791105 0.5892798752858626 -0.8947073904626012
P 1.0724047505533907 1.8853707882509243 7.831048664899331 -0.34568482003488854 1.2056761471725428 0.26762587094793266
P 8.80492538658772 5.3525796151369285 9.93216848504174 -1.2214748047676962 -1.7773028281530165 -1.3157640996705855
Ni 2.672920175938335 1.9622717419431692 4.098061633159994 -0.2661225469295288 0.24999864478447267 1.0524476547312842
