# total energy = -381165.7164843147 ev
CRYSTAL
PRIMVEC
9.22780949677841 0.00000000000000 0.00000000000000

0.00000000000000 9.22780949677841 0.00000000000000

0.00000000000000 0.00000000000000 13.50583195981067

PRIMCOORD
 96 1
Ni 0.3959108668082669 3.653585119304 7.933041812323269 -2.525764585250095 -1.6132818730819443 0.2813193092746252
Ni 1.3540887839494382 2.4268677915686414 3.238211879221726 0.08884884061360827 -0.2717676610304481 -2.4324145143320237
Ni 2.4393530179873664 2.947279343017548 10.049284921954136 -0.16454134635091663 0.2659235435448452 1.9654880391751184
Ni 8.220778758055308 3.9774074145633276 11.958334176577685 -1.504570232106138 -0.7203212901071208 0.32960951173958075
Ni 6.135727490509122 7.310316921689142 2.265009242453824 -1.5072441793938753 -0.5748562436613648 0.1940990054033754
Ni 0.417789080641344 4.31590192712182 10.083413975841536 0.6759234807180359 0.6939235168398823 1.1893586409594419
Ni 6.0671740928264155 2.18066060304094 1.611947927686987 -0.2314576485574917 -1.225889131785308 0.7611380670131666
Ni 7.376904795922338 1.4561668139892956 13.030994145452764 0.8293054680180234 -1.9220356244184384 -1.514911723241462
Ni 7.823272402963378 6.287617236889167 0.16704273256052285 0.9231085673131134 -0.9840997622845051 0.48318484599729694
Ni 8.138125267270008 5.0170585856391305 5.125841542150419 0.527709410772233 0.36030154150679883 -1.6921193522061373
Ni 8.365600002264813 3.917869586881429 1.0062732608916447 0.39499626467550686 -0.18264088416510482 -0.010029616321860146
Ni 3.0490343997206315 7.452000710627125 9.114708050702491 1.631318418868681 -0.29301011534899213 1.0715522367712191
Ni 5.9589042025301175 1.1114435299358736 9.610723119072444 0.705313760954695 1.0928088321571503 0.07837879432021985
Ni 9.36844144075799 8.495472194886485 7.614291121232258 -1.117251795690863 -0.9186317624886824 -0.4681834874924582
Ni 0.8324988412117875 6.982434390196084 9.433202208686007 -2.498872388844942 -0.736693303707241 -2.594462404837125
Ni 3.884197309570324 8.601490499634988 2.04892900678041 2.8792629877921314 1.361928771152106 0.6620220401455954
Ni 3.8722565239193045 6.36334987045788 1.6041956448234465 -0.6585772761301045 -0.2540599593380399 1.0580094650897778
Ni 4.398167849902993 5.80721746796176 5.878237459156458 -0.8484743276369904 -1.1775025129518044 0.4575717734148829
Ni 4.491036525939977 3.0780743166014335 9.05225700352289 0.7138148564471707 -0.2886436108501803 -0.36626418684813694
Ni 7.15704300386578 8.617390015613895 0.5222054376394458 -0.3261128114402319 -0.12777842779927026 0.4694158172376625
Ni 8.178044771695285 0.7607830731715814 5.336235601534685 1.0464053051919462 0.747144580947552 0.8140894223992174
Ni 8.171253103813408 1.8692589395329822 3.036313864156543 -0.8401760921839402 1.2055612188612335 0.34054055682978773
Ni 0.8639850504234127 1.1604616546485587 9.91730509761477 -0.05586544370905217 -1.1314609973117093 -0.10508561418744483
Ni 4.310411380396661 2.4256128094600338 3.304769301683169 -0.38916243160254915 -0.535357157125478 0.6733675470654017
P 2.703000766700869 3.6438036411045562 12.04246134855964 -0.07954016161817269 -0.36873835942024236 -1.1851170920742684
Ni 4.616340952798704 5.128419792158838 3.381292758536498 1.197732466845434 0.8402187724964175 1.9328028902372711
P 8.4386934822816 2.5190997487417004 9.823439818138597 -0.789551328048537 0.14528018412845947 0.09534627541249385
Ni 0.53790747849244 3.401121475852503 5.033718473130901 -0.4735095276910619 -1.1142415481096295 1.3787931510076123
P 0.43742493673624655 0.47317347121232756 3.774326394304589 -1.2682871371355449 -0.3767005516901125 -0.054186513344732484
P 8.89168665663132 4.020639702642946 3.1553267704149097 -0.4122110858918965 0.6495822717203458 0.028997672783930707
P 1.6452538609560938 8.147620683371166 10.845061694774708 0.216716228582259 2.223600828426293 1.5573274692035115
Ni 6.4685192167211465 8.653350789711284 8.159265256333315 0.5077414522907385 -2.590131124451623 -0.23430848774272553
Ni 1.12947466993749 6.088287321241819 4.600505108706188 0.32966633311944515 -0.21648920017311749 -0.06687002234967193
Ni 8.097485993694205 8.755604148133962 9.95263653509593 0.1861761510118729 -0.28896936962071523 0.6100345913347107
Ni 2.5280784075040206 5.378973279018557 8.593828649305744 -1.0636208977392843 -2.9751589650605084 0.15216534128406697
Ni 1.5381189912433162 8.82468353096513 5.49329476686504 -0.913392368466614 -0.21347278194429686 0.748623993706556
Ni 4.7764988166001645 5.753973006442145 8.256912092192632 1.1530515789982916 0.27404565843134737 0.7670397772095823
Ni 7.803487979133559 2.9331054274379764 6.289584605900602 1.564810664954434 -0.4089619828269796 0.2954362082919815
Ni -0.04859087712718111 9.116992856364927 12.741388568272248 0.7502828694662175 -2.0763918027062367 -2.0032904547348727
Ni 6.072618500503465 1.4774830542163857 6.7630450619921785 -1.8371632519540746 0.8425476777399102 1.9573929208718097
Ni 2.422429215140404 2.779416258181619 7.852628833714218 2.1103578752390364 -1.468720055176748 -0.7474538846578547
Ni 1.4822815152198865 6.851611733183332 0.19275971519640056 -0.3144297186753488 -1.8741154036983918 -0.47220366439544487
Ni 2.4333272583041237 0.43468243171655346 3.574210269277437 2.1107815930400164 0.13131986529362544 -1.5652498093743816
Ni 7.907070142141822 8.623960216064841 3.057450162096002 0.1950631690888576 -0.27408293942718603 -0.0076323197342771775
Ni 7.030363633373359 7.44495989188545 11.958226211205107 0.6206252223663634 0.2643608270434157 -1.1778107882208424
Ni 4.786317206038098 0.539010201742283 0.00661172559424678 -0.8647183002996786 0.43343348560578254 1.3176348343307371
Ni 6.788373553842964 3.3872520779904614 8.546369101638234 0.4187337175017627 -0.6671051110954574 0.711395962593033
Ni 3.686399210320248 0.6661915650781475 5.412151868514878 1.7843983015472176 0.28545338604765674 1.2223973165819657
Ni 8.159561469022185 5.286787460893609 8.553095252071795 -0.8959440910831795 0.9643331211805392 -0.21497353485953943
Ni 3.3930379146235286 5.724499382509104 13.091216676608624 0.4529383884079296 -3.1483710997125454 -1.08370635563525
Ni 1.0221091049841595 4.686536900594146 12.591338847130853 -0.3190867578313859 -0.008170194515618186 1.7037160559048012
Ni 6.3985816475951225 6.483412901451244 4.6362822493920985 -0.33029779605585696 0.029432960549136408 -0.34204053841408194
Ni 7.1742067297629175 5.539897051018654 10.567205887586033 -1.5163744238299175 0.3694942637496604 -0.6582728575158082
Ni 8.360432428876427 7.681690119931238 5.39587678068435 0.8247654140558247 -0.19654181051691313 -0.940143154197897
Ni 4.172972383884852 7.3831151117980225 4.344893859392587 -0.6460120378705843 1.773687342887616 -0.9962888481515293
Ni 6.301385128845365 2.161116102261296 4.62125014751767 -1.0333662126198009 -0.6688380346261642 -0.39628284469741426
P 4.365086152407704 0.8009221994658655 8.139289816844318 -0.4012435311367993 2.2304345635186746 0.37856820102647054
Ni 2.1638659895286874 5.9194091773474575 11.000216240199059 1.0021741032877127 -0.009451375220886947 -0.06775165362367686
P 9.262229352007425 7.810741037496544 1.1509173311564032 -2.2361822646357292 1.3787327300833223 1.7644054033650582
Ni 4.089423795566204 3.4129238443591907 0.019968057241298822 1.4415710055657815 -0.9563657867043465 0.3898628001036834
P 5.608450448701361 0.3001160523401089 3.2962335777827105 0.16241915780159125 -0.16429066379269122 0.5892752473001722
P 4.9854533376833805 7.595576200537643 0.18992031817567515 1.2723330250701441 -0.2804549043918008 0.030866864782185546
P 5.2830594258062735 7.126932661068812 10.145513443474533 0.33308847142711673 -0.3109183630879807 -0.2096125276579422
Ni 6.436923196575019 4.646866547028666 6.526585208768318 -2.0166331945903657 0.6305000582779141 0.9036522583607147
Ni 1.4701192621379366 4.888561336651153 2.0873259226180383 -0.4033006707761441 0.6510249177041434 -0.09679432071293008
Ni 2.2912559013620113 7.051043154736522 6.928262533809447 -0.018075112334155968 -0.37509541198652174 -0.9242959027529952
Ni 2.6444872258870253 4.06804296067176 4.14360303420054 0.6910402817548164 0.8052484270688196 1.483349889274781
Ni 8.15988444235896 6.039444524911954 2.432157172044039 0.751527540506596 -0.013626846754815241 1.2059620538440778
Ni 0.5070598337066654 2.1198493376311895 12.177655218990388 -0.41112710879909836 0.8263561555817123 -0.4179276766606996
Ni 5.591526645854398 9.015976024431613 11.560276921251313 0.9359193459245364 -1.738989791505431 -0.7787218415332008
Ni 5.734013254229507 5.559616880181118 12.568662427765464 0.12228398034360231 0.7387309029625599 -0.9659948251536783
Ni 2.127637608952256 0.14610298696601512 7.988321928645524 2.2785517307408756 0.414047624880003 0.4332722774375699
Ni 4.390721007537945 8.160908729227014 7.358936405026152 -0.5455022159792798 -1.4185943421649505 -1.934465879761991
Ni 1.4747147113297507 2.90783968469262 0.659298391290426 -1.1920647270366955 1.6115947151875083 -0.8837508914510973
Ni 5.904386303282651 3.4314809695092676 11.169120221960362 3.482520922524641 0.866816577589604 -0.33018029664138615
Ni 3.7419044851972814 0.06598991216968259 10.226588978814453 -0.6935879878773344 0.9234803488302353 -0.6208293679573694
Ni 2.0981455293999702 9.009627291411597 0.8300147148615137 -1.906561440042239 -0.42274412421273644 -0.9215054844920517
Ni 9.12384911891416 6.385007539640989 11.545406306045274 -0.3532855152002819 1.1664832790231654 0.2105368392444245
Ni 1.7741386779482007 4.433085881513084 6.5384973882095085 3.14730023524587 2.36538456936572 -2.3477244330817957
Ni 0.16872219391174814 6.051191526560909 6.792974539720551 1.4369998412553315 0.13543157346915385 0.6552978340478844
Ni 6.575238835000929 3.9755895360677704 3.259105485768124 1.5761916530978661 0.5456557108380086 0.07133062922418683
Ni 2.446366153300175 0.8471729040728778 12.075956451925999 -0.07195052219637287 0.19594454325254643 0.28205335922717234
Ni 2.063375142743834 7.509250041522739 2.8494202675369227 -1.5347333859530796 -1.2932607763617467 -0.018653867655761422
Ni 4.786040371749434 1.766276584150157 11.566934785893672 -2.8653746598458136 0.23045209011111276 0.6590953534171037
Ni -0.018729685190010732 1.144617505527384 1.0932241426179659 0.17206696530400042 -0.04986320337903025 0.8016555675112387
Ni 4.367070131476459 4.869339809208283 10.781853967206095 -1.8671520850066812 1.6533563725053266 -1.1345787170050847
Ni 7.999532794555433 1.0690878837703568 8.002137805211756 1.5844801183589035 2.0042345638156966 0.491730935795095
Ni 5.830157802682343 4.687579643081446 1.083612456115569 0.10054735999745909 0.7212286324127386 2.205727033469666
P 7.391355545790573 6.598243764388867 6.94611742264728 -1.9818626238783996 1.0929589845817693 0.4673419654277693
Ni 3.1427889454813394 7.753630123745261 12.410495925280454 0.9106289467888639 2.191451497387258 -1.1073491918651703
P 4.59845745775104 3.5262782577572747 5.6343898215491315 -0.20739083741627512 0.06021497892699952 -1.0360008220291705
Ni 6.161934469835935 8.806855402775199 5.637185847864632 -0.8965035631310754 -1.4782480492718413 -1.6912189518790552
P 6.623463368086112 3.200130554473174 13.350366790912307 -1.4309785747619161 2.9165951485836867 -1.093908235868916
P 3.477933763147004 4.028105000627238 2.0409201908093744 -0.5563741256967774 -0.38728886872892004 -1.0078099614172513
P 1.063025212848626 1.524221909952408 6.822565356835794 -1.9670726100534188 -0.029375624948639732 -0.9978091414507976
Ni 2.9738000678715126 1.6810946735283958 1.3735834545571224 2.7410391962898215 -0.4889438599682612 1.583950985328311
