# total energy = -340888.1217458065 ev
CRYSTAL
PRIMVEC
9.10406472635608 0.00000000000000 0.00000000000000
0.00000000000000 9.10406472635608 0.00000000000000
0.00000000000000 0.00000000000000 13.32471897999127
PRIMCOORD
 96 1
Ni 6.207579208278399 2.254730873466694 11.290100860226678 2.6791774257880183 0.017342605043505616 0.2732285618466907
Ni 5.119015295326315 0.39609691605303554 5.875187985012643 -0.23779464651911303 -0.2137401766730706 -0.25510922653816065
Ni 2.894009193127998 1.6329596702369642 4.465992569176843 0.36479531561209433 0.377945222730491 2.536597671309857
Ni 3.8529494327817204 4.650975328739101 4.936808365093224 0.38182707428340046 -0.7657925350660424 -0.9080997526091069
Ni 3.817789534883261 2.8312366669731865 2.6864629195958956 -0.28977978133715254 0.7453010999809099 -0.8657020043691864
Ni 5.116193035267143 4.715641500352969 2.280045635790997 1.628538027910066 0.48202733535408604 -0.2956434392067812
Ni 5.232861624487434 2.874954385696233 0.4567673136669989 0.237946598715945 0.6434406775989822 0.14032309723350028
Ni 5.808784757852679 8.519310630875662 12.267895617888612 -0.9090806284651375 -0.4625800252627517 0.016028257107456267
Ni 2.071538883432305 6.817924810300836 0.500248326707663 -1.1368160909760356 -0.9107168785169799 0.12116143670338489
Ni 0.7508959737821473 8.961540574018514 13.19681520417098 2.612285291951159 1.7947523910880314 0.8950298067990263
Ni 7.978310689726496 8.807035491875903 6.996250677749329 0.4521668003492277 1.30044109616027 -0.9118736178292425
Ni 8.791112482703348 2.599219577915121 1.2544663737013968 0.6055613860547056 1.0466086794520042 -0.7552972919616734
Ni 7.461318167209707 0.7033090275586231 4.659441198510146 -1.0048004851669663 -0.010864967738961933 0.08579565560958127
Ni 1.0242892161206172 7.975051434561387 2.5754816395980717 -1.309878587424086 -1.1637651087610539 0.5579239866824004
Ni 8.232031869046066 4.218450318573919 3.662059045631087 -0.8046362474061176 0.1069972293878609 -0.5414043917608224
Ni 7.708520836199059 3.8362252659149494 12.688850272217659 -0.2815190839902571 0.19868405367089653 -0.665078567583732
Ni 8.52449084369395 7.360973166009078 8.926095718894725 -1.7621009236015974 -0.235329215697756 0.8713849136865768
Ni 6.8205103646776255 1.210239737761229 0.14938859777727298 1.0831504831317798 0.1622414945731464 -0.11404256627041649
Ni 1.8728881915254187 6.729515237931094 9.102874805749497 1.7458510374016383 0.7146946879489627 -0.5558979573913072
Ni 0.2851465898752156 5.135384403669513 1.3497276651696324 0.6346122806740748 -0.5302746003962481 -0.1278406484957734
Ni 6.7133373149467435 2.1399195134466327 6.735712374777153 0.42740553424414784 -0.11904567591196272 0.396798093770936
Ni 3.353700732378887 4.291646998818253 0.11397105484760482 -0.03656931448360153 1.6863030026346764 0.10603537969522384
Ni 6.358060293820513 5.616497807175989 4.459330214624256 -0.4214151209886678 1.790952043505335 -0.056553470915012276
Ni 5.849133972634132 3.365545120562703 9.08887093341718 -1.0670322374136785 -1.6419471022271206 -0.167907177499356
P 0.30670228388199533 5.765139871647287 12.327790349189538 0.9118605052031199 -1.094536099260902 0.07288460397486803
P 3.8945459044280346 6.508878229756786 12.782029464087403 1.6287406308391754 -1.0402719386006989 -1.0615861266974427
P 2.54663450016745 8.861969418317981 1.4748994508262674 -0.38275909917936657 0.3678287031217794 -1.424138154801315
P 6.54591356498489 7.779869391307871 5.368636003901849 0.8630725371661394 0.01176459673509587 1.3679423243360376
P 4.473127424687725 1.3967820236077964 12.26734937400619 0.3941256891450954 -0.5400717889923279 1.001025077284934
P 4.463759342104215 6.298811040707314 8.1254269129529 -1.7826589502586074 -0.1937699041987308 0.8880652025557351
P 5.037242586127981 1.4362572481773777 3.789310199666802 0.18587995992769277 -0.7133901102049263 -0.19393548324231763
P 0.7259544781108317 5.961104864465606 3.5420966057998013 0.4124869652611025 -0.9594696224406508 -0.8716497373121891
Ni 0.7275467790280872 0.23002147807428996 4.87964576361087 0.5023310799084446 0.030350073046767085 -1.4645057599850841
Ni 2.397546336525508 6.556119221521444 4.946601607498551 -0.6054917091590346 1.2985230532019507 -1.5295636688266818
Ni 6.1606113384549515 5.633677177278112 9.228194077254386 0.32368389028376515 2.8128200256775493 -0.010164856348143785
Ni 8.926417092378882 2.2482760915894264 10.340941117287691 0.19085041655909066 1.1081061246358528 -0.5567644191566605
Ni 2.6275969476068606 5.283434703934856 6.869919034249022 0.1689754708628703 0.10631897237391366 1.6669899041283613
Ni 0.74665074840927 0.07434106117800464 8.938488171773901 0.1122934447897937 0.8024248415770955 0.3827166759772054
Ni 2.2046312053840365 1.6099901149811864 11.33400612268269 -1.3884319596489572 -1.0038471201147614 0.9995124972951497
Ni 4.403781763814454 7.443392263801611 1.588572802757953 -0.24981532512907303 -0.9460044980746805 -0.493782161897169
Ni 5.994079786834385 8.09649055368815 7.94623615935724 -1.2198192714421445 -0.1597603800225055 0.9146812624813666
Ni 5.796011755068747 3.2450255119713485 4.696803369661231 -0.39067372604075296 -0.6209404396139371 -0.40582163742578503
Ni 1.057983359601249 7.9244601469845515 6.645503839221306 0.8598504306844158 -0.9015776352198731 0.9019123928514726
Ni 5.535180301213006 4.6218878420002145 7.050841380951955 -1.4646579692922324 -0.2030227902555665 -0.45554240168967997
Ni 1.0358422742338087 7.579461614912533 11.271340114084948 -0.1464592920382252 0.39351813746808356 -0.5937183706731903
Ni 4.831099248967228 0.5488166911066023 10.246003020116556 -0.40551233371548223 -0.815408398320957 -0.4874873300273927
Ni 8.5988801564149 7.155385176795453 4.795326647513987 -0.32854456081017613 0.8827011100303442 0.3767046654551706
Ni 7.405109671708647 6.328426563199207 6.870771174705598 0.18942294008394472 -0.3580042608321899 -0.26220778525615485
Ni 2.828077556519855 5.431858270853186 2.570644650019239 -1.3083822053842176 0.05065690292491921 -0.11469356959085407
Ni 2.4666279795222747 5.577231976094669 11.259706940202335 -0.11384459132699748 -0.6839450654709318 0.5995066952201934
Ni 1.4155272928395233 3.5837968637837747 3.7564782111139245 0.7066522772604603 0.3552614079797301 -0.1313931417337221
Ni 1.508944100798119 1.389234753965688 2.5911916136564823 1.238305760282106 -0.1457254991959942 -1.2847601950899035
Ni 1.0793688075980077 3.6773957530365102 8.203895757069061 0.7074392919381299 -0.6865771037771402 -0.4083464607301677
Ni 3.8867801372329573 2.5270880732415066 6.844374849494103 0.6416321636353337 1.113440649474889 -0.3489804600670248
Ni 4.487366181889483 6.812598932447237 6.086665393685232 0.7696072808264424 1.2450675044859716 -0.6380896976997139
Ni 8.496240930908106 7.3770145280228245 -0.005754679301298938 -2.1889485284597465 -0.972300198546416 1.3308641885368175
P 0.5031006301803681 6.056315173171484 7.597728010340671 -0.2595364090715788 -1.1608515346586847 0.522208792668978
P 8.791048754250399 1.714231655876413 7.881610956034553 -0.3077132258871217 0.6449609708982506 -0.22709911447847986
P 1.9958932097817865 3.5741010348708127 10.305964211089842 -0.5873299506483433 -0.24744039713899318 -0.027672783324920087
P 4.505009859291662 6.507658285086047 3.57754055051712 -1.0454061745034706 -1.0362239937835702 0.4392418647574436
P 7.243794749165195 4.297391663648374 10.41925064027148 0.6768092257570989 -1.0607093805194443 1.566776530431553
P 6.5260484957942015 8.088943284046042 10.139231459639252 -0.7716765046506452 -0.7687053378374632 -0.6222036225970767
P 3.0137549562192567 8.70913948408146 5.720355156540581 -1.4990955821448118 -0.1761123390179677 0.3468539006423252
P 7.228672897686857 4.463531740486539 1.4207748757366419 -0.8591153522906044 0.05223581737626487 0.5505672892070131
Ni 2.8416517169980025 1.9497538098466765 0.24254411907877768 -0.7513341935488674 -1.0273333761621597 0.8494827142968466
Ni 1.730455099184299 1.159803219284412 6.890332168135073 -0.12532508116277127 1.2226788523781265 -0.005033191548533268
Ni 6.9610042912361525 1.186997060564241 9.151190077149582 0.9240994704714731 -0.9372365220740633 -0.4857292096857054
Ni 2.895047056504597 1.6269236753362188 9.153934952658744 0.10658225333762933 1.6106446925694133 -1.881625596032508
Ni 6.760050270958395 2.3167932825743587 2.5645549411367217 -0.7535116608161604 0.29571285899213584 -0.16089217963410354
Ni 4.19232165286481 7.192821090870664 10.278807696475313 0.22515741737107675 0.1548770837882752 0.010263329599221034
Ni 7.49878139347904 6.432831977259159 11.362707597077998 -0.4584570042333136 -0.44267403036744407 -0.8221112642624294
Ni 7.82908596511395 4.06034913087204 7.964610893155393 0.9234937185666742 -0.08208401108594897 0.27640078892708525
Ni 3.1312429112631786 8.654105412927604 12.759604331901103 1.3934294128635487 0.25174339538972124 -1.78798241935405
Ni 0.18890479063803559 5.282669962499468 9.915829547013427 -0.38050449881723497 -1.2355878471303106 0.8704618876516752
Ni 9.058863025736414 2.487275998277766 5.590065976112137 -0.03181868717249359 0.6912428846839256 0.5779773057888499
Ni 4.148849743888853 2.996002030040594 10.85174469661666 -1.3774461500614148 0.9610637064006481 -0.09616002956304086
Ni 1.03507753279842 3.5237555570410652 12.491697198955075 0.30789551710125684 0.6529630152671206 -0.14340867813735947
Ni 3.3892794172538694 8.720528669029925 7.92531592906701 0.9358707520747882 -1.1263930958704989 -0.17594753130532922
Ni 5.778013019142995 8.421796993798914 3.4550062124061043 -0.5160396877437886 0.11818075680850615 -0.20503339292769207
Ni 3.074588316591476 8.62373425306503 3.530184847537154 1.8912680042182783 -1.0462870344465272 0.3459501578811332
Ni 3.5259951569589894 4.284290914534991 8.95874198452758 0.3956310700460283 0.8945515816110272 -0.7366747917644797
Ni 5.447353388984512 4.590096448043346 12.070956490146642 -0.1911520069599095 0.2687730971784984 -1.050277900773475
Ni 8.375402680052007 0.35218801197114225 1.8147068452023511 -0.5144245207378689 -1.2331177883232634 0.38530114887492994
Ni 4.508414779492083 0.7101598362506457 1.4758726753434463 1.298447462769009 0.43244103978552617 0.5705987539365915
Ni 6.084373900598478 6.324621064151677 0.05294741952300959 0.43778996280226534 0.4293773132585379 1.7649545910003088
Ni 8.033235512103868 9.11280460912543 11.187380608543991 0.8393841924102641 -0.23052048145520299 0.3279686337020481
Ni 0.4757037682575729 5.027264531209101 5.710228705366976 -0.6249670442748269 -0.7046573583176187 -0.14298238923321827
Ni 7.968733213654725 6.810077106523396 2.3648709378855903 -1.1743117739286486 -0.0010613513849788174 -0.025358019148814394
P 8.774197130477729 1.839294192756564 3.382413131651845 -0.8329572058379978 0.8142202915501268 1.679385963799869
P 1.8894302770980502 3.419850866539998 1.5024956917661463 -0.09506833916075885 0.7482936069503306 0.31473953660628373
P 5.04354259890523 1.3574615681382343 8.099483970163813 0.4725067974581604 -0.9474330029910909 0.5194237737246732
P 8.989362595763126 1.512767807975062 12.402461887916408 -0.646859473472544 2.38055253535541 0.31778732229367207
P 6.462019608709823 8.488793805977776 1.3359495736420481 0.2945962288891894 -1.1425594212177161 -0.9745283165459862
P 2.1845294305109655 3.305904392667102 5.903037318951377 -1.448389314039196 0.3395403977000475 -0.4828578016751813
P 7.281349016081599 4.253082180719373 5.870524883069714 1.5363354403328768 -0.6715960569872755 -0.5600191786485323
P 2.563358667034221 8.830050567455215 10.06446705945237 0.17003810779942974 -1.2393038625293171 0.8317220478793159
