# total energy = -340891.45623327524 ev
CRYSTAL
PRIMVEC
9.11225085792119 0.00000000000000 0.00000000000000

0.00000000000000 9.11225085792119 0.00000000000000

0.00000000000000 0.00000000000000 13.33670021100110

PRIMCOORD
 96 1
Ni 6.544655643049235 1.9645557712519455 11.421950672544082 1.0608304794783407 -6.196358618699006e-05 -0.4341814195154007
Ni 4.728902931907887 0.4404051180962216 5.923882627106768 0.009291709714571095 -0.4614819071025665 -0.9516655530151997
Ni 2.9217977470399594 1.8484292435085616 4.664523966813742 0.21962671736083467 -0.8205413486721482 -0.0816464093278981
Ni 3.540528707515751 4.383102115732928 4.796597845169469 0.39548760248962855 0.18674590747241385 -0.2937109980707587
Ni 3.813048800518056 2.3787713685236804 2.414729222504233 0.21819821244442422 0.3384471646358687 0.10066203119845245
Ni 5.067413947220109 4.379293194782149 2.7592962398831733 0.6681032133426688 0.5396714682301157 -0.5888785260823859
Ni 5.315294513306366 4.640605218957997 11.56530642896 -0.21338279333365184 -0.2951716417766852 -0.5686465153062271
Ni 5.476399112372831 7.944716572244143 12.364148321801625 0.19319294864933825 0.6814408109918393 -0.12180832625876441
Ni 1.8124723007531167 6.638548278161274 0.04282393516814231 -0.14545579047437532 -0.5938592671264288 -0.07614244879053339
Ni 2.9526609414425673 1.8727498416368646 0.13355097425553822 0.19226452329779792 -0.6665317550904908 -0.030802072982521144
Ni 8.088690139283178 8.990620751025183 6.958370066511656 0.6498566084276549 -0.8177421886604561 0.2720345415385895
Ni 8.839885893685961 2.28655538761007 1.2123485569794583 0.5521971115009523 0.8579614411918192 -0.9192164313475588
Ni 7.3907281556805255 0.9314907542403992 5.043953545593609 -1.0797008340202825 -0.5174851619410636 -2.4162631013831417
Ni 1.3485493738486012 7.618570881645337 2.311090123638716 -0.7622858074643646 1.1958984989604888 -0.3871189188099591
Ni 7.750242909728505 4.21123594814285 3.8790861953084734 0.9457841545337582 -0.2948299421665503 -1.4701565305129585
Ni 7.454896627774758 3.838025480724005 12.736749179623324 1.0302955441142774 0.5171347205801804 -0.23623655800337376
Ni 8.336151541819829 7.192181316932833 8.92736077036347 -0.783164964906219 0.16509901862659956 1.1496209560501878
Ni 7.274656301443612 0.698423974732329 0.3118923074619418 -0.9743930765197024 -0.44161447875467824 -0.5896244031094748
Ni 1.7157548678067673 7.00085138103925 8.839245302435147 1.613787351963453 -0.8792987692170147 1.647220434810918
Ni 0.043875488942591974 4.779731068423312 1.4886156076252095 0.150483839816586 0.36613537457975653 -0.4804959863112241
Ni 6.3527880843420235 2.0454816730793928 6.976774991239848 1.3525964380075868 0.327814624622687 -0.11139510134524042
Ni 3.5696605742134597 4.302677387714795 0.4649343867742202 -0.4638442366871561 0.8196167799753497 -0.27019568855763787
Ni 5.9611161962383 5.949807892649981 4.64635960551402 0.6740422045349231 -0.06589891668565424 0.4600986536017947
Ni 5.324725693172531 2.750715233042625 9.392038191657276 0.8450069379136801 -0.2857709172880756 -0.6124874237505775
P 0.0668729882143082 5.4659200236326475 12.473082549768812 0.7764178759903725 1.32315884947276 0.037192807000213365
P 4.0294738758816075 6.163207700655498 12.551915367523545 -0.7984478592072184 0.052467216660780615 -0.6395503414056405
P 2.6580892008304864 9.018258208546031 1.0626898564925973 -0.18220559639989908 -1.7523829249828853 -0.04630171128001703
P 6.721260181200091 7.841328971508391 5.6561883822755945 -1.3750087442645158 0.1756613675234781 -0.1851749634408682
P 4.793235424521531 1.2389836668816798 12.2776593906908 -0.9176593712730841 -0.5281156450717163 1.2556779330119665
P 4.052227166824422 6.371249505026904 8.169769126928744 -0.43889759404414735 -0.5110890286067327 -0.1267949808400784
P 5.131792001089146 1.0531666428905406 3.553817103263411 0.05154907572188542 -0.6249277063964591 -0.2504118210624913
P 0.4187626105598664 5.955603284335856 3.4086070037530343 -0.9921781684172655 -1.2530101563718161 0.01063382556476233
Ni 0.7255657257945106 0.18529580322945363 4.571514308831202 -0.17818696215880925 1.0538861869500238 -0.6842409994447958
Ni 2.1193000190656726 6.690251190780228 4.58601098907186 0.23732130642712035 0.16136063463008984 -0.4165166552457859
Ni 6.019279694871854 5.669925100776313 9.099510328962085 0.2112901724706813 0.5842435984135358 0.6989106856418286
Ni 8.79197367751563 2.5980759152280126 10.10480484958704 -0.1720026877249683 -0.16443181735624585 0.026861086056902125
Ni 2.4995907055724502 5.4631043380494155 6.852930386833044 0.14993568062259985 -0.5943066390764926 0.781379590871022
Ni 0.6211384172107103 9.04594122732227 8.857876210990085 -0.9803415807936534 1.253355712636693 0.06558138544523544
Ni 1.6074739882419036 1.5476247231588411 11.291637281096707 -0.5633446434773395 -0.3233861565376882 -0.47552990055520034
Ni 3.9443198895537734 6.903250059738294 1.2632833068325022 0.4198747730847414 0.9099476044511232 0.7983401299847606
Ni 5.6443014507437965 7.819742048703613 7.710666580844712 1.0423144229520243 0.48602437232862106 0.2318957645361748
Ni 5.454976210087465 2.744901616854593 4.721992200690012 0.24099438440333334 0.9154808755645265 0.43286989979282875
Ni 1.1013886755975388 7.62622517255121 6.524473829360749 -0.5574892131378271 0.20749033910861686 1.3513042015587244
Ni 5.024659265160162 4.665827929943064 6.878203215199041 0.803867744671209 0.8498519247108073 0.01402999573050487
Ni 0.9100177345741026 7.54450650487994 11.33444845911334 -0.16577547586833385 -0.7218040453002343 -0.31553555014501783
Ni 4.9282516487504795 0.35964597046350927 10.234690876458837 -0.8223879149625837 -0.13498445862940622 0.4712567271011432
Ni 8.613847393434677 7.37420764447535 4.737089378276739 -1.0395494586123775 -0.4818949235412797 -0.38209883988754834
Ni 7.546848353407094 6.1715180736390165 7.010462983476768 -0.21626834241156304 -0.3066685866726912 -1.431270137860406
Ni 2.3116140780757255 5.44641069407375 2.3966851429187463 0.6790823380619917 -1.3799951417355139 0.14132762723861467
Ni 2.332435571789915 5.353948682381024 11.134918408474284 0.046816960353538724 0.5670400900510556 0.5682955597247116
Ni 1.2023888665507452 3.5516183170781885 3.8600415905545753 -0.11607116666467106 0.16194324660643722 -0.7485553452521496
Ni 1.604038669585339 1.3138772584952134 2.312796848265704 -0.36501385938080366 -0.6259435492554832 1.2165370011464467
Ni 1.0913834239134337 3.475212091785637 7.9463130386330825 -0.18691508606042648 -0.18040530996636672 0.574390616878856
Ni 3.914340583505772 2.6706094338122353 7.028094278088402 0.015440760035102441 -0.2887410556599931 -0.2656204104821296
Ni 4.066178023225484 7.120568135707531 5.937619345607486 0.4357888732118366 0.17208110637138752 -0.14631685292308994
Ni 0.7614333684893871 0.26881505171381936 13.214136368721311 0.0716954687627733 -0.3805628628589962 0.5136992125360701
P 0.5246296548140571 5.615433839327362 7.917706037597491 -1.9064945913600457 -0.19872544843179324 -1.03060484782458
P 8.693397345349283 1.7048383910148206 8.045444306890106 -0.09561084192779017 0.6788000309348825 -1.189776959443783
P 1.868202828348733 3.5144858939336268 10.141227428372591 -0.9421460435605387 -0.18907866937064857 -0.07101592619724544
P 4.065931992446366 6.1993013271771185 3.6399324320800184 -0.07210247439320486 0.7836056519880634 -0.6317467862008217
P 6.912863484626027 3.8644236720981877 10.29821328995161 0.7398364773219129 1.2004542366519713 -0.45122269126840353
P 6.430233106257515 7.868401469462376 10.022103881249516 0.37319510964001534 -2.023422706708373 1.61049016926942
P 2.5429285717014154 8.871058904625235 5.508230939065075 1.600590907877837 -0.8784428489746227 0.5152503590732739
P 6.991976048488869 4.211563989181673 1.5248914791683992 -0.48122643671934545 0.16562609477466314 0.6179103945383616
Ni 5.387226623319413 2.8179454214992075 0.5156285731987938 0.3926527041439948 -0.4155285803009037 -0.6501756823299706
Ni 1.8319542935587785 1.086745288114518 7.066771227790755 -0.4917260506990886 0.7409695624850915 -0.5309505434173502
Ni 7.087937164595709 0.49964112868170607 9.086320345526074 -0.1280836177445149 1.5143509656419856 -0.48955012609369236
Ni 3.108088608087176 1.9622594839801835 9.195228147965132 -1.2459946442859315 -1.7305447460618713 -0.26188099804435544
Ni 6.851182657076203 2.2153431454322186 2.420757887817716 -1.0040607787874642 -0.6080412150537657 1.1484387628166286
Ni 4.148078935918321 7.008305202421398 10.39490429736983 0.04963720341115323 -0.13061923968217506 -0.41042982562175767
Ni 8.407391120750916 7.512167125802628 0.5543556402820785 0.5644707866619827 -0.7799040347667601 -1.131170462654484
Ni 7.346488176694796 3.9286012564434993 8.021705070380605 1.2247745585648908 -0.31829023007201956 0.2798640648853374
Ni 3.06216286265194 8.680904449120769 12.099948625259024 0.4296285100373956 -0.06642342173055658 0.8579825242377417
Ni -0.07622306904587489 5.10310663469428 10.13670592938748 0.06971032001194447 -0.23476742965701505 -0.18257017882816942
Ni 8.98238327605029 2.5603876447676677 5.812987442707506 -0.002572645823182666 0.22578193832895307 0.4207422632913593
Ni 3.5991751554564617 2.9788222142887113 11.355494114204058 1.0388820002317076 0.3078600358776311 0.7577082153960112
Ni 1.387668267728258 3.54203222894369 12.576642372049946 -1.5399820359465286 0.8652145232098066 0.7509850377395647
Ni 3.3762986063293887 8.594629655910289 8.35402886721058 -0.03788186264743799 -0.17429199797977724 -0.9302765458164624
Ni 5.902551758557295 8.108837326417564 3.3602747128079873 -0.49041890185189085 0.526605379074777 0.5134505868603738
Ni 3.2232492372162476 8.816786337202165 3.358061347021039 0.9490098605599077 -0.47501310881978187 0.01978463882609496
Ni 3.692694188274286 4.344119905619448 9.152097129935648 -0.3764933207753129 1.570546796107263 -0.43482033865098024
Ni 7.402555857580315 6.4836673465813695 11.576362323193447 0.31896951552723135 -0.2435174079355032 -0.5985687567869562
Ni 8.241092538569752 -0.09095028923881718 2.4286527421520585 0.19448595642914895 0.17797561747895155 0.7519767122288726
Ni 4.881041075913187 0.2714494035005906 1.2741642458452436 -0.4915314181897793 0.8442263509939137 -0.11278658237612835
Ni 6.08366686099197 5.762523796235216 0.22038252600690958 -0.30627469366838217 0.4417569178698134 0.8535712825439236
Ni 8.226576722601829 -0.10178566699616633 11.270098653222645 -0.5758918840147308 0.6500299007807256 -0.04010998064700834
Ni 0.39649773627485513 5.0750135646195105 5.687329500336094 -0.5614098883484718 -0.06716801320606497 -0.05385072727186854
Ni 7.36053926785772 6.377864999309836 2.450578640696953 0.4066857851982932 -0.8647468395447687 0.35834030401537
P 8.848733889483107 1.9002870643958496 3.441775597678483 -0.9908347670154937 -0.5702459985828631 1.3861349360846644
P 1.8242088801421217 3.292347437143906 1.5998306320373248 0.6463740491956933 1.570964857481288 -0.9072584876547343
P 4.916460395855005 0.9362564615544129 8.063449203795955 0.3971829879141805 0.6099116926036011 0.4840721336982566
P 8.616207466463987 1.9574208786575427 12.325392095514887 0.7142838256637891 -1.2273688016546282 -0.38599149007373523
P 6.2978503225902305 7.813026319658818 1.0954046603143404 1.1262236601721702 -0.4006794311032132 0.5445951307839781
P 2.138016582780747 3.276774600050886 6.010130994789121 -1.682308793873619 0.5862989382806677 0.016371499379487932
P 6.923333461115131 4.220585117749309 5.757626872505673 -0.2619470753956005 -0.12240430797155048 1.9430291959509698
P 2.2273166433492624 8.927983137112125 10.135132243626236 0.9849340852603424 -0.21877593932476516 0.5988297237578267
