# total energy = -340897.3323405971 ev
CRYSTAL
PRIMVEC
9.00523364968559 0.00000000000000 0.00000000000000
0.00000000000000 9.00523364968559 0.00000000000000
0.00000000000000 0.00000000000000 13.18006970928818
PRIMCOORD
 96 1
Ni 6.2328372572835145 1.9491917865391495 11.469955045182378 1.730876675479993 0.8990957493382838 0.08707889319737906
Ni 4.558305091117771 0.31823324349146476 5.989300624253471 0.2504637573463493 -0.21338022223049055 0.225929776760727
Ni 2.810380272294872 1.5525112528523124 4.641414390672728 -0.020689410028551465 -0.2769692598360456 0.5625846253828634
Ni 3.5916022849713864 4.192026225574561 4.788002481374378 -0.6414275038236953 0.06268066685867268 0.10450171665951678
Ni 5.0289816281032405 4.630211880254874 2.711719835086708 0.11002624602217181 -0.028824380430860035 -0.6118978697956946
Ni 7.287836377454859 6.165910362246953 2.7194436238209465 0.29260028150508316 -1.7105161095457702 0.4704455440537575
Ni 5.1746232687687845 4.625970415297632 11.416866492395908 0.3600732275460766 -0.8914791133332904 -0.8011472604162525
Ni 5.571060661152339 7.885261575317563 12.436040992837103 -0.1974365544170406 0.5408968559967846 0.012120180302301707
Ni 1.8945840508688432 6.389987586304378 0.4030292232725173 -0.887503159404678 0.2126387160787757 -1.1621412000043856
Ni 2.582637918221317 1.5181202662881803 0.5159980759171172 0.17660599082493456 -0.40517474787040547 -0.4330100249151188
Ni 0.5945138058867464 9.027926643172025 4.715789514299809 -0.16587677733288853 0.21209055688478956 0.6623560264462464
Ni 8.964853988054145 2.247733286034859 1.3395032617576086 -0.6592133670522067 0.30003796873005106 0.492054637683101
Ni 6.745793365339579 0.6373697118984525 4.8390756629136495 0.568580437954982 -0.14450293964280275 -0.6374752040441667
Ni 0.6937064523920927 7.2578399448167 2.5531899043005604 -0.3029561708181105 0.025896151040471528 0.3395972190799119
Ni 7.446049324023395 3.6507036321356705 3.7710684830167516 0.8237899375164328 0.46411651651193614 0.6677005785876113
Ni 7.407966191742768 4.036622911843943 12.730760671254568 1.0738839702281893 -0.8404360307135462 -1.0291683724883696
Ni 7.891817385272706 8.688330284355583 7.012482453582083 0.22440022749007804 0.09416331084798621 0.007248454032297194
Ni 7.087262812714634 0.36068841661442935 0.5702645132394839 -0.29186777421443283 0.7334801960865819 -0.6602924590489982
Ni 1.9635731443665698 6.585049948170225 9.067492036879324 -0.5399689448658765 -0.3180963688936586 0.21835427840631425
Ni 0.012193086097888243 4.872848890462778 1.3598145658150582 -0.008519350324920811 -0.5011342313868661 0.39839629149599126
Ni 6.322538387727433 2.0399015031300123 7.01162515535718 -0.2939429115759067 -1.0266450918458836 1.1262583700648474
Ni 3.570160824115351 4.4668389349167 0.44268556983770957 -0.3466343284323514 0.15110681811256554 0.1662120491851202
Ni 5.965192713771449 5.520865489874918 4.7548019866729785 0.49380427338435606 -0.039602959103602765 0.5477802133801791
Ni 5.075745805434359 2.852920995135658 9.415235430402385 0.49529191367347597 0.6561265005967668 0.13822841948800066
P 0.14646922162004614 5.579840763770834 12.36100758664447 0.2306068705214222 0.7203727121703465 0.16977354128413344
P 4.0335791429361985 6.144387854289823 12.306652898034246 -0.9687891000693638 1.4062355634892811 1.0130979492890682
P 2.2039498409773017 8.337486388954012 1.4386436779089167 0.7526344004175296 0.4216025544091255 -0.7585800764780032
P 6.39017669620693 7.700086959785159 5.737547616219207 -0.41377174551079704 -0.9507227294859562 0.9323501405160395
P 4.563330011385587 1.177002023017865 12.53097776601168 -0.6171940851976273 -1.189516506693545 0.2865669308268097
P 3.894547343626526 6.222976526650437 8.036125350863584 0.5873978277718013 0.7286861171320482 -0.35356936498928787
P 4.691411446814143 0.9532850082986348 3.617863346772466 0.14420829122051937 -0.06517849357986195 -0.3698789007825888
P 0.25695443087779424 5.340760820777603 3.670003648476139 -0.335734393690396 0.45613735496120156 -0.3156903305553273
Ni 1.4559751502161513 0.8935073681018905 2.7275366271268346 -0.011048801614993876 0.2646667883196087 -1.1015917205561025
Ni 1.8274500354628191 6.379379421294546 4.820557300837063 0.40925174615325643 -0.10193961235929541 -0.002164354641170466
Ni 5.92932486892072 5.514111564783768 9.022627063283837 0.7245227297829782 -0.08124840255853104 0.8498768644114718
Ni 8.576341201110871 2.4185805751405725 10.08719514452432 0.020374192780977816 0.24018397268689604 0.7342687534261483
Ni 2.403784976574228 4.943242800379464 6.99308157862692 -0.2000858191144296 1.0014953320531332 -0.474251290953093
Ni 0.690334892986591 -0.07457954242650729 8.946406767321852 0.22612672326288152 0.595438952908723 0.38123134968093053
Ni 1.2981134077523546 1.225639288907595 11.300723294958466 0.7102816464829316 -0.15710571600847784 -0.15400959358165736
Ni 3.898689751015764 6.823274393985243 1.5546418910877338 1.1941699463051563 0.661777271124641 0.2857788877078756
Ni 5.548070300142068 7.7407095679000575 7.970699628243947 0.460551167758181 0.728149785012604 -0.04260935003009436
Ni 5.29803999326772 2.5297141612070706 4.95842112136764 -0.6224337363300119 1.2855297262660763 -0.8461127693833492
Ni 0.9810661535068957 7.3760156234449035 6.902639317469667 -0.9012369640510027 -0.4961210944429908 0.2925051506881156
Ni 5.049774712150525 4.617775652853705 6.9375138850703255 -0.04835576559556833 -0.4077227111032397 -0.10918960905348937
Ni 8.233484947783767 7.186014202780691 9.155772141484062 -0.899000361411 -0.7308486720010059 -0.16591560099062394
Ni 4.740805152314081 0.43486722615219514 10.345616527931913 -2.0682974557338767 -0.506662874514579 0.3533888735473656
Ni 8.350075705323915 7.122266155153697 4.869020765721114 -0.6885136586782207 -0.9153790598793398 -0.033257219391233044
Ni 7.323326002500485 5.935853663175497 6.934864545387904 -0.13730513634278288 0.550359286961265 -0.05881655591757612
Ni 2.3185504419239233 5.198469126957269 2.5488538843920425 -1.1073414785556863 -0.7670539182769692 0.2622100992490001
Ni 2.2835831204186796 5.260127960422735 11.260893147387595 0.5463946458865622 0.4689139379005795 0.5924672718749088
Ni 1.002777771366577 3.123960511660208 3.6770151232440975 0.1421868899151164 0.9355691616739694 -0.16280585171704864
Ni 3.6295863596840103 2.7768087619751323 2.6171270618301072 -0.5006570346401313 -0.768450798624496 -0.5613589805058785
Ni 1.0939917810309123 3.303695966185874 8.119278776062469 -0.217265930438142 -0.14142764315158868 0.22528083032281848
Ni 3.5926198763517867 2.743921649397963 6.973969771665658 0.26405178044342914 -0.6169935391510472 0.39594885839676325
Ni 4.180346437783601 6.775726761343552 5.881961843564853 -0.25953358085810146 0.5590038500101405 0.3127723855775839
Ni 0.8670562958749132 7.459818325975885 11.211626415679369 -0.6493917529760944 -0.4906626424315807 0.5186812391316938
P 0.2617145972820363 5.44252896405104 7.9836293424384435 0.5218493524470303 1.0987519371144625 0.02460931390824794
P 8.500760276724183 1.5379587955892493 8.051388321046236 0.12658415038085294 0.574454894457888 -0.6621925042851886
P 1.8558705522463754 3.2671347183591184 10.374388248820207 -0.8906149655607823 0.7138408245890997 -0.5064803261901277
P 3.8148240118505994 6.103342000202545 3.77661750787164 0.5962172258356442 0.17791545366497746 0.3438580512387949
P 6.891768199642953 3.9353770721108874 10.315091488089953 0.3419603199954498 0.21831339786604984 -0.16929403054455358
P 6.335460897735166 7.954160616480741 10.175646348564705 0.40292708948680933 -0.6302953984662758 -0.4736941328980422
P 2.472539934002128 8.478076093651376 5.75564363284676 -0.37885102237421203 0.152641252479221 -0.33827232962090126
P 6.8140260192270965 4.006590458271965 1.694693082824497 0.4649297564418509 0.31570087207828856 -0.6993475160689311
Ni 5.30070554237036 2.9031701978138087 0.4032336420719427 0.09996526224174396 -0.03315694636794289 0.3948363420588748
Ni 1.4744358787986263 1.1287699926336041 6.89520639777602 -0.08260800191021903 0.32449430200020246 -0.128413747390424
Ni 6.750061845997185 0.9371296194806057 9.202732632904498 0.2666660781378246 -0.6263461840105405 -0.3994237043192411
Ni 2.6302035613299175 1.7337505813649408 9.197369115858779 0.9980328274258295 -1.5422862585996728 -0.4067063540235834
Ni 6.355281416569325 1.9485073887965796 2.406574797898545 0.2494707973054607 -0.5872813567985951 0.5772797655011929
Ni 4.28067374370426 6.913038561063346 10.206908917026615 -0.23748045771280388 0.5832694074257245 0.34657673572153863
Ni 8.032344053335885 7.0674242834135645 0.4520735257144072 0.3245827479489507 0.1856850703080673 0.20788783165735167
Ni 7.712451145318689 3.862137508422464 8.205832577413911 -0.5270668920922278 -0.5003279334354868 -0.1475298993945846
Ni 3.159909403612032 8.332479479153108 12.36323458087786 -0.5329745158259144 0.14298496033637956 0.007154608766910259
Ni 0.15624620358199393 4.93474185999807 10.238330878120678 -0.9840321422713635 -0.5193736372130281 -0.4991423977678178
Ni 8.43923652176054 2.1527640940198447 5.848958563476116 0.8207953736644832 0.4732354480940689 -0.5104202846744822
Ni 3.5329692099467556 2.9163898805255517 11.679571665357978 -0.021396206287588957 -0.48786502508178564 -0.286857465484035
Ni 1.1057706263898768 3.463070587870088 12.518469496742872 -1.3391223147805518 -0.09454486255712105 -0.8424476618269363
Ni 3.0771513081618154 8.422396735199943 7.830793420765808 0.8734798485423925 0.30561983369320267 1.148245672969216
Ni 5.338896737452446 7.757945584732671 3.793750865042868 0.9966634578821286 0.23855800704769886 -0.871893477891879
Ni 3.056196129912343 8.230486205043297 3.645383340210536 -0.551306995586515 0.2897450714444752 -0.5968355761459334
Ni 3.5417042863979753 4.576351578961322 9.261120765579157 -0.5514982856617148 -1.1343755998553429 0.42608630121209196
Ni 7.222449377339078 6.427242237107158 11.414217152713485 0.3842950762079188 -1.2052452302827112 -0.5062404422651798
Ni 0.5650630903959535 -0.0037903027611529997 0.03690524774473087 0.22568577907072102 -0.8676084773632801 1.1036704574620022
Ni 4.62522298092088 0.29329505048490495 1.3895084226091328 -0.02987776139603886 -0.3165796751388161 0.43700500500712486
Ni 5.852177033912884 5.619346722937331 0.32693410005555607 0.010793491071078186 0.7018191175378751 1.1655401983836056
Ni 7.931017166501737 0.04250650295365738 11.31224278959393 0.043177563828738545 -0.891212232825149 -0.6847192246327949
Ni 0.184986406153198 4.644260044444465 5.81922508365484 -0.49132958659161835 -0.27446346269505634 -0.15749163859298684
Ni 7.660022676144461 8.604464545190417 2.7407428019883953 0.4632256292665506 0.2701488944801025 0.6064193631796266
P 8.418191291176518 1.5626511457224912 3.5234803954553637 -0.3489274953419023 -0.4576969861388376 -0.028792241641343964
P 1.854033484621583 3.4049868320862036 1.295164193795886 0.5930794515376109 0.003886736648915887 2.107065320530694
P 4.646835541212557 1.1770920753524137 8.204289980923093 -0.22333116279561538 -1.0881445939122616 -1.0338578075442388
P 8.38190020035341 1.7401623075848052 12.511009561348862 -0.2608957513129507 0.699285552482744 -0.6576380521452867
P 6.085511637961911 7.4912285802664575 1.6071252921860368 -0.18052640892526328 0.9747172926283407 -1.3045106382439533
P 1.8000381048262077 3.1099393631709815 5.785522997450005 -0.20296571176538591 -0.05634624000021264 0.42086593335341715
P 6.869552288709799 3.8005056906573627 5.992490277943184 0.4147305098796406 1.6511891896506787 -0.5236977185096787
P 2.4497747038282274 8.512386033114415 10.174420736291495 0.6045324305695589 0.624235565425441 0.13068685969531688
