# total energy = -340888.10084773577 ev
CRYSTAL
PRIMVEC
9.11251801771884 0.00000000000000 0.00000000000000
0.00000000000000 9.11251801771884 0.00000000000000
0.00000000000000 0.00000000000000 13.33709122637225
PRIMCOORD
 96 1
Ni 6.832839209776472 1.8748185213429993 11.587678089186051 -0.9844751433460529 0.6252562933804715 -0.9283109374496593
Ni 4.758711699467666 0.4169314049215819 6.050504954244983 -0.03678631559041407 0.38651856622179886 -0.6381568034922236
Ni 3.138396687306544 1.748336774504786 4.754646605284343 -0.20937418639489103 0.9960335376076136 0.6584065548801951
Ni 3.4236731690440876 4.326732793929806 4.456269056729126 0.807750624665383 0.5489518650907772 -0.72844160522141
Ni 4.125929352047467 2.7666150742480236 2.305916246411172 0.09565866444659009 -0.5638444659318934 -0.06737010191454203
Ni 5.052563060439701 4.979243742351787 2.2649846390302004 -0.20002154153539745 -0.34130417446868966 -0.2549683300849222
Ni 5.106445378094915 4.707262424060709 11.43934270219889 -0.6771059310619113 0.654313615757744 0.12461082870456604
Ni 5.728411166905824 7.8623532439470525 12.340157002702696 0.32940150949383273 0.8156253994277696 0.6832714364426749
Ni 1.7834017429365903 6.724318235489997 0.0539807328472772 0.269228182438046 -0.2831260234660608 0.5033065564478364
Ni 2.7002212696757453 1.6973704625403676 0.3882989627933146 0.23010627673591982 -0.3633783806599097 0.1878075159677088
Ni 8.179869813603442 0.26668330045161476 6.753862840648416 0.3173394361229761 -0.3658913768897505 1.3181467409701493
Ni -0.09864391626068748 2.293948776805796 1.2330084025544557 0.8179363069491333 0.7863497903921038 0.5906528443739892
Ni 7.18032685042356 0.7605963443583943 4.682052643612012 -1.2544499741421362 -0.5759232514732984 -0.38624320107322513
Ni 1.0746027721644908 7.8100838419395595 2.752708460858269 0.2402266529993734 -0.7724254670015278 0.04933227057622472
Ni 8.050490286110001 4.05927128445946 3.5477328086553843 -3.4207123738582763 -0.0034267662933618404 -0.357158625002443
Ni 8.007798140293215 3.906818861937608 12.673650549789306 -1.032518777017841 -0.9119101274941327 -0.26963750206132275
Ni 8.59497233620583 7.324805819884646 8.727071950257715 -2.8399749888257864 -0.6816022762703681 0.752643142168278
Ni 7.171660846011231 0.9231253890454982 0.4244610783662805 -0.7141447289827637 -0.8467550309530386 -0.3967387012879103
Ni 2.1071512747570544 6.481414961446811 8.755293417833935 -0.9503288364816471 0.7607439168985415 0.892521952775508
Ni 9.121356925983163 4.956107059698889 1.34320516886136 -0.05360107315490768 -0.6227209285531276 -0.18686212133530397
Ni 6.448746585192128 1.9113870552091194 6.730589470228761 0.06904131896937787 1.0472409137193641 1.543108240280336
Ni 3.6784227162061254 4.183092176104823 13.47886451497219 -1.2834512464704928 1.6963755563793304 0.009681746064138165
Ni 6.084555699447458 5.79948880561894 4.588492601022869 -0.23084649733605406 -0.2713987077268035 0.32258320102041865
Ni 5.193879986229833 3.2328297090993683 9.049816371366632 1.393385961220123 -0.7434763880673453 0.5075082532340098
P 0.23551211086879953 5.533767787045288 12.471300713639067 0.7052854788199208 0.2151581400665198 -0.623459863601681
P 4.086062086743635 6.356710155576425 12.629371914626368 -0.10801307224688494 -1.3968356103316204 -0.1638731166392984
P 2.3807819587669874 8.785733783490494 1.4187998826398733 0.5105542391491853 0.762854535483641 -0.8087348429555233
P 6.694848352977404 7.8818722570398085 5.8986220640846145 -1.2381131846553257 0.6878528851657703 -0.5422780526150274
P 4.753134838584021 0.9412957495062617 12.622209475648354 0.5009393417672405 0.8696111096156055 -0.36286081759354283
P 4.371393243587881 6.232260500203984 8.064858904151393 -0.6656868905916922 1.1812429538308429 0.6742072693578776
P 4.988246909922115 1.2521510686627435 3.6257815234730573 -0.1178413711912164 -1.725155970946132 0.5815632233678952
P 0.10319744139721881 5.8770089944051565 3.2705883377880443 1.0952066429653653 -0.2973938462389846 0.08562467724935577
Ni 0.5678264981541941 0.20384975657744103 4.678371186427385 0.6155046133103464 -0.28400945451227866 0.7130113867092688
Ni 1.8584615519211984 6.454405458735827 4.737094984781095 0.9855436938198834 0.9349058170583576 -0.9417840322354296
Ni 6.1311206653223325 5.590675460604699 9.21378246010823 0.0682116239792309 1.4398987600696815 -0.040395115987594946
Ni 9.070481739196582 2.7261737203238168 10.32800281458928 -1.2815524867858832 -0.3067513761944846 0.18401359614291535
Ni 2.4888655321998434 5.3517452443152225 6.731230080228959 -0.5768488486113613 -0.5660741265933606 0.10049670926518176
Ni 0.9633844926140304 8.841602630022562 8.865697949546307 0.7701896356924736 2.186723495783969 0.05004986546853961
Ni 1.672447726401858 1.3164125440736283 11.368136576985023 0.21724510450253554 -1.398910490582778 -0.11264645725383825
Ni 3.8700042900913267 7.131474642584968 1.357649420800355 0.9092318093310212 0.5589817385229534 -0.15563915876528034
Ni 5.9699475632814485 8.478687496767614 8.060257993922386 0.18908381157697113 -1.4130862678625278 -0.3498348376475201
Ni 5.566955576813643 3.0176649391898662 4.771971324094776 -0.7455276141694193 0.27402817492985065 -0.9289159180235099
Ni 0.35475760733495043 7.501579552371282 6.453885133970376 0.7611478372051794 -1.1574893030546711 0.3940670679930181
Ni 4.874130849716427 5.0440155187585605 6.389240021560796 0.9451064117404434 -2.46104323381231 0.7607603719587737
Ni 0.620083142636789 7.252279290843916 11.117319081246665 0.8526395147582736 0.8698754190205857 0.15188997613549324
Ni 4.9105353582624405 0.29376479205309075 10.400956720714067 -0.14521899187322088 -0.20536892189023984 -0.055544055813891435
Ni 8.199944690281006 7.320459148901805 4.348865277122936 -0.16676817879890635 1.3462956926005394 1.333654092577129
Ni 7.389942097002769 6.073830266016005 6.8400207850418315 -1.1671723346703897 -0.6938106454111018 0.713291636953849
Ni 2.3435117610315195 5.594384255342679 2.3284423903725604 -1.5864758086326936 1.1556332236825386 0.1507705178190694
Ni 2.401230448673684 5.406584376337727 11.17406819699664 -0.07797924488895604 -0.30611502816206637 0.5736347125494379
Ni 1.0824121999051501 3.679561780929092 3.8040187263157597 2.0309192721957343 -0.49580536297478484 -0.9718502554931907
Ni 1.7597820968411546 1.3141708646988302 2.8686479358724815 -0.34867321323925116 0.5111419933318552 -1.293930548735262
Ni 1.1465552125848462 3.5733918362308197 8.402820318707366 0.20858537194500854 -0.39059582161496603 -1.5852956722816633
Ni 3.721743625749992 2.757757706962235 7.099413160014682 -0.22251895130696517 0.3184596657703483 -0.5965833509258113
Ni 4.247763714815976 7.235658058406387 6.16615100618656 -0.11505146715090508 0.2644053071281059 -1.6145805372887099
Ni 0.6996253991192155 8.974280888953713 13.253640436681227 0.13569793975666308 0.39977491701107276 0.31060314584040705
P 0.16570020087584308 5.454115269097678 7.845143342860695 0.6084109396883587 0.9411996204868694 -0.7169302621477007
P 8.785824908668333 1.8625166223349596 8.122728859588767 0.32415260239006755 -0.36402475599465695 0.35745044521124886
P 2.194175819591704 3.353597907287181 10.316986691840524 -0.49064721581261306 -0.6036585126050378 1.1145369678628612
P 3.9566734467324105 6.2897969374904745 3.472045147195477 0.7911937487479664 1.8886891877475083 2.711654829590433
P 6.81076869170427 3.880620373309376 10.519310101689191 1.2735417006662648 -0.21049750136605683 -0.0834343544662563
P 6.616599162768489 7.9505988661647224 10.194845237222703 0.6138570504045944 -0.2829442464725579 -0.06567214538682883
P 2.1934103680978705 8.55689112438761 6.094437313732138 1.2426977187022148 -1.583695160563763 -2.096954971569569
P 6.773872107197936 3.9363798696280377 1.5609196212467507 1.3450340522792965 0.44950313747413556 -0.515796461384731
Ni 5.537458356747699 2.9785995754510033 -0.01853303866855606 0.877140071002799 -0.8095773934614767 0.4400355643033325
Ni 1.6454291111730899 1.1990342025013643 6.969310098609213 -0.60707396604449 2.2465299264186407 0.3694567256435056
Ni 7.027573714814845 1.170575809462766 9.273626186897562 0.22075877408274885 0.5560185421295715 -0.5011632848525884
Ni 2.9102283545196546 1.5070464161093213 9.25615475655081 -0.05827739558465447 -0.014727278907845606 -0.5767691444133616
Ni 6.823043253158959 1.9906295098564613 2.555919994311443 -0.9008088753746486 0.6588829802959814 -0.17823375623634466
Ni 4.090016919461775 6.965772619205569 10.407505887245236 1.8656289634939354 -1.0001277622816453 -0.9080642713854813
Ni 8.245461716610754 7.101667596914377 0.2929692692505708 0.3952803715748289 0.9349595531144286 0.3227009575452055
Ni 7.5527554522447256 3.8014052562153853 8.374626188684497 1.0159073937134053 -0.38089222117395694 -0.7660180208132873
Ni 3.21926117011939 8.385931178246995 12.250411460057824 -0.37737340938742103 0.8501072352547231 0.9342154758595523
Ni 0.014913546604857332 5.301371246006746 9.983493144753915 -0.09177269912862258 -1.3289723708307435 0.5000340563441517
Ni 8.742157723448685 2.471068784968213 5.806876323786213 0.4899728154534078 1.354554590175222 0.2829391042662353
Ni 4.072630235530413 2.531749040890091 11.213385977478111 -0.3981939456771981 0.014415661204697753 0.7933388201154272
Ni 1.3854398662854053 3.449315794087512 12.413030718670987 -0.35895916854629145 0.7841005893466109 0.7648905920770632
Ni 3.303615747243406 8.51922908838744 7.921618325857116 0.5747168898700231 0.204197527289958 1.3106856567064136
Ni 5.4884421235889995 8.082921736902309 3.7482555849899843 0.8439584420445078 0.1403680915388228 -0.10036378323174329
Ni 3.2141034850537973 8.611484218429954 3.9294406873357253 -0.7999792082500804 -0.6999506968705688 0.0756894204135148
Ni 3.3938205607845786 4.512518806504553 8.929169369665344 -0.1009458809874584 0.13390279552945328 0.4136627307367586
Ni 7.367889803966135 6.199236735755736 11.483194871529546 0.11662292540308301 -0.2635545290920364 -1.1914939421348898
Ni 8.403645912818572 9.176943284463933 2.4001433253020847 -0.7201508259675274 -0.2102146800183154 -0.15607084698606022
Ni 4.789202183972036 0.3022266760670651 1.4458339891488736 -0.24164204528966124 0.5583315065334643 0.16682294329624173
Ni 6.295419360963038 5.640903658628636 0.15234580606378242 -1.1242796490719218 -0.23628309497059305 0.9528801421485912
Ni 8.358930788053796 9.137668332816046 11.044631260641161 0.13710150497240906 -0.2102622454267992 -0.14575506688234896
Ni 0.07344871584044425 5.157174764596956 5.558499160310339 -0.19860872034827085 -1.217269251326781 0.3684820204350621
Ni 7.02480350940859 6.462816312650212 2.58482125571433 0.3808325715806151 -0.4010944071534447 -2.1598019888027773
P 8.72752301988801 1.9146037739867772 3.657976960054764 1.0742069007852468 -0.2619902699287101 -0.872227207082214
P 2.248841813776318 3.7009215226141623 1.7263263990499573 -1.087197913728276 -3.6605083670781347 -1.0859727830719232
P 4.903855882726964 1.2749141380865086 8.29186903592797 -0.22500983604961894 -0.6649266153869 -0.6568070716035591
P 8.813372049928557 1.7302028641151574 12.484210417583283 0.9508960218390268 -0.06288455533936266 -0.6701014747196201
P 6.553968828040892 8.121786625249928 1.2680278083973415 0.10246514584546225 -0.4774654270150164 0.6331079282144064
P 1.953650912690073 3.501822121557381 5.757515637455288 -0.4549222516071778 -1.3203905426990035 1.2421819554080606
P 6.948759548503339 3.9902348497298994 6.009279923791375 0.7131895641583459 0.9707233409775992 0.17407782508644215
P 2.5211785202609605 8.272516781910657 10.179467863462653 -1.341656136945999 1.7308039132605288 -0.04033855171804666
