# total energy = -340868.729625477 ev
CRYSTAL
PRIMVEC
9.20706128433889 0.00000000000000 0.00000000000000

0.00000000000000 9.20706128433889 0.00000000000000

0.00000000000000 0.00000000000000 13.47546485364677

PRIMCOORD
 96 1
Ni 7.015946295171435 8.21650102899515 8.191694444238516 -0.3609810840723267 -2.9714102966513534 -0.5159689824068533
Ni 2.2185150316553135 2.101843153231953 9.953638680951302 3.4805897669401995 -0.23481216685202141 -0.9085427536837964
Ni 2.177700129741586 6.87679077351024 2.9102424537777036 -0.7821990014485238 1.2920639278401682 -0.021606779636498274
Ni 7.935713286233374 0.4323341272687864 4.551405700692417 0.862766061669314 1.684358477313796 -2.97013142993893
Ni 9.112578251813456 1.8880183659446954 5.778980396764319 -0.14626748774239326 2.6050730904734363 1.0431263773303583
Ni 7.307368193518674 1.1324408957100764 7.9243011339838665 -0.1194357122615298 4.13511344182622 2.6537687559069263
Ni 1.4701466902721383 -0.02168723245156455 4.8346333146491265 0.004765025488811149 -1.2319811036156587 0.5387073045446336
Ni 2.1465066066908958 8.274763311717926 12.276390534290819 0.356980704663682 0.0035758902767164223 0.9336979127931854
Ni 8.602497859094658 4.587574719568548 6.8966218624414335 -0.5710065308979714 1.0209765807061966 0.013827135691079413
Ni 3.9582260571925367 1.0841130319281778 11.519838036284339 0.32501160795625317 -0.6397220910968144 -0.5659558558479414
Ni 4.622506309431097 2.2740888525331076 0.06502118628579666 0.5831539648937828 1.1339009742117696 -0.1364301899369973
Ni 2.4308666891644983 0.3574153502865635 2.6125155599803134 -0.7007791063091351 -0.12888117394514578 -0.7501977659515789
Ni 8.168108715785461 3.875675547253785 1.817637749385048 1.8713095588184805 0.917657314390555 -2.1178279583638364
Ni 6.6631132992007895 4.70419135562523 3.792845142657201 -0.7919223993838749 -0.5087184714920272 0.7212507438999256
Ni 3.819383575609181 7.87948576401656 9.51737037646895 0.08663177835763144 0.8884434118307603 -1.337875072637012
Ni 5.583401242484604 1.0769039030767344 4.619429309607148 0.5337707864749646 0.307895774211573 0.9382598211322549
Ni 0.7868372841253224 7.475700891846824 0.5438113818122181 0.3134002489695699 -1.4182775822554798 1.0436801929512993
Ni 6.106196586600392 4.453216076747202 9.283274402729301 -1.2553583448890187 0.2030976093575599 0.7673909899014139
Ni 1.164997063805484 4.94422864590107 1.2462272811806372 1.3431306646089967 -0.39404341384393426 -1.380933337279067
Ni 6.589723815069428 3.358966070533661 7.210976708608818 -0.9672412959662696 -0.4587760781356292 -1.5901368024240485
Ni 2.6341217702940845 4.9880726709209595 6.186558578112594 0.5248470016227735 0.708338920934264 0.28591464195479144
Ni 6.938680638311521 2.282255515740298 2.8718508503489053 -1.7052296643358502 -0.27272822517150447 2.229597155219044
Ni 4.356606384488969 7.965507335994896 2.166045831784808 0.6065751720312005 -1.1621208882894114 -1.4430442476771987
Ni 0.9677634006437705 1.9307759577532566 3.7907155494217744 1.3153020724325024 1.2633043392089727 -0.8543696100755028
P 2.1685022756897445 4.512297787909031 10.381875666024824 -0.7708072146718145 0.3152704694090893 -1.0067293267585629
P 8.827509225634156 7.718196467439822 12.189595569178998 0.1036987611422472 -0.2973617074494685 0.15148168495348105
P 2.6632252904721336 7.418101517524179 5.542903063473162 -1.7471620429035781 -0.5178590003407145 -1.287194515563009
P 0.8692671815634936 3.8829675396552457 5.636449566499114 3.0144287091944086 -1.3832766407002628 0.8576382535244456
P 9.033029243797529 3.9227052154187576 13.107800121970067 0.20006962116451352 0.3814126124538012 0.0928240232112724
P 1.8387329678070494 9.137428109757321 9.150581317263288 0.3683925460450494 0.06342680099607786 0.051126900582802275
P 5.7505646440514075 0.14991121045334932 1.190889161067335 0.20475648511722155 0.41964748756528375 -0.6857921459819997
P 8.819268905938062 1.6231312177249917 2.2604688470287138 0.4902304399901686 -0.8861458740458351 -0.7655979025567331
Ni 6.443036917417836 5.751614249018285 6.359489282760552 -0.8120934750151111 -0.1145902112437704 0.7489188992391554
Ni 5.339285224135725 7.244898283867277 -0.13682889731795214 -0.9086913634465189 0.4734290521621136 -0.06121179562263006
Ni 7.233242144498276 1.8193244829809412 0.6766140313054751 -0.6149682811909022 -0.7069371554907309 -1.501833549901265
Ni 7.226705131108079 5.835766787590689 13.296322063906704 1.1177192222455847 -0.8448349311121902 -2.542416077763847
Ni 1.959234983653399 4.60169835131582 3.7058872125636784 1.645450487394689 -1.172907180271638 -0.674216011108626
Ni 4.43177283141513 6.243013514738897 4.849833251840503 -1.662050814955531 -1.7404941439650994 0.9431374609395305
Ni 2.0502744039382943 3.6773646579418564 12.460438765232672 -2.007570827277781 -2.468548026829787 -1.3744055634628782
Ni 1.680205789564197 2.3726320276250608 0.9662893501595865 1.2210138059708777 1.5779490021086051 1.971836349990649
Ni 3.8029029362169924 5.143174822429793 8.712359274412767 -0.06652369475384672 -0.25532957007908286 0.07800469881025275
Ni 6.570904582154549 8.666330413790773 3.2209862905765894 -0.5649338423413303 -0.3092191210086868 -3.59462873366619
Ni 0.9410260951717505 5.739700311938122 11.834718605641275 -1.0415829441026383 -0.2383831720327314 0.8036106343550805
Ni 1.5763685543322954 6.051027876411569 8.195103818968644 0.9225465241620563 0.8602299255110217 0.5907351196751504
Ni 3.5975854733981047 4.880856444260603 13.255207932506805 2.329134843005066 1.92620286842225 1.193787623265073
Ni 6.126028596237696 2.319461249697748 11.448673898823978 -0.3785951976096641 1.1502336499335224 0.31996119001653933
Ni 6.851554218999631 9.195119554691095 11.99486162310945 -0.4889243195842353 -0.2823089268814041 0.5792818835328861
Ni 3.5527839140224677 0.6977792233919352 7.93927181535353 0.3264984769144248 -1.4210775135981204 1.7718459188035034
Ni 1.3583821754219823 8.433493045305264 7.114237196788894 0.32093923765909244 -0.7821223825743175 0.34924451236168885
Ni 0.4292276648492755 1.2561193476403956 8.039799112115325 0.8048337081289042 0.7774871977951513 1.2128320414910339
Ni 5.934070579093706 4.037729029902899 1.5252067571398291 -1.9408625273169544 -0.10004033845405351 -1.1932029544061966
Ni 3.3469600628423675 6.426510242720083 11.107137966838929 1.6887352662252528 -2.491038751733136 2.238150186995378
Ni 3.8471981072314168 5.381959952394271 2.193051062735215 1.1462497255851096 1.2012602774930345 0.26131072736318217
Ni 8.943297226190673 4.017169662437672 3.9534181298793514 -1.7565727946945167 -0.29608875427431586 0.26695841256726277
Ni 0.3187834425627174 3.0426574859981055 10.075712342129632 -2.2876570354762538 1.5796757549917246 0.38811162174053154
Ni 7.115621938780282 6.151237529564966 1.8890044421898928 0.532195728678361 0.9803107275557181 3.0644171252973935
P 6.95538224717042 2.862263537611986 5.039729808001303 0.5715536616506931 -0.4596337981502342 0.07338699753258329
P 4.665779496661984 4.2323847159529855 6.167019353018681 0.6617178786416151 2.4330727167413126 -0.4358868322422816
P 0.07711558176377381 5.850553327738094 2.7533200662868396 -0.8193666116377566 1.4234586122357873 0.5048862422301305
P 3.262568140681026 1.4150976718777826 4.527378954012051 -0.5124601979226465 -0.1854883809162289 0.3009345124023914
P 5.850139009988012 4.192223515378277 12.66990124696461 -0.6319887270082987 0.03648678207212425 0.1252875430566165
P 7.404613172993701 1.1825917575923401 10.180471204178943 1.4940387364471948 0.1514821991741133 -0.15714222567336808
P 4.149162090552989 2.8276818160717285 9.119884054806585 0.8418192842143181 -0.5954047572366779 -0.4276374477492958
P 2.1102307859058547 1.210995541125805 12.686705054201864 -0.9680108271424427 1.376198650807559 -1.5360785871270641
Ni 8.604781210250671 6.093610534058983 9.270243649136136 -0.9568031313520813 -0.7215219952834412 0.7452262808789165
Ni 3.9428042298283374 8.599487150110722 4.203576742436662 -0.2331669179391146 -0.4894215709356281 1.5986384121371564
Ni 0.38403112255189265 0.6267191257221516 0.5125893168720778 -0.9793545342900359 -1.6153035314976631 -0.6731073514254794
Ni 4.430778468814931 1.7144652639655011 2.460943395702187 0.9491379014973395 -4.338002791827716 -3.2149179343948435
Ni 0.7186424238738902 6.175534963842053 4.935038157498118 1.5499800276995046 0.4429044012106953 1.0877229329938107
Ni 4.193622988667447 3.9741818941012865 11.03387185732648 0.5433520024054965 -0.332893067586859 0.1188865246262791
Ni 2.291637511014399 1.8277949792048593 6.498677949841754 -3.291881336424776 0.5329652598545337 -1.4831393159258714
Ni 6.174881262503034 8.176671282620509 5.457751558770001 -1.4895282501713507 -0.3512805689551111 1.9636275889276116
Ni 7.897734159142436 4.615711498329737 11.266593216841967 -0.21469405594590768 -1.1190479683593373 -0.3530834264918048
Ni 5.4258039774141595 0.6831040886839967 9.496079047645244 -0.39961345173254403 -0.029820682905858324 0.351128359647963
Ni 7.62651255287702 8.199090476430554 0.7028062787596083 -0.2140384246397798 0.5069642078050817 -0.33908325555797086
Ni 8.480734475875835 1.98725207062012 12.123148209126803 -0.21485552122443644 1.161987962255973 0.32535690711081383
Ni 4.411471261661065 2.2349864639863894 6.5114251259526394 2.0843686502641265 0.04681233236784841 -0.032446807674795734
Ni 0.14825578086524008 8.61419082670811 2.8820384634703897 -0.5703974365590627 -0.44355951829619095 -0.7349948329588954
Ni 0.687215041470931 0.7545444379777455 10.851967030211727 0.14821844082117697 -1.503045053710863 0.7026999774809317
Ni 3.520623649554917 0.17927160763645025 0.33613046640563515 1.3791875582325537 -0.9691531682770019 1.5803388424970204
Ni 1.423540546918362 3.7357466324591013 8.066494065106227 0.3629901440825555 -0.5334974782089199 -0.1786011668780924
Ni 1.5654305657301053 7.3888967196738875 10.38217213339266 -3.0701170038956485 0.8654839748211094 -3.297726225241327
Ni 5.852109321066184 6.01588452414342 11.03765872156224 0.06087626666008225 0.9291473173080257 0.6185500850048895
Ni 3.80725787612342 7.194296275990479 7.200156570388875 1.0985791589820242 -0.22533559482015386 1.0637376258228068
Ni 7.873151305970848 6.920846560935728 4.813597942124359 0.3376542364209282 0.1940108165649433 -0.7455546107526128
Ni 8.292146243099186 8.400034585220787 10.134007770272415 0.34929182065985653 -0.8488152559161769 0.3996931559305439
Ni 4.603889631860704 3.0611544717740315 4.015162523115047 0.15756825746719313 4.520890501896305 3.3664528411837638
Ni 8.29593034521661 9.188831131950947 6.480122038874705 1.7047437258383673 -4.37189481658947 1.6141388217656008
P 7.960130412304929 3.7141468670881097 8.771759549889104 1.8041945103375379 -0.13004125569151798 1.0980435981935281
P 5.6608510405667785 0.44914990368548663 6.89755085490773 -1.8362399688088566 -0.39402078813611496 0.3076142384154122
P 5.693167825073249 6.667320926129411 8.836401405257048 -0.7715944864598001 -0.8676254466441445 -0.10600992577392711
P 4.951382532385836 8.155154380799534 11.315212944461145 -0.233251764343437 0.5815537102861984 0.43614214278619723
P 3.335552514123417 3.422108095646303 2.309667698791898 -1.741269074457911 0.5796117560684793 -1.7237308084638312
P 8.994967253156574 6.685781083660883 7.2988774417603075 -1.106617198795152 2.0238068295206695 -1.5785971772155651
P 3.0886927915628783 6.90165904557633 0.5925664532297579 -0.7452702467429745 0.2923642542348771 0.19178012746221165
P 5.958800745243101 6.738491508532548 3.6735731901755417 0.7055361613781461 0.2853052905055667 -1.380723535261106
