# total energy = -340866.96640154533 ev
CRYSTAL
PRIMVEC
9.29400291176552 0.00000000000000 0.00000000000000

0.00000000000000 9.29400291176552 0.00000000000000

0.00000000000000 0.00000000000000 13.60271271357865

PRIMCOORD
 96 1
Ni 5.609153752854951 6.104059402571493 2.6067419443793773 -0.2385065849844731 0.21408778982047644 0.9015814918746149
Ni 5.415187914177313 6.253888021896946 12.063415828368118 0.4263539530511819 -0.6528701984429982 1.5178834042752762
Ni 5.309858980313696 8.744104547225598 2.2211867435430217 0.30391236408379274 0.05015245248467491 -0.4418343080749681
Ni 0.30782852592284554 7.30888745705044 2.1766517408705015 -0.36191156630639604 -0.041188044202535516 0.18007543743077373
Ni 6.66124416512842 0.7705908669155439 3.5130633577554913 1.0980999053527603 1.2812925482562774 0.9968195238440187
Ni 8.973564182640654 1.0080740149578349 7.520953366203625 -0.5899234224071325 -0.8611817479013297 -0.4374670322452079
Ni 2.9445724407782787 5.029589031527743 7.312464718732616 0.7552805797911251 -1.2969119999610892 -0.37406337117758154
Ni 2.741043073207527 3.5405689590763574 3.6319782649290726 0.2624378989890899 -0.5466514990923748 0.40396375828143977
Ni 7.034900254165112 3.442247703332671 4.106372979840742 -1.832589002319831 -1.2602128447678425 -0.705569842829559
Ni 8.094751158786249 8.666843501852949 12.86726807254574 -1.1560463999605575 -1.8213432542026824 0.8728139328236194
Ni 3.994701818458505 5.959537658851451 4.342693448131305 -1.2512155263652387 -2.378255768901433 -0.5926511057509406
Ni 2.152035645023755 0.29214954317971303 6.465900025833825 -2.1503567842294777 0.5328709003685146 1.229681766058521
Ni 4.658739731340148 3.1639480831427713 8.31872547374191 -1.583617770358608 0.6936178126740055 -0.3392002407518093
Ni 1.0688103233314987 1.8250447441039974 4.59235731625845 1.5079365774752094 -0.17550658711316872 1.4657023513963467
Ni 0.4082725319086962 4.807220720257922 11.084891165949415 -0.1956180131510631 0.7259764315103691 -0.22499440943065124
Ni 6.310284030957602 2.934079511604007 12.382630437135429 0.03250080084118274 0.19092317877855505 1.1934099282106803
Ni 9.219938903172782 5.537970985321073 6.898642737745126 1.5017227353550138 -1.9398945069767302 -0.8714746451869056
Ni 2.032970175004626 4.116527607312673 9.395883670398769 -0.3473771201356469 1.1853667461912296 -1.550256164179027
Ni 1.1520938825260514 2.8616792297018123 7.1606722766130755 -0.255057804474935 0.6374212108777796 0.5168693827339357
Ni 7.264304125563298 5.452865801575451 5.303901524511475 -0.7406607729954211 0.1579896612753279 -0.35477444104098255
Ni 3.812539363351571 9.230738534439835 0.4413740523224134 0.5588585826815279 0.5508225997509287 -1.6999002817031368
Ni 3.381009518807182 4.508362765848812 1.5471048018229066 0.7480994886616535 0.04756180893936325 -0.13333046796575104
Ni 0.045469049955084266 6.421886416719034 4.604287098267392 -2.7270716783661357 1.2240939875580983 0.4320869988802171
Ni 8.987523774863645 2.5755075891305066 12.491412093043547 0.10137165567096736 1.973569273521356 -0.31955752682021743
P 5.621245250512814 8.325372544552753 7.1763698473618325 0.1618825685718309 0.8712571298594608 -0.5613630942709364
P 0.3153250685906645 8.101154726723427 7.343165598220103 0.1592101639459903 -0.750567747696488 -0.18057577410595996
P 3.7766180424848215 7.459050660477109 2.892127312312824 -0.8672482658103837 0.12453960914699842 -0.6274404455159839
P 5.499484519678328 4.107893478700716 6.202564679570848 -0.3788543648083217 -0.9660333917010974 -0.3943879416675466
P 7.545001598478585 6.249343254522084 3.170765234205064 2.2121324227753774 0.8507466686109348 0.6680209380415075
P 3.2572319893625825 2.0709361764899232 1.4914560305883007 -1.6962218044102852 -0.06594288254971224 -0.8467591447180965
P 8.989484809456886 2.5819483330789303 2.9573795766526336 0.28570406860588216 -0.5469422908599161 -0.07556060814513438
P 8.681555908303677 4.234635795042209 8.593064919333797 0.7931297894284148 0.14291862587481838 0.6615515282670801
Ni 4.353394562968556 6.652610036516464 0.7654940357736744 -0.47023574203579666 1.6837069597727259 -0.3918649181353767
Ni 0.5791771614099652 0.515924037074926 12.339415182862151 3.025445372019886 0.8099522603023923 -1.4753211054330333
Ni 2.3868486260582795 7.294779160782463 13.250198646988103 -1.2587475730762256 -0.290970459211144 -0.4595443237602214
Ni 8.763380309056812 8.664129653031967 5.181790409770992 0.43225103526190717 0.8221444314932098 1.1563600745462344
Ni 7.790493388743612 8.805630845838246 1.7156831424204373 -0.8601700188073638 0.4881609590556496 -0.3393041133195253
Ni 1.3599449614041874 8.31817898637659 9.373030646885379 1.7811072895007714 0.9553666560158708 -1.9129097508577702
Ni 5.533100927847807 2.141328953784817 1.1998697039789694 -1.3388294661304814 0.11451153548703505 0.5785689166262615
Ni 0.04355262657533684 0.4971640923997553 3.1358337246377475 -0.2579739496804654 -1.4217115476376936 -0.4931157319577636
Ni 3.767519213732286 3.5913049204247627 10.683175553024288 0.12070532300257275 -2.2020776096425365 1.2957848283351814
Ni 6.451673695730142 8.153368434518875 5.003159675732458 -0.10080498453421995 -0.5261639206619841 0.30534086900020313
Ni 6.927563815694196 8.942289863179694 8.86291536156769 1.1470171998787535 0.44931004762672294 -1.2893192752154956
Ni 9.202410413870146 3.8648645991807573 4.593785804490589 1.3001500472824123 1.6047715216180878 1.32074741181779
Ni 4.0918984998619905 7.958594017596629 5.295468146360249 -0.017950156720517474 0.4318759113106756 0.4775348468003711
Ni 2.8632870921882154 0.6301352494255676 10.840735853288693 -0.7377955356324842 -0.026262019020322516 -0.5970394646266234
Ni 6.57125962990672 2.0518462947149416 8.079086117047334 1.3506925361166546 -1.0513361668346604 0.7508994200042939
Ni 7.3555898211786195 6.729889669894737 0.595057824014109 -1.0489406700192903 -0.7680432787734321 0.5624378153923539
Ni 7.89376834798587 2.523805051489697 1.131146129589035 -1.5124498919645308 0.05768012832028776 -0.30232779320549225
Ni 3.425369794226845 8.1857394463116 7.708371579900507 0.3911478374636941 -1.79084611405509 0.7634147788624852
Ni 8.013475104198998 3.339911438374383 6.730023503535224 -0.04259572318333954 -0.9313864910511895 -1.4649898987103545
Ni 3.1673496881718095 2.92920945413074 6.097402108357559 1.8761080086483881 -0.8904653273567954 -0.5879017639914134
Ni 0.4014033344306588 2.467817978552749 9.577316546284996 -0.36862985886683614 -1.3394850974366093 0.1750666713622727
Ni 5.336430534351999 6.7408565932124 8.631832063861452 0.05673396235693455 1.3052498304028233 0.0025929575381568246
Ni 1.1790279026740051 3.52274306168375 1.3634274242576856 1.5465800008790203 -0.6998889903946978 0.6703164189439036
Ni 7.621398301589758 6.971143394877686 7.1022343751347154 -1.2471686099893746 2.65883048670055 0.4940474997434136
P 5.128821099546965 3.8146955720038576 2.7565761401065174 0.2173844582938772 0.07036672264902075 0.8482809806792617
P 0.7811367719058416 8.569832700505694 0.387577575848155 -0.16790229240334953 0.0010109577630176138 1.704953270746012
P 4.42249547387264 4.202199725229801 12.614597594509046 -0.1416533860091496 1.0213378207003572 1.0645562650693603
P 6.545515242118649 0.7007046127738812 0.057911860919225226 0.09644490779331132 -0.36946675294583464 -0.7436126565348935
P 3.233346402136826 0.35024170775348284 4.75956200324043 -0.24894500670897776 4.045397625226626 -1.9154785400262109
P 1.5914585714406015 3.1352667904662415 11.373200427167383 0.5767606597729293 -1.3409570539964453 0.10123410165183856
P 7.521032365227525 6.931550942900363 11.66749502619601 0.06279148140492412 -0.1324542360083848 0.5996334506060447
P 1.5265027857904812 5.76590640427503 1.145931958661975 -0.08435069563293861 -0.03481762189981746 1.292385058625013
Ni 2.764305962244907 2.0725626269819495 12.886515952368518 0.11634498915134801 0.25446028010025207 0.27691243845618113
Ni 7.260465702402116 6.14538053907177 9.60784083971906 2.391871559912655 1.636876886793065 1.7221007290595762
Ni 1.8155648612361877 8.176752145592804 4.076746487078275 -1.0114395877500386 -1.4399229284393975 1.34548476666347
Ni 8.785592975776485 4.64379497481913 2.2301238566466357 -1.5750297715792811 1.9786451453823664 -0.002234545757473571
Ni 7.714087391629628 3.775456292133374 10.524364279981445 -1.2363658629469159 -0.5922903799774122 -0.5822923882244359
Ni 5.7628486773500205 4.797434135297331 0.7464162362023476 0.841239500451448 -2.01523425736031 -1.605038145015913
Ni 5.084600234169475 0.8028048100607553 11.660014283332972 -0.3744618921675809 0.7647244988128442 1.075368525193516
Ni 0.5608568230677822 1.4587309172884526 0.9796603895622777 1.2251332274558902 -2.4859196853390153 -0.3927982285829235
Ni 3.025086387134981 6.046139177049737 11.08398035367388 -0.32468944873014405 0.16247957872588148 0.42158121425288686
Ni 0.26022836112306635 6.298926759521854 9.149088860939559 0.4250018098986616 -0.8622027329666764 -1.641153916901864
Ni 5.457707977040283 4.976046281330241 10.213433415920093 -0.49203689707128806 -1.1130038190477864 -0.68569315851029
Ni 0.36545506095575525 7.311536247851739 11.105771072665908 -0.3489174680395733 0.8300210060278093 2.440772399378416
Ni 6.6356205993768995 4.864295191523824 7.897231293433465 -0.7039657315672327 -1.0747290918373038 -0.5137200384716766
Ni 9.244001076451957 5.882787783633439 13.08011003093369 0.45083548313231386 0.8218531255050362 0.40310809514936385
Ni 4.222005245221275 1.6553269587617672 3.3327327506027196 1.3079435751849022 -0.1106170855286353 0.9385182169999643
Ni 4.535017965912418 0.6255579530408653 8.866451729637497 0.8200926911705038 0.6181307380792838 0.5276955268151621
Ni 5.11554926353203 6.2613046361405855 6.2339598210683596 1.4830094752162266 -1.1776230976900686 1.7164810688799537
Ni 1.8535680387327313 6.718114168332468 6.205706981921443 0.04014700453253085 1.7347356442147672 -0.39797103103311465
Ni 7.554741713425118 0.9673755766459335 11.278212930232211 -1.2126106695088472 0.9004656331026168 -0.8520319630812616
Ni 5.952511392725898 8.22471849410336 10.694914807975591 -0.06409117405295414 -1.2552770980291221 0.601117748461055
Ni 2.0734362632462378 4.5202219134363855 13.101153512099668 1.3825312778938061 0.3955235979338866 -2.374695819464317
Ni 5.175551345683579 1.0780206801177727 6.273884068946057 0.04515885592482546 -0.523800048415498 -0.4616881095761016
Ni 1.6840547214523556 5.66555905591842 3.555123367479289 1.9571535511674936 -0.39284965064614924 -2.41469524267539
Ni 2.5461571282515423 0.08298893930542565 2.386242657074965 -0.1325048867406621 1.0181198279836916 -0.8684335443677366
P 7.554267719281728 1.3382806408503984 5.670903107535078 -0.4791466713721813 -0.15805496729562457 0.046772737379164604
P 3.4561050615247337 6.040358307300936 9.021945043676606 -1.2066670503309025 0.2776212915977477 0.8047542610412206
P 7.889046994557589 4.312342952549815 13.471283456469648 -0.8056451482866059 -0.3256047614555618 0.1955856172512309
P 1.8298869195688299 4.564582188856049 5.467637689644174 -0.24925893840497068 -0.06945655212992553 -0.13669449934197747
P -0.01595501462663638 0.29110303846312924 10.317603387633106 -0.17073230565297695 -0.17779692580924217 -1.239031325594221
P 4.172012804097795 7.956103224843125 12.081712002302991 -0.7950090087289986 1.3054663172890033 0.19990995565819766
P 2.636662127630691 1.5470611200096922 8.319772907858777 -0.09270935201027904 0.5303851578321833 -0.1569743326369361
P 5.77603686733965 2.5042411755713245 10.261206449172168 0.1762861455916706 -0.31017197184025935 -0.8917436798485868
