# total energy = -381174.26873164607 ev
CRYSTAL
PRIMVEC
9.17248500195561 0.00000000000000 0.00000000000000

0.00000000000000 9.17248500195561 0.00000000000000

0.00000000000000 0.00000000000000 13.42485896936240

PRIMCOORD
 96 1
Ni 4.656467148385747 1.5466827999572572 1.899496939812531 -1.9330792838271094 0.06533275976953909 -0.006382506487576104
Ni 8.435476017249776 4.426980741083434 8.704275696133596 0.7233600769334445 -1.2179575356430572 0.74979590252747
Ni 5.174107178350923 4.102870976423486 3.7854213532696823 0.7034677088848916 -1.238462083354312 -2.2669560554834765
Ni 8.690801315369892 2.4180046868779423 6.404557543940859 -0.1666223972496614 -0.3771456096473311 -0.7704842841147569
Ni 1.942704848611375 6.182796203676797 5.95546899939135 -0.10673214865193231 0.36535607321157076 0.1644151051856975
Ni 1.7328750770998151 5.2134754848436495 8.441323476566904 -0.35677887306552103 -0.3614621374738033 0.6369897797673159
Ni 2.7543413743139395 1.5478201881224714 10.002661156133534 -1.0577842364528491 -0.20807320819528033 -0.013291832012899688
Ni 1.5392439144573502 2.6506647740606106 8.160770175143528 -0.20697766113825644 -1.691514885852919 -0.01931541249916028
Ni 2.6629559042330833 6.775815717043005 10.608914731151117 0.7719552122333285 -0.3638373225741992 -0.0732432728658674
Ni 4.714391392444826 2.0934729878986413 8.82395828306675 -0.4557210933593894 -0.07526750238474779 -0.831146377881504
Ni 1.0350415753150646 5.196075280412917 11.7175398172644 -0.6542225987058347 -1.57629963943064 0.20560314938823301
Ni 5.633712894434579 4.7708847288121845 10.228480403851554 1.6227183359044957 0.6517016320561937 1.1775709042958946
Ni 6.461226992024121 7.925540874855405 6.897813439241481 -0.17925885506674935 -0.49025666524241374 -0.3209924594945311
Ni 8.025355858838129 3.795345065011174 11.09694873062548 0.947777016594071 0.2671777276669205 -2.0936220505415943
Ni 6.644374004079172 6.883060414040433 1.193503595190891 0.2589936491942314 -0.5012769276123173 1.1518868692662292
Ni 5.280177797242323 7.273808283702631 11.013070022435034 -1.010146322859912 -0.8039757310039831 -0.47281764383035985
Ni 0.8362958349232186 0.13283317896917968 8.897553718095732 0.3148187265836514 -0.47825552701647955 0.48399962858910833
Ni 3.8288704984293744 7.870111546771633 6.5686092762996 0.6454823906193593 -1.361882748405519 -0.7433426907029584
Ni 7.571116046598425 8.788754284856338 9.044824388774966 0.9535627700379126 -1.949875786559158 -0.6362978959066138
Ni 0.6088071948981926 3.842785158482838 4.364663793860476 0.5453011557120674 -0.781333568124435 -0.6791430160965981
Ni 2.308980527751067 3.458843272841517 12.607016804148051 0.14857685260186027 0.44672017541235964 -0.8410690363118547
Ni 7.8090870027138255 6.447138054751795 12.664045813651287 -0.49072306335587096 -0.6178348041054198 -0.8377463996965249
Ni 4.981613403873673 8.66040369940603 8.943816064467288 -0.32035636857242894 -0.0320076632548481 -0.5054464856089746
Ni 5.039216610950635 6.035247606695903 13.058776376388773 1.0926640790491697 -0.8221135782552743 -0.03825107306139864
P 3.6281306597543224 5.13032690647539 11.83445689990875 -0.2194328561824737 -1.1256104520682033 -1.3123080228011852
Ni 8.088471729522297 6.722367645763154 4.96795006991478 2.4535484680971615 0.8943214678780921 2.3872062932265017
P 5.052424989643441 0.47799379717078794 6.699662993139332 0.4628253085043384 1.3536657598123654 -0.17100587102933776
Ni 5.816107762702956 2.8434062056383516 5.727850110076437 0.6816824946890001 -0.1580426260004504 0.21444568738052747
P 1.6901037785966502 8.381220767272032 6.1911018890284195 -0.8994906707838574 0.1418924986031492 0.6290671824861296
P 6.650482879224595 5.568799216650556 6.223992586470549 0.5578620230962135 0.8558045427498165 0.6772625112444336
P 1.6338214093889682 8.612376566881352 11.060070753865459 0.2945445497156476 0.904026868091314 -0.5691147131918973
Ni 2.230106327487564 7.447590188365072 8.366224671213095 0.19118465997005785 0.439854558640778 -0.05450841546052548
Ni 7.615254045396886 8.037124157354011 3.185410571681491 0.4604115568565232 0.950678249401266 -1.312881635916468
Ni 1.8090158767727238 1.8069704125723793 3.2420359918357775 -1.1904927545638853 -0.32584310271861305 0.3494743689843078
Ni 4.3190389352105525 6.242628324658171 8.63888321462196 0.022760176514651124 0.12362095398747097 -0.1263373244773695
Ni 5.634107311298322 8.744047591975269 2.220297271811114 -0.07603934755376582 0.2594978425241595 0.47881577039532375
Ni 4.510496218859826 1.3356514328840603 4.40993184283599 0.5819530026071462 -0.2554982344464632 0.07829060548178775
Ni 1.1353702184691756 1.4065730884762697 11.95440732340984 0.6960032821870464 -0.1326190437210232 -0.189763354142499
Ni 2.638098469332037 5.8949452730256455 0.21037920337523963 1.232414848718968 -0.7533324549258188 0.06550245257818396
Ni 6.4192812171892575 1.138066929118957 10.139554994302232 -1.2316725712363046 -0.41593430037975465 2.4594388654396675
Ni 2.8620538680567376 8.636894619829874 13.178365403972853 -1.145688453765001 -0.6159388726342876 -0.922147746061741
Ni 4.397307751450636 3.6175089218888568 0.5348650399285241 0.9427443392661699 2.039770551938777 0.08405090500433267
Ni 2.3175201114753747 9.103122870230342 1.8734122263912782 -0.14181048041230415 1.7928274061511769 0.8764764692768713
Ni 1.7022206315502595 4.677719796601881 2.3096794711235615 1.0813226858944216 -1.3615803866737517 0.7857509804658402
Ni 4.64812018685071 5.520652841818236 1.925863248529526 -0.7156855911073222 1.031556670214888 0.38441720360807985
Ni 0.30520710715290866 5.4800095598822445 0.7549184634477244 -0.1671618146928992 -0.7511074222500419 -2.7995410491804558
Ni 1.543362360313649 2.114936603274452 0.9562728586313998 -0.24216423634171844 0.37723199871355034 -0.4129585055808824
Ni 8.636931309770688 9.000024136544821 6.767673301928001 0.960097485832637 0.20167013288241398 -0.5803941427604584
Ni 1.5835378455042692 6.994396039438549 1.9701250758782332 -0.3709207117835418 0.49010342749400115 1.7619494856253979
Ni 6.908147161071562 1.622438355251626 7.702056941870155 -0.4128443486005212 -0.7394335854565395 -0.4562209158139433
Ni 6.77399039248754 4.592764238648565 1.827620428510654 -1.4973562308562018 -2.256080289111237 -1.309534573821106
Ni 2.8019374000340607 9.023267214050081 4.320495525860843 0.373198452074125 -1.315862830031979 -0.11472545127005404
Ni 1.017274471476199 7.179551825753129 12.656125372678202 -0.6412989486656311 2.364485454590218 0.7909762334205216
Ni 4.521273888973749 2.7286584157445932 11.278224555699047 0.7923813412981644 -0.2965379259965925 0.8354401201608515
Ni 8.41583772642943 5.73409657249991 2.5863665700337313 1.7547570816420166 1.304919700756914 2.102739182351514
Ni 1.2583365551051244 3.4994406923514907 10.1783793724224 -0.45385832911903773 -0.21200725314236388 1.0983737278394372
P 3.832860529492826 7.613098511374102 1.700553990988813 0.26834603694340886 -0.8883346541670378 -0.054154631665532534
Ni 8.78104022480033 3.167433417931469 2.1819021659984617 -0.16245155370142347 0.2081176882799706 -0.7275687156981535
P 3.266569638009146 3.1893740025378534 2.2982147818679093 0.18193331657511894 -0.26421710237669976 -0.14164258737587218
Ni 4.866553749483001 7.999452760623901 4.300962718620334 1.222144062920579 -0.23654946125810225 0.5421600389799244
P 8.404968331463474 1.7877357111009795 4.112691956330701 0.9103083302246515 -0.2850270971435156 0.11178642324638811
P 7.2809536496760305 7.296812876592602 10.725361265304533 -0.8742815185080814 -0.1919199954741856 -1.1935883627700734
P 0.8850705249919684 5.958684872703641 4.004246581020156 1.0240773311187072 0.5966052053026821 0.4267529882618134
Ni 3.3720257003919225 6.215899702775645 3.797315314832851 -0.9674251298423018 0.2563143025898553 -0.18852613930128823
Ni 3.68865988961115 1.7155023901246929 13.306720575665762 -0.5538408177519624 -2.8961062846017156 -1.591401528069085
Ni 3.564941409188527 4.132415551263438 9.736903073343143 -1.9249114033043362 0.21555203307082876 -0.7228294012409551
Ni 7.999030826304548 1.5933065422458244 12.381693787879533 -0.3439308134582593 1.9815924009361485 0.05164137832537558
Ni 6.662929941645524 2.2964509129633073 0.8970855633598207 0.6062581550114139 -0.4239101194963796 -2.2857803872788307
Ni 8.849063375068287 0.7391839823299183 1.9674127720036063 -0.22794372186696224 0.1626577561749586 -0.3588267567334853
Ni 7.334181581311001 8.88279060316096 0.1485392253828553 0.2092345754932332 0.649200720011211 0.6168670408755118
Ni 0.054495569090071624 6.775109435682348 10.384947408195654 1.3027175508992725 -0.817911624358785 -2.02547907501677
Ni 6.398193673706783 3.987967254281272 12.646324572238436 -0.3814504076702721 0.5872443329130725 0.7242285955813269
Ni 8.552241753888268 4.756089510179201 6.4388039346960415 0.26186068632938125 0.5305257971751057 -0.4218609502768348
Ni 5.123988719199883 8.320159533273412 13.295819077001594 -0.08114324443923446 0.585915843909636 0.015751349296985774
Ni 1.519779900855867 1.3015848228388631 5.632279234997298 -0.5625997948915149 0.9696365356713236 0.43345945374771155
Ni 2.909952585788568 0.458318816409628 7.763421785129007 -0.42852936343594583 0.4454207398746458 0.6580458291066668
Ni 5.534650054238528 4.259105916891942 7.836103640631737 0.6280181723963248 0.09227663534823463 -0.6182232977930902
Ni 8.608203086113834 8.693653958268131 11.576229427470295 0.46201823922201074 1.4241494676552247 -0.3125520420366617
Ni 4.075014138860949 0.11091277383024255 11.261268299552157 0.008752292271333314 0.35816032679407994 -0.5836396462809497
Ni 7.549074564654803 3.8881614427837508 4.1961276334858235 -1.1736862245295077 0.31247670871403604 0.7751644631992457
Ni 6.878620931202017 0.3488341985255452 4.877466255129411 -0.0418084513953538 0.4100174206746874 0.6607375170062169
Ni 8.647259528109647 1.7245097705943708 9.725263189620104 0.27720168756182584 1.3567973634628117 0.31810408220314246
Ni 1.5503151040977792 3.8637718046280756 6.332398520094719 1.1325102645118301 -0.32288530564186974 0.10299042222131295
Ni 0.5967343698735592 8.826664166201734 3.8664666807808157 -0.7116790410510904 -0.2460795122357246 0.9019123928514726
Ni 3.1425943280008295 3.2921058368152387 4.424699544013364 -0.8080177622838407 1.115508844857827 1.1431404905321667
Ni 4.732314428532148 5.233765022113434 5.570095288809788 -1.6068091208734068 1.1703869849529458 1.236708076777683
Ni 0.029751873005547082 6.843893902222179 7.8915751621474435 -0.26826427586287993 0.1957141724092952 -0.8292671585809203
Ni 7.072628165737819 6.264357942104879 8.64754295790243 -1.3811045727496085 0.6280667662460733 0.2507846310208778
P 6.7369794146920725 3.065196897855064 9.377049051094307 0.3311958823900942 0.991503510947744 -0.34904088099131503
Ni 6.447587506526758 2.067248852702298 3.001717796756843 1.453806628400025 0.03557481178081615 2.8842835809351746
P 3.40689031664981 4.617713398401643 7.213915624318915 0.08735605811816569 -0.3326040755915304 0.27012344055880577
Ni 6.512455321884765 6.1091503199791966 3.7052345703735816 -4.148113453630314 -0.6691231699667508 -0.22966507543344314
P 8.90908811823893 7.8128660666176 1.1442730326075354 -0.5246713952768577 -0.3504884120711189 -0.016817842888287166
P 5.778207053842762 1.0833255374254358 12.317482722462087 0.12346128848115512 0.5387911225076915 0.5846063810695932
P 8.66785175739114 3.893940108461854 13.067127006917891 -0.220249181436182 -1.0022694912149965 0.879909149107504
Ni 3.53048955476479 2.2696305662287473 6.579509857715246 0.977661205748013 1.4512656071457264 -0.08724190113780458
