# total energy = -381165.5470158977 ev
CRYSTAL
PRIMVEC
9.31691298123621 0.00000000000000 0.00000000000000
0.00000000000000 9.31691298123621 0.00000000000000
0.00000000000000 0.00000000000000 13.63624391603392
PRIMCOORD
 96 1
Ni 3.135597756480224 0.6453201408603702 1.34073080113445 1.244637873147721 2.5940263457409714 2.878914603313777
Ni 3.33163492311599 8.828539063497571 7.537583870117104 0.40991766187202955 0.7445649931458338 0.4200005000293283
Ni 2.8255588422585434 6.750010306351697 9.019393231426074 -0.7550967459150931 -0.4130325533519274 0.8228028910128152
Ni 2.4543543941285977 5.626595569475723 0.7654524172066258 -1.2559070183036372 -1.582937713572448 -1.1041545961872725
Ni 7.986206275209325 2.004953095108771 13.178052323064176 0.7240072235991403 -0.08562210614619448 0.787157888115696
Ni 6.849132943861223 3.8438508496467874 12.450408870541956 -0.25766413174953046 0.5682785904438471 -1.3379198098320184
Ni 8.66644341095591 1.2137981099824606 8.215318483029302 -0.9441257929947289 1.2546862585226586 -0.22747758086382114
Ni 0.19516976203456876 0.005905059465507745 4.062973463337832 0.3883713031598215 0.5128273514540781 0.5381329200984022
Ni 8.796908143829853 4.942091287570724 11.4989126075937 -1.2029752033016121 -1.4421027096995358 -0.8085618077127688
Ni 0.12687772136523268 5.039667317520649 5.181418558814466 1.0320968589890742 -1.8473828727995538 1.0118072555021027
Ni 2.092923387745761 8.7346897987515 11.273709776472568 -0.2964240261265476 -0.91876674540465 -0.7419170140000255
Ni 6.910773640332979 1.0921471768156341 6.325990141752723 -0.1991867043389279 -0.0378594940499348 0.354011594733029
Ni 4.100457267758201 6.9126183891088875 1.5680457764348674 2.6908093535999917 -0.2871145758001636 0.36286698824112995
Ni 2.2104655622753375 1.2633268195416891 12.919099906256935 0.045809345024630785 0.503951646231003 0.9954437265424145
Ni 7.4531577311889805 6.101972421966417 7.360039844114166 0.3865126526845279 -0.3777189656522979 0.2645678008478992
Ni 8.84492751348152 0.06922932211810555 12.340800979131387 0.6931169617781869 0.28470236681424516 1.5244039790026134
Ni 4.983262726160308 5.148488861473205 13.38183277610225 0.7757074801869092 -0.636990293987948 0.8487152400032029
Ni 7.6678380407570295 4.67367102376309 9.379363345849 -0.6393343687400924 0.02756968208815252 0.274696661751785
Ni 5.586886886228651 5.900587347263119 8.983080562971015 -0.503367748703075 0.40095351070020624 0.43786683878678784
Ni 4.887773684724542 2.4885474648739643 0.5950460782603705 -1.6171236154255375 -0.4042072417508136 -2.5253046148945413
Ni 0.3474258227467509 4.18254858828611 0.5086522073046111 0.6116160768892176 -1.9990399069886349 -0.8935102848307064
Ni 4.62085344391146 8.39305723251414 9.579992818907217 -0.7334645123572981 -0.3981785190582304 0.6607267183729395
Ni 0.40790004170970084 6.6766955178788665 6.956993914082486 0.6335241898162186 -0.0014305617989394718 -0.43501214294681206
Ni 0.6850167121205293 6.961476280931422 3.824066384870824 -0.3143153045846716 -0.7472492248462164 1.3187445224551484
P 3.35779681484705 6.931485137953401 3.567636988106593 0.5327752553309147 0.27346150379310324 1.3055331659711966
Ni 3.0745160747890456 8.341087491746388 13.687107021010803 -0.8564123515371445 -1.8662033479401667 -1.9800517959219057
P 6.8004800241249 7.651747731989387 9.158946612940918 0.4767156933331854 0.2002107747280681 0.5346722152433114
Ni 0.26131145918128074 3.0522859203480524 9.497330371611817 -0.22182192523994054 1.3707391703548844 2.4857677331421835
P 2.457307855552653 1.0755258040064422 9.445362494226666 0.08910697937100137 -0.3633375001196452 -0.3437374665005306
P 3.347212801668103 3.6997741068657652 13.107280120151675 -0.319778641692088 0.32238471185636736 0.20419881284153865
P 1.929309078383531 3.7055412760187307 5.042969231491265 0.7807365579703844 -0.48774932543952776 0.20859617057828592
Ni 6.891180172273714 3.50705376126143 1.0698005609620205 0.373158342864809 0.6880439181306537 -0.01687903514352577
Ni 1.3998661796979153 3.7433213582728073 12.015030457292935 1.4298161790226989 -0.1008584634799747 -0.2789994028921969
Ni 5.666788732199296 8.172181175794684 7.357544774810185 -0.2795550182853508 -0.0550491184553439 -0.312914567582403
Ni 3.69169634328641 2.019720402229045 3.6015365760921556 0.7495614179191606 -0.36965444347660853 -0.037292308692555134
Ni 1.3069858739048468 2.23347833740914 3.4022021539422793 -0.015822825964869527 -0.6309014074813908 -0.2369693224043403
Ni 6.105671236431243 6.460505868403256 3.524110233908172 -0.2398016496468128 -1.3374238440322066 -0.3381008370400435
Ni 5.140252710372686 4.19229407929419 2.6598724514429697 -0.25352182744638274 -0.010570833537310828 0.00835402839165013
Ni 4.5095629180113495 1.954893321507993 7.502170283767475 0.03382620452082561 -0.2394319250122199 2.1460476153311623
Ni 1.0363854524529583 1.5154331686694489 11.07639339768058 -0.4316892492211662 0.4311454609025543 -0.8001949238053122
Ni 8.955621756949014 9.22194571532948 10.16605180287849 -0.3695413149375119 -0.9324046479030588 -1.0369613861702272
Ni 4.63031942752925 4.336035413206865 7.64352369287578 -1.4552325622132745 -0.20476548397828606 -0.25227458530284297
Ni 2.9058799493146212 3.3355480265800375 1.9044105600565775 0.05246207445445804 -0.2567490761344288 -2.0913767061508435
Ni 1.205245183839614 6.369060367213673 11.904468513990178 0.33650315353562044 0.31520773449195394 0.5045537985913762
Ni 5.691087241328428 3.230052620571921 9.504366504316694 -1.7928903981786286 0.5348444791551176 -0.5196662287527823
Ni 1.353971066212445 2.3836762920374936 7.7710228523387554 1.2534302746283703 -1.2612322871712924 -1.9616558099132215
Ni 3.782769167955609 2.348309290252913 11.30935535395614 -0.6836691861017258 0.7925003833745319 -0.23421824202176436
Ni 7.619064001151581 5.970082201402 13.24315238933641 -0.5927686051654113 -0.4466993494767533 2.244025671939548
Ni 1.0904142309958416 8.718953532678222 8.33874056135926 0.7303017983586003 0.25195756828305643 -0.21223710976498286
Ni 8.20355122189813 8.303624184534637 7.480543865289507 0.12779873951424442 1.0912034353432434 1.8297800721161261
Ni 0.790040682330358 9.2668252852969 1.3009764650136313 0.4252316665212805 -1.2295730083947984 -1.3499345749047074
Ni 6.19549559475715 0.7114534527853734 8.875449720501091 0.8765698003216258 1.0581465048882743 -0.13576761665233394
Ni 4.902336019758604 7.665369058809476 5.1454189386365305 -1.788996462440861 0.3403713782417751 -0.10491155050342577
Ni 1.9055695840349762 8.1040372740422 5.7279859436117935 0.022494324447774165 0.2134568411046969 -0.15385378473008343
Ni 6.777215692339837 3.390974342074366 7.032497245421281 -0.7929860647616989 0.09969658196138959 -0.14652819760294764
Ni 7.252219868310145 8.171603527188086 5.492705939379437 -0.9012924998792865 -0.3805811176914413 -1.455773779428725
P 5.301649594438623 0.14583857103114434 0.5498870009026613 -0.2198887127729697 0.7372435197837561 0.873677052154863
Ni 8.47100252675276 3.2277047584934926 2.6351900854978405 1.0048768469308564 -0.5267411333216928 0.9935585937045599
P 1.063087725138577 1.9936609965410916 1.0523825920905046 -0.5121580933011954 1.7837316144974957 0.4264277437119107
Ni 2.2113227182722244 1.2882588787554772 5.866080296549328 -0.37262483895884213 0.43080736083684523 -0.9878520302380858
P 0.16369536650541405 0.5010486745974466 6.262513081726768 0.35673002210545657 -0.2458537693781637 0.4706175508552475
P 0.2600527442336788 6.937746103495877 0.548766176267602 0.3860423979163287 0.44586065562554184 -0.5427922732472845
P 6.5008387848219735 5.628691874902891 1.5064227820978293 -1.098988992825933 0.1436454767385139 0.20396047157848743
Ni 3.6470590130572407 6.459173549842878 6.874085500283631 0.07948205468672763 0.6482589249232319 0.29855289954409225
Ni 7.961814596950096 7.754271042747429 2.7763394542112345 0.10152617897096063 0.39248018312187244 0.35998555292827683
Ni 8.667030376475518 5.502102977840957 1.9246739141612366 -0.7355674176329139 1.4784182563011183 1.4533392018453035
Ni 1.4747462095563655 4.665937985965091 3.026318752098894 -0.4725062832375282 0.9516889500539675 0.6286059265789948
Ni 2.8284005007264823 9.144168125525033 3.6423903079481117 0.13364825631648597 -0.25465285572703245 0.761298760960747
Ni 8.458843955275185 7.232607766424859 11.652579248935544 -0.6286105545646852 1.5177427649323538 -1.133473656866364
Ni 4.199598539093746 0.15688283971276767 11.96348556775842 1.564318555809364 -0.15725869664657433 -0.12347054445253575
Ni 6.099913384191288 1.9166753443424633 11.475635232130426 0.36352827597421267 -1.036827174585208 0.2710593221095138
Ni 5.4906711255781335 8.580942100266475 2.908637755565474 0.02706060366221791 1.6379798900492566 -0.7019201618921137
Ni 3.003046035092123 3.3430108739007562 9.119237929693847 -0.3397419721878923 -0.7245181017972877 -0.02166411523699495
Ni 5.733525780087323 5.55332736556794 6.035524198381688 0.1621957289368755 0.6803838304822346 0.5503510594311489
Ni 4.480792290637591 0.7571184385195058 5.637646359996453 0.6384362824058554 -1.6535183520044876 -1.254851066235297
Ni 1.7883721352867563 4.955200184175283 7.375053117737895 0.873456965724257 -1.2046055398161835 0.13730025124677644
Ni 1.9219114494538792 7.5275719153969485 2.1280723737659164 -0.38209318346059357 -0.15159507060289376 -1.42799506665356
Ni 4.167650844383702 3.095590932016844 5.5920326172838735 -0.11151774296603376 0.4008324117413097 -0.31261606250537777
Ni 5.853462401260376 1.740399350200137 2.375256597750685 0.979638384079042 -0.8307555702009886 2.069452395273926
Ni 3.827546251879923 5.2450027633400325 4.891347652555039 -1.2872675348927896 0.47480227836055644 -1.6531177741319592
Ni 6.884127269125418 4.398002201633959 4.503737983997724 1.1368613423916742 0.43538032491950823 -0.5602528919258931
Ni 9.22193639841647 6.589386726065562 9.337799665221711 0.1630393078840934 0.20303564577137292 0.036542575010724165
Ni 8.88855861710565 2.5931298134071366 5.111027417644059 0.46769934876718805 -0.43171830268688877 0.9074034978730308
Ni 3.8747923177517904 4.894835904785847 10.517989806595809 0.2966376847992504 0.5620925162377932 0.5571580550506533
Ni 3.3642254848236997 6.425707198312264 12.340555012627933 1.2985071123623508 0.5759731308746274 -1.0451680903507354
Ni 7.503720618092278 8.334062539337122 0.4784085759840295 0.2994414727966327 0.22187411863411466 -0.3580777943826027
Ni 8.889294653233412 3.9788156515043847 7.534324813946333 0.5794122384631635 0.8194619995650403 -1.3299825572628128
Ni 6.65274173453109 8.886769769807799 10.938231031278075 -0.06183734502177091 -0.7083926569903348 1.274938066793159
P 7.558504066588942 2.5212591464507987 10.000671006809634 0.539692037055406 -0.9609503207512354 -0.02287613326722512
Ni 6.128516307130872 6.096633830811895 11.394949833775671 0.002021658415719099 0.17601849375258075 -0.8530928002456082
P 1.3434429545115552 4.979927271302858 10.012944176317228 0.9866580099299846 0.4597996343041372 -0.1860375685514796
Ni 5.415185496374057 7.629787768025673 13.131689500545622 0.05679386906059251 -0.5033201832945912 -0.38494453686645963
P 6.748733889269378 2.389564581059584 4.539355610742264 -1.5220169668276755 1.011572256673161 0.34519322511045064
P 7.318360633765556 0.44985410099209494 4.0956460138800255 -0.014002227816362983 -1.9929885585882323 -2.338494429843095
P 8.034495835338273 6.40706405537998 4.764176448430002 -0.9988126430146476 0.0782749217525039 -0.8467259774873159
Ni 8.264632903589309 0.7727261311932492 2.047304986576677 -1.9519195564620642 1.5942251135608092 0.5677512571854674
