# total energy = -340897.40574589017 ev
CRYSTAL
PRIMVEC
9.04360582761154 0.00000000000000 0.00000000000000

0.00000000000000 9.04360582761154 0.00000000000000

0.00000000000000 0.00000000000000 13.23623127039932

PRIMCOORD
 96 1
Ni 6.346277938340225 1.9582481126974902 11.47004126061809 0.3300175458112768 0.5621537084930318 -0.14444097605661574
Ni 4.762986760814813 0.34628147027630507 6.147064488021514 -1.3576589401321586 0.04024779177645326 -0.45566812863426687
Ni 2.758688607985723 1.5409761465403868 4.787438861857195 0.3406413440737101 -0.41796315788432525 -0.31914717875567616
Ni 3.5189935812582376 4.210883677548123 4.9690534555191705 -0.5454829327055702 1.255113061647432 -0.6958546724243241
Ni 5.209957928030864 4.506464885651261 2.669364010306262 0.18614401222235685 0.14897845891565312 -0.0563521535374836
Ni 7.337294336160505 6.096647290706187 2.529085929494544 0.21825631937586928 -0.048268090977768484 -0.467437353355053
Ni 4.991437283942133 4.509422144709202 11.504614060778948 0.8814800931390496 0.5944161680711634 0.14126720631432443
Ni 5.3913093527675 7.763627995210745 12.356564220948869 0.13092777206152936 1.0879710444488748 1.613339722903073
Ni 1.8640680031274843 6.552562583941515 0.49832980388285353 0.3194531400318692 -0.17317356810461787 -0.7107930389017113
Ni 2.623929839721592 1.6307520201433685 0.3628764867023624 0.8322812628168956 0.03251339924667304 0.6402203708894716
Ni 0.5523237472453236 0.007788353213144719 4.783825037026759 0.3972747762970384 0.26900475357333026 0.307498024552522
Ni 8.689467126882471 2.280598393618682 1.3278590568465158 -0.3781054024574392 0.6444783748348771 0.2573630555693439
Ni 6.812475811235731 0.5953432751129596 4.882316233425266 -0.2665526924884119 0.5343017192777701 -1.3143991010022589
Ni 0.7758744448142587 7.335512745841195 2.6607074709476666 0.049071817825986457 -0.10236281593964308 -0.3804836728816286
Ni 7.699011432614463 3.875221209063359 3.6694140658420666 -0.41163438745282016 -0.4773283872165199 0.4675923908756786
Ni 7.64010138520338 3.830066485894256 12.67415485219974 0.40211359244657846 0.05413354861961 -0.6068333107885937
Ni 7.9410454514758095 8.70418107332672 6.821199273276372 -0.08261880054349642 0.8140873655166881 0.8065108387210109
Ni 6.861039973746863 0.8234266278496004 0.3910247093868874 -0.09244889926004078 -0.6893850055395805 -0.12187671760285461
Ni 1.8322616419446813 6.588167259510664 9.378822300499756 0.19679223596482237 -0.5833370274388663 -1.4892300022046419
Ni 0.22346930511779917 4.945351069387807 1.35748138725717 -0.6540421072639122 -0.9011248639531706 0.06029776844879293
Ni 6.325739909836913 1.9975697102018484 7.013389459422616 -0.3932756824399743 0.04673185683890016 0.7856548212076082
Ni 3.5004813204276437 4.3048105661590395 0.5754753777906679 -0.755064350015261 -0.11307480304050849 -0.38969876372199336
Ni 6.197754802228432 5.664001194890066 4.674388364671597 -1.0825748131339676 -0.15959017299322836 1.01379780356957
Ni 5.525055237195273 3.0054976506470474 9.395143295673655 -0.6399403777552076 -0.7893579810908082 -0.7515100570050993
P 0.3038380200905982 5.556997252463303 12.30158090712481 -0.16582509815934668 -1.0966796279664661 0.6882172104837243
P 3.9683251295572335 6.0977415669936805 12.683049238387767 -0.18883210057748123 0.10288012189569377 -0.42234354634020815
P 2.3291354253127694 8.465764496738084 1.5195057222912847 0.45004486891021844 -0.06196718573141585 -0.984481056883324
P 6.226269290943069 7.714991483854159 5.762869509645504 -0.4464175565702764 -0.6293734008726387 -0.031928730387796624
P 4.676801198667495 1.1288319048048503 12.652076697648823 0.021245025421705345 -0.5807466410038707 0.28899173821821844
P 4.032127767642157 6.284392544659838 8.240771344062905 -0.6032785035577998 -0.46454151986449677 0.006583566754788662
P 4.722561843417277 0.8893716961205363 3.765364009043996 -0.07828854859925871 0.07217626505393376 0.008934583485468484
P 0.05804728742904168 5.618240550140284 3.751055216134291 0.6871167783306941 -0.55833510607789 -0.48342601547382547
Ni 1.261899518806489 0.9705235873453769 2.5869414924831315 0.591516477925865 0.665608471945273 0.21150691646717767
Ni 1.8837649763023905 6.3824071430389155 4.76616830129366 0.4878094892535018 0.16915159142941835 -0.09021255373035432
Ni 6.04235852579849 5.72500935881932 9.11607028538203 -0.4792916815904778 0.4475028192146551 0.9207668065538142
Ni 8.506722986870843 2.3168542087969186 10.038079450047524 0.2781411686569597 0.2562765073733844 0.665696403673389
Ni 2.3977854360431237 5.28787763458504 7.035612311664441 -0.38297944272028883 -0.40880540264445725 0.46082550446549025
Ni 0.6562591942642603 9.140100954399644 9.17051098286518 -0.4177908939725192 -0.5173625203202703 -0.056813923665250544
Ni 1.5245800894393289 1.1512510032899705 11.374132013641729 -0.6657036027622406 0.765093709226805 -0.2352536252648142
Ni 4.106402901106576 6.6586621658001 1.5638872171745961 0.2302973097008034 1.0142228069221306 0.025924433175245672
Ni 5.712176482356882 7.894109137987397 7.887059647358454 -0.5855288928838626 0.2091659270388269 1.1187669467838088
Ni 5.268099268958997 2.7783946247663107 4.816929155624896 0.8718726519562727 -0.2057129354932199 0.29984847842706425
Ni 0.7565527812751462 7.348237099035452 6.9558377615849345 0.456452315098459 0.14205756342610373 0.08672665206428289
Ni 4.989194469733053 4.676358061989089 7.054209582388443 0.14680433408246976 -0.3854777836621103 -0.08461037705222847
Ni 8.227483574234673 7.227622530057618 9.203826721836272 -0.4584150952517847 -0.2158965608944411 0.061955615767190074
Ni 4.529761213887514 0.40519784821136534 10.481572446518367 -0.07955764511966942 -0.6431475718385956 -0.14257075561709637
Ni 8.032223083959467 7.345370276034329 4.679457305656232 0.48340210421442553 -0.7447280010862594 -0.14709461162937892
Ni 7.342060316354799 6.17120277594674 6.99872344408848 -0.27758041105748327 -0.31679384803215116 -0.33416113566600514
Ni 2.3578488733524052 5.086774975039406 2.5504632046051237 -0.13786049462562064 -0.010953413687710167 1.0535542575319017
Ni 2.3629494669569264 5.19149088522868 11.42585872505978 -0.20174109532966544 -0.10824087198697488 0.15744844405987724
Ni 0.9836096847669056 3.2475316695083944 3.853834890347097 0.6374384372689602 0.3987120229641972 0.008456358297469308
Ni 3.7755425872388337 2.702717732421217 2.715028792835817 -1.0090638884290104 -0.6778703200317616 -0.34475202380797404
Ni 1.0052872075861203 3.3279745420477838 8.256297406297376 -0.008041382247237763 0.22128636445144473 -1.147418034861598
Ni 3.6240983664918276 2.5948275166376398 6.957823737392652 0.8349274421904911 0.2985441577933439 0.6374736613822699
Ni 4.017477126437681 6.943608093621471 5.971008998772126 0.728109932913604 -0.31020102530598187 -0.3809726967029051
Ni 0.8291403779193459 7.414743775219225 11.392821529143687 -0.6884115858827177 0.5017968046715293 0.13296022911052585
P 0.19730434515928744 5.518941759754393 7.948330075852479 0.4858870754198084 0.3649737501714876 1.297221817892024
P 8.56224168215126 1.4877635707088221 7.880547346907007 -0.29403624262066136 0.2820603012057078 0.9560282008592697
P 1.706401781671417 3.2591074847810666 10.40398192721101 0.9817592870767865 -0.6337087950231989 -0.21550806720677076
P 4.055035220834093 6.1033395589107 3.6786530134065676 -0.40531255899985036 -0.08964382571107786 1.2659708302975423
P 6.962219834114563 4.123857060072401 10.501996525590089 0.24425300054994709 0.054213252817609865 0.023328390313295307
P 6.175371878166039 7.739454437223361 10.344193745688226 0.4630322823088219 0.5656216124369743 -2.0231403995812642
P 2.3565918121626384 8.35982769978177 5.843716631358869 0.27034995474731505 1.0264771988094517 -0.04791893516846586
P 6.964381255872508 3.862216504092966 1.539214452153577 0.7754233732875871 0.8277769471886389 0.2892084822147148
Ni 5.3400773265802455 2.951670109629122 0.4734626013396765 -0.07183970765012145 -0.4812179520789132 -0.39673792995696194
Ni 1.5981679088719325 1.1949677931556715 6.93413039486697 -0.9699787495020907 -0.449204118176478 0.006171161807718404
Ni 6.850775481298048 0.7778296723626584 9.20859179767 -0.6454736488686109 -0.8354159517911355 -0.493546391737279
Ni 2.587059059356995 1.5916474691753728 9.143627960615536 1.1709608551785446 0.5198058396544402 0.5217711909109273
Ni 6.31665108612673 1.962236342803153 2.6501183130548767 0.8026207596379854 -0.27668129628198157 -0.12038033556298623
Ni 4.0646485736738205 6.8052951883244015 10.464061312836748 0.2909475763930086 0.20642821639268963 -0.15592506543681534
Ni 8.373338846670341 7.134934615425104 0.13953469642467625 -0.8022908871023924 0.13920955245434735 0.9688124971081314
Ni 7.461915222455365 3.996333176353691 8.221976018374471 0.9854459918997546 -0.6156827907594236 -0.11634344648945126
Ni 2.931548086987172 8.516444862978751 12.535954991973695 1.348218363544549 -0.5745641663422428 0.03430211571597963
Ni 0.16624317708466266 4.80979646382368 10.057338712707434 -0.7854712444418924 0.5192052299559639 1.0321032867469773
Ni 8.357349751824962 2.315497667944652 5.8711820618144195 1.3119339272912178 0.7284202650651713 -0.6158540262299652
Ni 3.681262998006328 2.6299800119226995 11.38065697514113 -0.781315570402306 -0.1448045300436216 0.007146381236794144
Ni 1.1219949389094281 3.3774882831555026 12.641501105164556 -0.33074105424086264 0.19199661434839194 -0.0804873560227904
Ni 3.054532080653632 8.418954793729215 8.128833210376165 0.5200398100421173 -0.37399832226760105 -0.3843871217010928
Ni 5.7245390913238685 7.736008823458604 3.3308314170826567 -0.832394134245676 0.6708154700675092 0.4678587571631878
Ni 3.066912776831982 8.342138407068218 3.5484214741467337 0.8056294645573223 -0.29063673002080914 0.7286578349972741
Ni 3.5470920641115127 4.2407275762979815 9.328657419782951 -0.8476693152371917 0.6024778620333754 -0.4811405618737585
Ni 7.106610042429784 6.197148880647753 11.465726556347315 1.1654376113674703 -1.3097988832260863 -0.3551534216469561
Ni 0.6543374280568831 9.047584868275084 0.14827715003724823 -0.5277628897179878 0.5042637781547831 0.6127239652414156
Ni 4.574897849845253 0.22997165760299546 1.5010016007058047 -0.17096293360654427 -0.1951441588384381 -0.047680079684782405
Ni 6.121408683062886 5.6746726495945605 0.4191295227641399 -0.3330573610788651 -0.06672604057263992 -0.1363484288564684
Ni 7.763356687040292 8.913305411112088 11.284045944363863 0.9222706447928503 -0.4137108103658746 0.46899827008426975
Ni 0.16842720785681134 4.901154968420972 5.849169925584979 -0.4292472154385769 -1.1159937549140457 -0.3141998620527298
Ni 7.971477184594983 8.79466234817288 2.642905133163093 -0.240235908970754 0.7906545884150448 -0.46004157511161414
P 8.480279483857332 1.651760316142132 3.7021076047422516 -0.9300867984031594 -0.3164524055323324 -0.3466620963464933
P 1.7553729064382293 3.1025626704295397 1.6877249272174153 0.3160870517731137 0.620274523895164 -0.03049019816905717
P 4.682534844669741 1.0649750050858362 8.320930247383886 0.26117060224089217 0.35487445695395653 -0.44425603014258325
P 8.55724961181492 1.6782671243954148 12.334142409382043 -0.28367881064573724 -0.0053268115295521164 0.26856972291844067
P 6.57725162745276 7.835705532494494 1.2289545676683504 -0.7931146199197631 -0.487893821437192 0.05292255903064434
P 1.7890693812085234 3.271596704227598 5.973987962483703 -0.05619737312717418 -0.2551722185656122 0.1574571858106256
P 6.840212549861736 3.979231718009454 6.090559135361215 -0.15325574613476833 0.46743298247967885 -1.0750684774545936
P 2.4514954101871864 8.446727706777947 10.38165236042214 -0.09296929053988504 0.5379894525420025 -0.9563976683835463
