# total energy = -340863.189294659 ev
CRYSTAL
PRIMVEC
9.35460134358365 0.00000000000000 0.00000000000000

0.00000000000000 9.35460134358365 0.00000000000000

0.00000000000000 0.00000000000000 13.69140464393021

PRIMCOORD
 96 1
Ni 7.3072908650437185 6.0203128490311535 8.624859363550907 -0.8018756539418448 0.3050379930478037 0.46456645956516124
Ni 4.298495535052154 1.959901277763178 6.896497570334809 -1.2228467454145584 0.5012568730076593 0.5799472850310271
Ni 2.0355800042184837 8.51676600730076 0.06486012977476704 0.0028806639819047167 -1.8026940145326116 -0.06109866708353349
Ni 5.7874019798983705 7.56966872902622 7.5261651545663435 0.39054902753743065 1.157742813826374 -0.1657119696202501
Ni 2.8021241181773413 5.54248915699029 6.789430413873553 1.1483168925267837 -0.6491161307172046 -0.17695180420012752
Ni 7.880727939420761 0.815026207358105 12.671888241856342 -0.8353771281334 -0.5309091486564534 0.03834466121646944
Ni 4.914486691832804 4.724176678111326 1.6945028129435429 -0.9544405446571755 0.9518396166992187 -0.2513937253597864
Ni 1.1936845748582063 7.437273053436362 9.722965168098632 -2.9320073693736988 1.1785607790129895 3.189770745705255
Ni 0.7749015149743295 4.974889353973953 5.758618806421197 -0.20693343816388232 2.2336394436092175 -3.136649697510559
Ni 8.326568248797757 3.303652370519533 9.048458172307367 -0.049884286424952795 0.4817524844261446 1.1789076208294471
Ni 1.1809623167643601 7.35759055752211 7.241165057680645 0.8229005929329439 -0.17105755020287958 0.5990297555837748
Ni 7.310901741238002 3.524682895697033 11.579122043867418 0.8135903712756117 0.40841150964014833 -0.4574864127899282
Ni 5.0098849183335705 5.37727753919954 8.126560319660184 -0.7064046800260285 -0.27667589696534284 0.17406728356348086
Ni 5.982351875983485 2.4112701566500725 5.1409447568235755 0.09205294937320276 0.6858260845437285 -0.13168676171474097
Ni 2.617099454325734 4.1608332187955055 8.86291152168985 0.31935466678079194 -1.0560911650211424 0.3740165771000462
Ni 5.326500762042631 3.062481388227289 8.769139124936665 0.8621713655081088 0.7246890801575132 -0.11836433357422195
Ni 6.70392842034152 7.248955569842819 3.8290619851321512 -1.249066598343036 1.057230163721592 0.057052264928301746
Ni 6.517884104922097 4.725374067108394 4.36372423612758 1.115368719735537 -0.855216017236198 0.06681165830791075
Ni 9.397164976598 7.954554454771228 5.370166171109142 -1.2678526207012875 -0.45690251526200026 -2.587426838146583
Ni 5.541937235499454 0.35155621591959296 11.38501967468179 1.8691873702691548 -0.6526411131513276 1.3965306774966917
Ni 7.400584306198079 3.1041748472892547 7.010451584449513 -0.4538945816736118 1.4122401178121484 -1.076422420379327
Ni 5.98040611886325 3.7280145147616226 13.603081762053419 -1.5440029841804634 1.3412966967240514 -1.2076872640653007
Ni 2.380512226787891 5.725727091947834 2.1536584621519945 0.6495892136988813 0.21616832649858897 -1.8759002635129565
Ni 4.258055592596493 5.094721799696139 10.695068231748655 0.21249267741921468 -0.4178176334453966 -0.7201405415548824
P 6.396208802696613 5.377352376011857 10.576911195162213 -0.052868308753941204 -0.07672377521530013 -0.21724536161285166
P 3.8630014149779477 7.061582901004774 0.35753193538308486 -0.8885226018081279 1.252067847063205 0.039750026204428315
P 0.2514909787107222 8.497121344067613 12.1327339112016 -0.07039834721790456 0.49860992230311546 0.07983609559203671
P 1.8266636880347566 0.45832776697219785 1.7334965340011816 -0.10142667727861886 -0.19716273193036365 0.4845642428433268
P 7.780530802330182 2.9564937527837025 13.895406511944618 -0.0060184382799380225 -2.6372838708780257 -0.03387968346658036
P 7.867687624874568 8.664999023297147 2.814076492564479 0.8007883344149369 0.2194840211353833 -0.6374890880012376
P 1.0088189392327724 4.696178355703324 0.8504324387253099 0.040463250221369026 -0.42042550338188883 0.3425133642854424
P 1.5421060638018818 2.0340084311598323 3.6019350661312983 2.3181485191968916 1.4059067193949528 1.0373665920284456
Ni 2.1728494272104695 0.7475767238771787 5.842451003578413 -0.7796029585865736 0.546282031568098 1.6053646751173964
Ni 1.6941838210310427 0.7552390779982592 11.351146662506924 0.7260065134173561 -1.2149781412997591 -0.45303506188679393
Ni 4.331255349643808 0.18561213282829347 4.911106874296548 0.08878610569647288 -0.3189751719541861 0.40390076625398824
Ni 8.49028313034217 6.067151338939895 10.776326978022329 0.4439773225598999 -0.3572740675343847 0.2309233733205765
Ni 1.6579347400651205 5.259100857949864 11.151977841127453 -0.14836910746642834 -0.1447605641795636 -0.16045689186889783
Ni 3.0136784319952334 5.013252574887824 4.131545832295347 0.7543372420412492 0.18566295882088024 1.5746603040550042
Ni 3.808454733400582 0.027744812706278443 12.747149753082983 1.1887963406980688 -0.4723257917956059 -0.774523487181137
Ni 0.25052371291152825 2.4304751536108564 1.0576667975522185 1.2036120655546625 0.32839029462049896 3.291707786961389
Ni 5.133206630430024 2.4724586053205493 1.8369892972141593 -0.7116988385454324 -0.2536030743062794 -0.24105172000383004
Ni 9.129464344339473 -0.15925180114987478 0.9201476066991257 -0.4348794740236898 0.6652274344567705 -0.5191970024258478
Ni 9.249474527490909 1.263432483937411 10.06729027702812 -1.258956089542606 0.2712246440427845 -0.10178328928708921
Ni 0.7359096648369984 3.52107201950275 7.207963705896323 -1.367209559935071 -1.4775103997748682 2.3737280562344085
Ni 7.804749865716188 7.162911944881643 12.74341165430776 2.5854805130534895 2.340951633134336 1.0141942676770406
Ni 0.3675020697039829 5.3799997282475625 8.81987941914757 1.8275789506997493 0.2343362556568674 1.2546237807158394
Ni 1.7287210099152195 0.009689496274710276 8.63912606635894 -1.9292776506928324 1.9272187112812746 -0.7379377176373033
Ni 8.394435882967503 6.0794152215583015 2.904302559874006 1.0757554762192894 1.0514017299652731 -0.04703756100477705
Ni 7.898950703219889 8.499590958874066 10.679377758586298 -0.7568296694457998 0.6485638577581604 1.2981528143467256
Ni 0.5371075438378791 4.20346213801143 3.236757614909904 0.5898560595043068 -0.391553557542545 -0.2763650505931434
Ni 3.625534854895383 1.5057540822190238 9.415907856242727 -2.531995653761472 1.3288111626625307 -0.20834574513037668
Ni 2.938299052789194 2.9999552315366507 11.261536127978703 -1.8535982575816465 0.5767452331539616 0.6507140713319438
Ni 2.9159134913049485 6.59777240207022 9.053989548197729 2.7000496412513373 -1.763681637825156 -0.8149741389970159
Ni 7.137168081444684 0.4480498662606472 4.937353079836185 0.292497951599264 -2.0371999629981237 -0.2925192917555027
Ni 7.528714283485883 0.9059940945697217 7.893930088573589 0.643128288564886 0.6919843908356405 -0.6140059172776329
Ni 7.379255814687808 6.63981198138915 5.813302065181041 1.7428294769664954 -0.6082132218552558 2.2398877385117744
P 5.0565550254146 5.946851163140731 3.3393888193210857 -0.9294211397947025 0.4829819859578715 0.43643087767120964
P 8.141927123609273 3.1190860821433657 4.074493988425679 -1.4981105925237233 0.7793551042418255 -0.9001889824024626
P 3.538359323147917 8.990913340936562 10.450567011308319 -0.017026359354667453 -0.1883271359166047 0.20714169751994646
P 5.494425214279863 1.0461999269849855 3.3502598017702465 -0.04481329965994863 0.22000955462155014 -0.699763263450111
P 6.183400972272415 -0.323454992894656 13.794227141692383 0.22640620217651333 1.488559201389862 -1.6127722804353772
P 9.282187569074864 0.019482828626510032 6.817402543397243 0.28769950176935616 0.9838573072563959 1.4888654197763713
P 5.657803330168851 0.41732000020308463 6.7097329505968375 1.6788138933464827 -1.7323835990428227 0.6271781929935328
P 8.570901086410382 5.259044730340627 7.163452640850632 -1.608837207047029 -0.6561972059337022 -1.7054422945672887
Ni 8.546887824258247 8.251011132162466 8.645301038835226 0.74978793210767 -0.7878163476353013 -1.7236349063159155
Ni 3.284391245949511 7.1489268155799515 11.525821395215125 -0.2707569603777466 0.18237606053949237 0.7953280826313142
Ni 2.659859337963213 3.073239179997821 1.8845668006445286 -0.016062967000133627 0.4018726800803659 -0.433268420782828
Ni 9.09711613221556 1.1193529110246017 3.2863070683448194 -0.9928821364628254 -0.31754435304493056 0.15207689533531873
Ni 5.70585791827774 7.514298842513369 1.5599714818221964 0.1805528912878245 -1.5178636067809343 0.2548775701433288
Ni 8.955393918890728 2.01499052622984 5.599236976309922 1.0639286587876904 -0.9167859675291954 1.1136735914213014
Ni 5.1399606527416095 2.613441805123753 11.106892403547231 -0.10894741113569623 0.8786899319884222 0.9100532767910521
Ni 5.615473758202193 0.6049602106451619 9.160152114690106 1.034589543503941 -0.9282877975212077 -1.7679620103680647
Ni 0.8893185818652435 7.485037648897523 1.9582819962366742 0.019115894893844496 -0.11198774062391681 1.7989106362307794
Ni 7.436749195750145 4.175931545680408 2.149153286050527 -0.15937471454831262 -1.3184367614067425 -0.9678041104482753
Ni 0.16122281569426697 2.486312770200686 12.609263861849538 0.9042461831909717 0.5780166436672174 -3.3539680784531916
Ni 3.665675450101776 5.19464765334207 13.104057736543377 -0.6761445955899065 0.41033623746668685 -0.4710908909472402
Ni 3.697817860991817 7.64593679537852 3.535079599848136 -0.5142026345350499 -0.6008629521377717 0.29315846800139833
Ni 5.859713049799423 6.576125854107603 12.359655964428736 -3.395140696036759 -0.927110746493971 0.31331103168987334
Ni 2.1737848873644285 1.4347900749396725 -0.18487779660743545 0.6806810500076793 2.7356722755509533 0.9771590693006139
Ni 5.481281999116734 7.620510988393907 10.191334164363429 -0.1245959163062306 -1.0913420178036364 -0.9155402680475522
Ni 3.622653637621189 2.7099251654031136 4.305823929898271 -0.39893288072575167 -1.3161731621835462 -0.4049842291261541
Ni 8.49212598684547 4.833494551703008 13.207030383910753 0.8765541165923421 0.720829597202107 0.07199834471517277
Ni 3.742804139795719 8.618890192308493 8.248113076605499 1.5907304701439893 -0.2149694210944814 -1.3790533466475348
Ni 5.172701758130184 6.023680505585407 5.632506616685483 -2.2014579737806668 0.5743276248514044 0.6676381007807921
Ni 0.7723271286306335 6.647828874908581 13.26264536098394 0.4197639585384899 -1.0627449228922343 -0.3675314835963348
Ni 1.7088518362451244 9.16350573934205 3.8745440578176513 0.40606512089515867 -1.1406884294472484 -1.3653699356231712
Ni 4.357944027836266 0.05553265657963901 1.423427040449529 -0.9225843193785274 0.5449651125288872 0.6427102271908609
Ni 7.326523925809123 1.4038731168513183 1.85641786915174 -1.0036476025094458 -0.2795488476377637 -0.7309417459354444
P 0.5685567787538363 3.422409037064664 10.595176054668267 0.5382735594413246 0.04364781859693773 -0.10739395060564731
P 7.003490825443902 1.8644843420593307 10.275248682014192 0.6510534569492336 -1.1751304131752018 -0.9870362192050098
P 3.17411920300079 7.562643423269985 6.041182029605832 0.6122148868154811 0.7018052335808043 0.22687542850344797
P 4.53201445328501 3.8823935039695234 5.928350567675879 -0.053387157371888705 1.713527128457952 0.24490374676006857
P 1.3321513868472599 6.512589400450688 4.320720197389918 0.27166841644842243 0.22565415450183715 -2.3124442697232626
P 3.91442365964109 3.1570470551910335 13.288823277932337 -0.5383005560245181 -2.217652581262658 0.4699994576552744
P 2.207115332649998 2.195178861085478 7.547578772950625 1.2540339696506402 -1.397129744533271 1.1914211799154255
P 7.260218510096489 6.1435784335183685 0.7971598538776365 -0.17586088512879391 -1.3552680713024787 1.3783138973783489
