# total energy = -381174.09841409785 ev
CRYSTAL
PRIMVEC
9.16014224427543 0.00000000000000 0.00000000000000
0.00000000000000 9.16014224427543 0.00000000000000
0.00000000000000 0.00000000000000 13.40679409586423
PRIMCOORD
 96 1
Ni 4.55133570656785 1.7358560966107643 4.264902641766238 0.1780031282827773 -0.19402932850770455 -0.10854400504969049
Ni 6.385599210241846 0.7008800320931587 6.769908393862282 -1.3819743769490715 -1.766282565783113 -0.20841747890857654
Ni 4.1994580062116205 6.364072876201206 5.175759696233943 -0.8125151359335621 0.7514185257325575 -0.8684250597273043
Ni 8.33627896043605 5.52295198388303 8.588284547000072 1.0158819397921084 1.2396365632783874 -1.3120347145351403
Ni 2.3994534341597493 8.761291235677588 0.2968719627900007 -1.301300358836772 -0.2038198322355651 1.5248192121631612
Ni 7.923953482065276 2.0840972205354475 6.23055281226794 0.5586086714542509 0.06238601843638932 0.38971624722349013
Ni 0.9065865961997278 4.395677411098662 3.0875312515911215 -0.5436921593537346 -0.6291078059160778 0.2567063958219515
Ni 4.507797550952888 8.418280552917672 10.80523222507799 0.10493777575567088 -0.24801272470269545 2.455378836437681
Ni 5.94786349756097 8.936423993346946 9.010960985994645 0.831516102516097 -0.17436501730955775 0.2585776447027353
Ni 6.248361960626158 6.1022668535563005 9.42460094476322 -1.2714135985796684 0.10460018991059405 -0.3443835847249618
Ni 7.102673457633068 7.3007706916598245 7.087327471497627 -1.4567729101172007 0.24098384288037208 2.2293559857425156
Ni 1.863575958537846 5.847092773824341 1.4422762889076597 1.355838599093968 1.1420439150338781 0.29491016058518243
Ni 2.8017119163132214 3.390699896091563 10.498579062505607 1.0973355163829102 -0.37619790102208117 -0.09557021849784186
Ni 3.930452111840782 3.193674398695766 8.315483605738578 -0.6944035418000944 -0.7755539853281804 -0.1600264891996986
Ni 4.011711732808661 1.2308024993066282 12.617548944186892 -2.3066438609914015 -2.020146864170579 0.9016020606999052
Ni 0.7676015914627828 4.153620654918274 11.147440479386008 -1.3798989824772816 0.9218114457682446 1.4189640667995433
Ni 8.610194690996584 5.942284970994694 1.4415123330527706 -0.5516826337583789 0.2733532603500131 -0.10232193539937862
Ni 4.002359227678664 3.983370253012176 4.992032893204189 -1.1596647134394351 1.3507352164291317 -0.6740440043071358
Ni 2.3010093865279377 5.71421575186965 7.010935550065575 0.8093904742616511 0.5388073204576075 -0.2839516046911497
Ni 6.529843968598422 3.103758443400906 4.520811364898223 -0.03696860680454924 1.1372922592815058 0.9299610714585725
Ni 4.063145930952573 0.061186085471428966 7.623089529328504 -0.41637113080685706 1.261637235919195 -0.02245498656940649
Ni 8.327302021133997 7.83225129905215 9.559901740329465 -0.5294593035838042 0.2517655068769083 -2.0243549887146552
Ni 8.13996795412756 8.346840604329183 2.595206587811612 -0.05931509282054946 0.36689307868138754 -0.7304475799078451
Ni 1.3101934512769369 6.352219652265637 10.471792058831122 0.811231641235448 0.9187230366509082 -0.5761613356260334
P 2.8077484499867453 7.111384752812918 11.951312569685946 0.021651259721188518 0.4957200023498301 0.07923728566577322
Ni 1.4016116698835694 4.629206074942097 8.872347883028784 0.7831066008644578 -0.1425962095383931 0.1282545961047404
P 6.328778848516701 0.25285747978350087 1.3087360726616748 1.0344597027942959 0.33545054390139006 -0.6357795615092985
Ni 8.157930992873814 2.670621122076797 12.322291914457045 -0.1252237796982166 0.14326829590475326 0.10196249517743085
P 5.860063535101595 2.048665790718769 9.089403863252949 -0.6166163583172865 -0.920164397083125 0.22321160649861557
P 1.7124061327196842 2.4388970062359174 1.8556744199236093 -0.9158647412665066 -0.20093196916480882 0.41757414997602277
P 3.1639222570089585 2.098689326972358 6.03840692259276 -0.346803507020364 -0.08416557620532601 0.7371769282118787
Ni 7.75881443947606 3.9518410437492473 10.128242759713084 0.09082447628274036 -2.032425938648248 0.2953634460725171
Ni 7.669145808019114 0.6676488684196977 10.943402893178247 0.8938105896799445 0.08793815587388082 -0.4874508203625025
Ni 6.226643263600474 6.932358934731954 2.0119977417125217 3.3043211048500254 0.9724727195685381 0.21242660006796962
Ni 0.9546242136362911 0.2697515299414379 9.33405110763193 -0.0793954085101923 0.1404933042627774 0.5416771858062348
Ni 3.372315490806642 1.1632830915561785 2.215204503027733 1.8097627484539347 0.18009986291080593 -0.7518239887010922
Ni 2.981433905197202 7.857313447960741 9.41768320541535 -1.7501234395247474 -0.1082321302362265 -1.641227707562593
Ni 1.1485077822763692 1.3259488957662562 5.922611733709978 -0.30374652792988976 -0.33660214100733 0.6719691240559782
Ni 7.088447756881955 7.560588963459274 4.809942091561524 -0.3652010356909452 1.564440683209525 -1.6288113361761112
Ni 0.6706222505599495 7.836043597900161 4.168762369883883 -0.09754225462254813 0.09192053756039653 1.042075824578657
Ni 5.559491790899247 3.064113348197549 2.3039442960711805 -1.9580179560503181 -0.9220585287820442 1.6001425074865088
Ni 9.094381484494518 0.7210717334232789 13.297260803797279 0.31740782746706625 -0.3614292273533388 -0.8655037723154513
Ni 8.236433411056062 5.831749535731544 3.670055835071984 -0.2731236608377103 0.05867823056749895 1.445438458940988
Ni 4.812656241679074 6.176995293174828 12.018332749689495 -1.2076463835250364 0.8403267588291915 -0.4844904521825979
Ni 2.497613517385067 4.852218895603126 12.562702593093984 2.1419474771198592 0.06942981265704817 -0.14949216532727802
Ni 3.478563979545953 3.1916683275660214 0.7948502663013749 0.12521195262367468 -0.7510619137240871 0.036445130200911426
Ni 0.6146107293862045 5.969380671459466 12.78193044302072 -1.3058468405568737 1.2422714297980735 0.45478161226425545
Ni 4.690240102053919 5.151581501042339 7.216219831619263 0.28642757703546806 0.33130823959824235 0.6787120992067666
Ni 8.992355821284029 2.4073769571151336 4.246641898400274 -0.6771221290118274 0.34851406195356754 -1.1592769910827132
Ni 5.742566391808281 2.3331431651724333 0.2819006264682893 1.8893810716082107 -0.31893480563455395 -0.6133271460430534
Ni 8.1322734347258 5.9969526993157745 10.984105984799346 -0.4966402001712543 -0.2758953100455765 0.6615826386153315
Ni 7.6234550190000885 3.742916521707156 2.579976935481413 1.4613985818146702 1.0886130489082477 -0.9785986299606177
Ni 1.9629726609527325 5.866548915740221 4.648349856010834 -0.1950243454311222 0.07445220557230403 -0.8186824410865384
Ni 5.055500770083926 8.690611578887127 2.745161778781353 -1.8319621673691096 0.31254535716844234 2.0489581319753163
Ni 8.927025687506223 8.744198410435104 6.918026060317746 -0.9898184099358371 0.7502615293099789 0.438301098110729
Ni 6.737953237989614 3.724129070167857 8.099312495245615 -0.7130607518899655 0.1567730152594074 -1.8451920357958222
P 0.43322617470291513 2.437577945767044 10.158850458676227 -0.4999448390644551 -2.4149523529915187 -1.338128840519031
Ni 6.73258539469267 1.1033940822124748 3.349941843617594 0.5730256182105292 -0.03933222194071936 0.5194006337962216
P 4.7937313880076005 7.328782406339091 7.036690205720326 0.8552743812779592 -0.11517590854391133 0.33517003654649374
Ni 2.003213165395511 8.370968418738988 6.9022596236578515 0.8219279446070298 -0.29776202821168074 -0.4576553342676247
P 6.442190568413367 7.5769489773301615 11.024004815940119 1.3524946223223997 -0.5902237272563705 -0.5768249373519614
P 4.253878410694787 6.362937018575232 2.3282369930395967 -3.137283988660448 0.7893957763072793 0.003715758288690375
P 0.30823695114924404 8.021188390933954 0.8232668592634486 0.38215797526025796 -1.2603485990147585 0.17084980506744768
Ni 8.655372512055495 1.6722572296983547 1.955595082469187 -0.6124450005484161 0.869562001545225 -0.7707259678119178
Ni 1.2867801279544366 0.4421252527967371 2.6752451618315694 -2.195012475265639 0.3400379061617563 0.1849422786047718
Ni 2.7465953410270383 0.12408236948132069 4.65292168295538 -0.12668750872793666 -0.36920604308528027 -0.24930136160713193
Ni 5.203922553258601 3.9636759474005268 10.015559271116942 -0.35133199101833684 0.3612672478541778 0.07593701764794664
Ni 1.4083810149286897 3.833592768800047 5.903185820263176 -0.3685552968751588 -0.07621315412746874 -0.2917384477254201
Ni 3.5110092030233777 1.1133145161554592 9.905569780325632 0.08064265065373208 0.6857178411006385 -0.7206254516111009
Ni 5.48966402732827 5.153853216294287 0.9610509693651902 -0.5377153729450094 -2.081104634800874 -2.105764856551715
Ni 0.038157488119016786 7.964358869066664 11.667007405904606 -0.18714519979336156 1.4312595963374446 1.429742645472286
Ni 6.273414949392605 4.496484775403871 11.891356691304583 1.2362293373690516 -0.8624233336179147 2.3070637221376398
Ni 5.148265529585866 2.8370242642820154 6.423154877021939 1.7811656535425326 -1.5620858098241033 0.9146123569166442
Ni 7.042005836207042 6.728243487315963 13.057935602004516 0.2156656758305576 -0.27761126429541866 -0.09762247304118027
Ni 4.430568392528788 7.816019527171293 0.48188484977690615 0.5861708973432356 -0.47975550860077376 0.08172868462905926
Ni 3.54668795667797 5.542737890916128 9.235538358934031 0.1828468295283238 0.16839800109284547 0.6598296604799668
Ni 7.892992201615334 1.1713440166437372 8.458051142068415 0.7422759400013409 0.874654328466468 1.2735453002106907
Ni 5.51100715852601 5.131282626049122 3.389572282593519 1.0624885839070541 -0.3978103370855342 1.6670876060484903
Ni 4.8623042121047195 8.727233827182651 5.304800450658327 0.6498136710048615 -0.30309758149198124 -0.16439247947787816
Ni 6.338186314499568 5.629777561577472 5.644085703607889 1.193659325217325 -2.289761740524082 -0.15400085183090895
Ni 1.7529122812846671 2.3106916567751536 12.603499118164962 -0.11889552348734361 -0.3707443341066776 -0.2752710461980163
Ni 2.0417590435414743 0.10071576288375973 11.6390817965615 -0.0050617307936235405 -0.18118949643055893 -2.647447184564273
Ni 2.156389062343418 2.4769390765639074 4.012210960555561 0.438623000226522 -0.10996119711219125 -0.023632037596643174
Ni 1.839484784696619 2.1110463587258996 8.22084468115378 0.3972907171366384 -0.0230054597562378 -0.08210406569060698
Ni 0.7682473814840021 3.8755553799660776 0.7168168473969483 -1.657571696138255 0.2935595600945589 -0.9341823086287717
Ni 6.1375334008143705 8.99230086043116 12.563224721196246 0.1232478869187684 1.2742009315168186 1.1710004501672284
Ni 2.7041380821851804 7.985729480690839 2.580821500587178 1.5887126683830124 -2.4898323901298602 0.34407788055908484
Ni 5.616486195325146 2.0022330301860016 11.385813942409907 1.812109137198924 0.17245648743293526 -2.5228543535818355
P 4.160939608492092 3.3939242661265867 12.326421306535991 1.047566672489899 1.1290634436138103 -2.7453573640492013
Ni 3.2584274435184395 4.1845544549417815 2.6705661612239275 0.43013990245617534 1.7537435527758378 1.641815461745263
P 7.639998235713874 4.21906071040182 0.3558403778481365 -0.28079634689161964 0.18592238312985399 0.017235647151996124
Ni 9.054104339483159 6.444105038121661 6.080584797099196 0.6143848978836064 -1.5911405610982146 -0.06703303029009745
P 0.9797962842506224 6.979780990616376 8.149131760329372 -0.9093945601611306 0.016180466414604393 1.1112690957448668
P 8.22498323337487 0.22208947833281778 4.889484185877224 0.6148528386589605 0.530298511655648 -0.3383368643102495
P 8.091135236352816 4.19659088172025 5.815920810105066 0.5716945581039315 0.7901205702884456 0.05426570332210009
Ni 9.102332487876337 3.389783881877068 7.781209154992042 -1.1382173421989366 -0.4881524744152173 -0.3047770260769332
