# total energy = -381173.72193643864 ev
CRYSTAL
PRIMVEC
9.20210873531467 0.00000000000000 0.00000000000000

0.00000000000000 9.20210873531467 0.00000000000000

0.00000000000000 0.00000000000000 13.46821629753809

PRIMCOORD
 96 1
Ni 2.721422378534794 2.312821152879468 3.0024694968257815 -0.5798017605920983 -0.058782360245531025 -0.33913622028309337
Ni 4.832146823582759 4.862394154365117 6.666888070671202 -0.7904396441907613 1.0175932660562605 0.8251443946617982
Ni 3.586392975294556 7.187564536909911 12.456214299462626 -0.5504217647680842 1.4071932994168603 0.546240122586569
Ni 4.896451158084469 5.435427857583559 0.3460333290357675 -1.58862447954458 0.23572465136396176 1.2669751031923406
Ni 7.450367554802631 8.11138261780511 5.894378420134435 0.8282865398352058 -1.5328333407168893 1.2865458262354166
Ni 7.391418847473216 6.3886006647324 3.375686774709789 0.2921169141107614 1.081304945282609 0.9991085769885115
Ni 5.858706446365706 4.389562211076429 4.607705555786022 -0.7941646584508323 -1.1498143030079166 -0.7017414702224044
Ni 8.439842680155428 0.5635776164791805 4.694373774680906 2.0256564811348983 -0.2553023163855732 0.05533939600225308
Ni 8.743328219918792 8.869479925941107 10.210928341394478 -0.43917553029588235 -0.55158493183825 -1.5475418505716574
Ni 4.230181691103674 7.97541226196692 1.3946743314796053 -1.813879855946102 0.23365285643659758 -1.0010189066373472
Ni 3.1784082909116416 0.41379765634981885 11.963964066725524 -0.15662826215142703 1.192705703054804 -0.24048633441866324
Ni 3.618554344653954 2.965913200426026 -0.07874704386067276 1.5009961416016342 0.7893384407067825 1.1679979158954787
Ni 3.2125573157164276 1.9670059138161808 9.60022488664252 -0.29995955008363173 -0.07521248077709627 0.2439179858080315
Ni 8.481758284570896 4.3265921823135205 8.974706957346445 1.4921865137298045 0.009499711960319122 1.1260328843176028
Ni 5.284062374152159 2.671666577640297 6.155352058848715 -0.1487887115023502 -0.49909328969743727 0.3302623148322312
Ni 7.864296801304621 2.6678016920520435 0.5748787259814057 2.0121941849824054 0.25550363376310187 0.722317237491227
Ni 0.9215083516507895 2.523899118649391 8.038800986668557 -0.30547199526142876 0.1903120275571174 1.0748288506399617
Ni 5.906456187597728 1.905048116993054 13.270973590954988 -1.229374005010115 -0.62391751996439 -1.8693699185936061
Ni 4.354897868193209 3.6181402497694983 11.103937762886165 0.09172256261697752 -0.05447370556784811 -0.7122984198026442
Ni 5.21960160380521 1.4783187375071083 10.97875135805006 0.3566649731954761 -1.2773279071815742 -0.1938418950872468
Ni 6.888928508348951 6.330130467047244 1.0619288471805963 0.26372756433479094 0.4324014447968424 0.19463713729503254
Ni 1.6614867080647118 8.263695918416486 2.1493659392436686 1.670230008332214 -1.1648722257823034 0.3041807872538309
Ni 3.510972493672344 8.312586721107897 4.949636584833113 -0.6761047434909067 -0.37147427029416674 1.5331483008541467
Ni 9.128123590772182 7.299204517759187 0.8523195379342103 -0.08742650634478491 0.605528475934241 0.1837091775286191
P 3.267917200713893 4.915269470055848 12.436038676481086 -1.119847581442497 0.5745657090041395 0.25614152445741695
Ni 3.0799181231709722 1.0494268625134495 1.0414394322977247 -1.1250085568181465 -1.1323863373394565 -0.15244302042548583
P 8.353324455629801 8.416966238316382 2.526826309377066 0.05317298447855358 0.10355889313027326 0.7983159616150445
Ni 1.5910629713816 8.636445729186486 13.433252775118934 -0.13940907005966313 0.22888268874146386 -1.8480698715642494
P 0.5295114106512856 1.4472524190643818 12.968464394908086 -0.16559806975020513 0.582612747678332 -0.9441949556697674
P 5.364194335348622 6.858497135395724 2.601049596677773 0.271101745311675 -1.3616690897328163 1.8870035725149696
P 3.8943507398100423 3.993503459365841 8.951259064566852 0.4113824193430141 0.4383165247296967 -0.18534542758046144
Ni 1.3449157699525454 4.986328152228459 4.774361262773237 -0.3681603754295853 -0.29401464535410654 0.9928381705987676
Ni -0.10353568385504966 5.242864534203081 1.664712047109195 0.33683482584342633 -1.6910803694186616 0.35407664364300956
Ni 0.21008689867979172 2.5703237562511547 3.3102717457068835 0.12406626905500569 1.4921206934888753 0.6543838068740472
Ni 7.482170041928834 9.313362035752064 0.522319042613716 0.027721377174668382 -0.5835136622260467 0.27200008875622833
Ni 8.220556433564738 6.878116030810383 8.38532478808969 -1.9636615274893408 -0.9305359701254362 -0.20204011462732302
Ni 0.3997027866937987 3.0749673887745894 5.91346267304272 -0.38733360592392646 -0.3678292173424117 -0.5768941000269999
Ni 1.4328879276280382 6.1354414565932265 12.586869517406111 -1.3437508146914985 -0.7767513480703913 -0.5031615462295398
Ni 6.4352185466135765 8.57515968628703 3.995831592827337 -0.1501511390675156 -1.1276809614439869 -3.192613100250056
Ni 6.364840820473181 8.242770323588655 11.211616236007481 -0.9013223246759574 0.25524883743981847 0.8599098231674417
Ni 8.453793076707317 7.777382886111626 12.166930373814386 0.5734472791289801 -0.5956734375170322 -0.016952825804254675
Ni 8.817515618996179 9.015020474664496 7.7133012426366685 0.4673203681612145 -0.7605397713075354 0.2926373053906057
Ni 5.912198303328848 4.9013374777210466 8.791418439166923 -0.43118428456028973 0.8800554448773812 0.7250971142292093
Ni 1.756480074558866 4.000082966974416 9.734395310049608 -0.43561326686592067 0.21844503834790768 -0.09618162682959565
Ni 5.074429139423559 6.467269490670453 4.824759370844067 1.0331618099184787 1.133291879872861 0.35134356098256264
Ni 7.500362610519257 1.2889209394655814 2.7266804633565283 -0.8211224179865987 0.36154029900990636 -1.3273906281659202
Ni 0.6687485150224033 6.799134333181853 3.58301672166996 -1.6336342114860511 0.41426051222175747 -0.6233701321013523
Ni 0.8623967670001552 1.5108757975338756 10.665170185003664 -0.6804290818978732 -0.9637965319507789 -0.9312833898144219
Ni 8.24070905127492 1.8281368937868017 8.875810056408154 -1.1193652424894398 -0.1968133190107449 1.7444479864065245
Ni 6.5291352664081455 4.245889690387362 12.716554833109114 0.3687206188084295 -0.16651492513751967 -0.9255799116717415
Ni 5.068898672188939 5.892045685618667 11.386797696560215 1.4186943580779243 0.0434326172623381 -0.8191172146311119
Ni 1.5872993089873244 7.954560284007436 11.03728413007331 0.5883928446952189 0.4954145552942694 -0.5697855140066769
Ni 3.2014687749215565 7.815691263978057 7.493944139810194 0.29316926663467574 -0.717872314345996 -0.20679074193843097
Ni 7.375729252406614 3.749555561878674 7.253065145522271 -0.27927116849634487 -0.41681233210933377 -2.0233990525592893
Ni 8.00242045054198 4.55395788020537 4.892195182883118 0.9776846027867807 -1.2818558769589148 -0.8632908238245327
Ni 0.4291467734003128 6.035267302989104 10.219130180739263 0.16069420469068454 -0.4493339588861229 1.0963307292674798
P 3.8116513903299527 0.5486913654884226 3.583878959240482 -0.35871028576027897 -0.5919502230291741 -1.701985703477256
Ni 1.8391610198218686 0.28999340821694064 8.50201304568591 0.003349376088207135 0.9449580590880371 0.3066302772355881
P 6.999215779242339 2.167114966202297 4.641349384831771 0.08901313410561444 1.4175633297972747 0.880395344715303
Ni 0.5056319389810027 0.9969564395986313 1.5876738348050432 -0.41956392671254195 0.18007800853393502 -0.20186707938456847
P 3.0310917352393645 6.305119136026115 5.970836899600349 -0.279521336833938 -0.9088633702480089 -0.5230333454528026
P 5.2701211797088146 7.3668584197707165 9.50975895755175 1.2798298476678218 -2.2063633815020838 -0.4381028660569939
P 0.9839998707694373 0.9014091061701607 6.48987539051832 -0.6052466830277641 -0.34586402592523013 -0.35558253876457474
Ni 2.4538342641994744 5.591265565767081 1.1585969974296606 0.024052155853197286 0.41108494270725326 0.6068237977068969
Ni 7.489485718220886 1.315303384659686 6.667170575403487 -1.673315332125757 0.8489803207391314 0.2240158475674658
Ni 3.224243993566624 5.995173716065241 9.837373346126924 -0.16203606343055965 0.5711996207453841 -0.3830519478294371
Ni 1.4308542616399333 0.42197004894726714 3.892409094907372 0.6199739619356097 0.5201580807875364 -0.1208809293484886
Ni 3.4038415460093643 4.007444653809185 4.845756742118538 0.7099515168370225 -0.019795951680004618 0.6523413225227217
Ni 7.058431347719514 4.255331053752954 2.514852525740314 0.2161729544842793 -1.307886496694722 -0.26154006976516897
Ni 5.258443703967162 0.49580132642402264 5.390707450484044 0.026527099756251088 0.4739268177341386 1.7198168181214057
Ni 5.2773632391325185 0.9639300720361476 1.830371165741154 0.13873466970045786 -1.4080556474171555 -0.37485012874493506
Ni 1.2546338830326433 8.003267044527979 5.536635407977112 -0.7339368240080263 -0.13200352162421136 1.6719320786249854
Ni 4.225424200986704 0.7044370525865105 7.583171465091015 0.3735926021887502 0.6856553632938192 -0.07949619575411469
Ni 6.602770538972925 -0.07066483192695043 9.004472097641125 -0.14053701301651925 0.540403461300134 -0.5984875099270596
Ni 5.024986210219541 2.1769152118010835 3.6701827746370457 1.193087511874255 3.0589486459836546 1.074956891577394
Ni 3.058882103040619 6.450540057338439 3.61573113775282 -0.32294881188995345 -0.5695258325873869 -1.0608927001748438
Ni 5.906032890604728 2.408541485948556 8.544384154474278 -1.1315396730684448 -0.5273900797596014 0.2853736818496569
Ni 9.05615389985377 6.125015467613485 6.037895425189117 -0.4816642955877124 1.6937437751834377 1.3534960670037206
Ni 1.3063129246127239 3.322531714919337 0.9982484156381334 -0.026914307892340745 -0.8180633194453008 -0.6970422649745222
Ni 1.9138913433033204 2.9415276127858525 11.870023421448742 1.0252191580326344 1.1614140920303742 1.2095456574302783
Ni 2.915191178134466 3.050655418002764 7.307597760961679 2.0136396591796806 0.8027156333446369 0.06270560655933717
Ni 4.141399747876356 4.41091110289726 2.6603636277163636 1.0251731352860474 -0.05444002411643527 -0.8884485540370828
Ni 6.8680581261723805 3.2773217556453105 10.548226108789937 -0.05624802385945152 -0.5229760098523057 -0.24179733992060293
Ni -0.25002496996926943 3.9097090589690797 11.629804218343386 -0.37251042486816494 0.5586852903284572 0.24395295281102503
Ni 5.617648010961185 7.683677814813557 7.239732210453649 -0.33675460742479424 -0.7394757515483845 0.4670504023292795
Ni 7.583761320248651 1.1733056477255297 11.845524647873484 1.4726960091053605 0.2001387838395521 -0.9769343548843176
Ni 1.2389902985087589 7.281674500983893 8.599711832091842 0.6064959820538328 -0.027532143981997746 -0.41033906568016426
Ni 3.855573054407895 8.774339325710258 9.74010613861168 -1.1796059324480526 0.8208853622751282 0.5157113578700925
P 5.6217797576972 3.4424996040004467 1.161341066197321 -0.8527588139449572 0.2752561337996808 0.7320663464581909
Ni 1.586618352955108 5.0702513821448285 7.2667081916488065 0.2007190818230543 0.029915556612509775 0.5492495988368541
P 6.95915900075265 5.830547994222713 6.615830171417806 -0.6453525499097144 0.4532538627658193 0.009198121559500288
Ni 2.5405733393301433 1.8412683026783212 5.486951383529255 1.3328570505971302 -0.9779265435942577 -1.1681930626254204
P 1.8276767883596288 4.206955569139977 2.9438152569697573 -0.1358393504305338 1.4503168700792122 -1.5547838768460511
P 8.049986149603132 5.728993524337071 12.848125660852675 1.7016607160376693 -0.15448961854186943 -1.1296717666217708
P 4.937667402250632 9.141337818640594 13.132116533666716 0.4036176877959307 -0.21706075640587133 -0.46594148553581693
Ni 7.30110015211914 5.670412901349394 10.484440773210077 0.3444188088382713 1.1872372237410649 1.5360865575468643
