# total energy = -340861.69781680417 ev
CRYSTAL
PRIMVEC
9.33873583542257 0.00000000000000 0.00000000000000

0.00000000000000 9.33873583542257 0.00000000000000

0.00000000000000 0.00000000000000 13.66818386902743

PRIMCOORD
 96 1
Ni 0.7965913577290549 7.492673143233689 1.1747559908772591 0.3494203758179208 0.4295027830928087 -0.7787529518814523
Ni 3.167475036244088 7.614310176358319 5.770064889036674 -1.031740761201236 2.476407632083522 -1.0857514110897364
Ni 4.4968720862548635 6.127434025420048 6.51499436060485 1.4178790612654808 -1.8032046356204428 -1.1570162200729945
Ni 4.895411973059216 5.069317910168378 10.128301575357431 1.6942870492814175 -0.5292024503779919 1.6450475955293153
Ni 7.234541148408516 4.436123610210664 2.4441722089223634 0.2841426376560332 -0.02050069105651308 2.6602929301786893
Ni 3.8414609339513914 3.523000706190702 0.7126491975798002 0.13659705453216472 0.4190072828781235 -0.42093355336655897
Ni 1.9602566660313574 5.444305505414932 13.33861619410076 -0.3791559552091406 -0.19364520569540844 -0.02251643593496122
Ni 7.092751123538555 2.0076881048981514 0.14628008901785547 -0.0929662052160915 1.022285015104975 1.8749769803677387
Ni 5.507510068960997 4.750381406884514 4.463618716001491 -1.6389247704610288 0.9885590836074395 -1.2291294930994767
Ni 1.1561635018755068 7.639842279894804 12.423969208406639 0.3783067198349678 0.11306220463501819 0.12889505790221673
Ni 0.8582270136693659 4.445966637689616 4.095165434158186 -0.7426541492763662 -0.9144647755951862 -0.6382043689007073
Ni 8.880343904315303 6.424237724979892 2.8870206613591995 -0.3835923937139394 0.2335358712427591 1.2812830351745805
Ni 5.857273738950766 4.375244391865984 7.272389176650167 0.05756134335423635 0.5711132316791647 0.9382035139730229
Ni 8.524407329995755 2.3091238173892674 2.1932646600722547 1.2591476367281216 0.6968026381598903 0.4970225232113376
Ni 3.535430563471998 6.201994491636327 3.992968847241275 0.7275044381191214 0.26652029658857973 -1.3245135637284415
Ni 1.0879907309112231 3.786614538900263 11.878963391743035 0.6619744747371116 -1.1497438547812973 -1.5106110389835792
Ni 0.8759267195335587 1.7077559288625492 4.232763300550631 -2.0719016281453673 0.14923248390798813 -1.3542311453975322
Ni 2.027887790322226 6.40980003951266 7.541406401863829 0.28585987745745606 -0.07844487167146491 -0.028956020912717876
Ni 1.0770737488211894 8.230974914041132 3.3984434503975067 -0.8091616460802967 0.07398735012074355 2.2013618145224343
Ni 2.5534531607781097 5.299237584297236 10.115522449359139 1.638429061771533 1.302644531569492 1.4946439741313613
Ni 6.482782259387439 2.9727063634727053 5.4316543200963965 0.9857918052749475 -1.9621980555699368 -0.40953225350815275
Ni 6.496024586678857 2.7429547865873207 10.018341697412767 -2.372717098471391 1.158999054830978 -1.0717355564266189
Ni 1.0658018947727113 2.2815652081953495 9.511470608178294 -0.7886290733445838 0.7122112594054767 0.9061128040860652
Ni 4.266139942115884 0.9670447642319854 0.9925040256296334 0.7664818478235832 0.9770140590823173 0.5625393739672248
P 1.4194131238908752 6.564113309021405 4.66989924833009 -0.3681392923836628 -0.8289306011771079 1.3477951599642013
P 0.5840305256095683 1.5468214957080975 12.513236315679706 0.5116343595872413 1.42002490396389 -0.8140943074952237
P 2.907802150020408 6.885375157506653 1.7871697360473409 1.7874800257963346 2.0738371546051835 -0.4023827869475651
P 8.20598445717806 1.7669354973009965 9.192987967451808 0.9628539655318515 0.9445690511797346 -0.36442122010212724
P 2.7138179310519015 8.499781083826877 7.668767146128733 0.33753905099930254 1.1290940397414295 0.9141256470882128
P 3.798586798129881 4.671357024980436 8.41800177487698 0.01276681274736511 -0.04875042993082572 -2.081354546028151
P 6.847627987611086 6.996487435442687 3.044574472172683 -1.0564050967171355 0.7391361088207787 1.0550627237566281
P 7.808555879927783 5.793079269415356 7.56219629538721 -0.17151674922748528 -0.02945995713232991 -0.7916244085274818
Ni 4.267316622820199 6.873916528743204 8.569076370828133 0.35320015457532716 0.9393911065232209 1.4384851675516066
Ni 8.039867025683172 8.935657236153858 4.199071009717077 -0.2789094142815519 -0.26812492207153826 0.8239971684312326
Ni 7.618391203880426 5.041525832580747 9.652280065794658 -0.036821796814039805 0.5393063715812131 -0.22103233945910966
Ni 3.3241883608402043 2.513361968209662 11.215223021025446 0.05142746254235659 0.7263554121163427 0.564889105146324
Ni 4.889332456086921 8.379376763821053 13.317198737535078 0.17643346980281227 0.5244363964479162 -0.8036139767891902
Ni 4.708375773487616 0.7167871913899746 6.559580286689066 -3.061978948169546 -1.3318327230976739 -4.061920562582314
Ni 8.156283705524373 3.500531707979734 7.07204154314261 0.6097296584997822 -0.9406157229589414 0.8414084219291444
Ni 1.6626591739328882 4.033614760713186 7.900469584911986 0.8254966357948944 -0.3673476497203028 -0.11376540134962987
Ni 6.24002182360435 4.456631473914439 0.43125441200503395 -0.4204375875667469 -1.0087101046340177 -1.671700165119837
Ni 6.438824830219098 7.980528698737001 7.0501310013294045 -1.4646404857907356 -1.2478288692811927 0.2877882048284205
Ni 7.880884388300164 9.080911931986526 8.857570463318934 1.2301782460789652 1.0172132570090224 -2.5442441321115217
Ni 7.792558625590549 2.0171855991544083 11.634357621776036 2.4639874040422987 -0.7281035051557008 0.334400762480637
Ni 2.718552670076407 1.4307036554108505 7.444772899832319 -2.0500197404706113 0.70000906091233 -0.46076508354120005
Ni 3.884288376094159 3.3326399166926257 3.6271939148106482 0.08169988827365285 0.03922012184288729 -2.3602819580318317
Ni 5.173080603070318 9.175457292704664 8.458063083491034 -0.6142658558072389 -0.43573899381050757 3.1033094314872165
Ni 4.988799330544536 8.20629263545776 2.163987723500607 0.14078178203747369 -0.44368087436540365 0.46442607733255503
Ni 8.519327057748553 7.817577098660865 6.586615926681067 2.3422037603738826 -1.0745442295200076 -0.5035868066924165
Ni -0.05832507411745659 4.558685178174398 1.6483970566977302 1.766162752375797 -0.32115623876590493 -0.9201715961719765
Ni 9.20519182732799 6.0272293908383 11.253931146829537 0.20262478348619942 -0.05821877443257715 0.808534296908943
Ni 5.7889422094787575 5.93619539476161 12.278361508362678 -0.42463645613944284 -1.235591960895369 -1.5208239749608388
Ni 7.195141022285459 7.506074229032833 11.76837408300892 1.0006982900731347 1.2888415642481288 0.08967133651490362
Ni 7.411575561993437 0.3822839494868819 2.040058030749713 -1.2377393462556747 -1.66942268193957 -0.6310019376149971
Ni 2.1882338831245205 5.090442130431558 2.2643940747745237 0.17666538330796025 -1.5196952606730343 -0.48122669382966154
Ni 2.793580073080113 2.101140833533711 5.2275198292428104 0.7573102086266442 -1.0502254502689847 0.41700002264010766
P 5.597395400540617 3.111853526125832 2.0392110074173213 -0.9117818294463845 -1.1119111002042399 0.15672365007871072
P 6.787916111234972 -0.05296090430349981 13.729143445632872 -4.167604729585706 -1.2814869236552704 -0.5802447616667877
P 0.13903509782414436 0.22815558694596008 2.03956681324934 1.0834736707991535 0.42009614506692805 0.01644529004021684
P 6.777876970305301 7.6373675149214435 9.543029931766883 -2.8598079643913135 -2.934155526064953 1.5365287872906055
P 4.394995817974128 3.36480252261057 5.789158868148123 0.4528867092343878 0.6160054642061649 0.5865169678287446
P 3.858943047272643 4.573636494107797 12.162140941972197 -1.0949855280934948 0.37480050645392227 0.23802501736236428
P 6.676458300076244 3.8996879513434886 12.03733714355524 0.38312188183542406 -0.5474601110365991 -1.322710963302064
P 0.7467495911655646 4.731022207677807 9.638871509006917 -4.522703129625011 -0.8360502429410247 0.9325036353747682
Ni 8.66069683950983 9.29946636470942 13.15028284413369 2.441866660883859 -0.7597136758618142 -0.23010293430181017
Ni 0.11719926589692685 6.997757503504488 8.84029380218415 -1.0186093660256006 -0.6851948787176328 0.45767718864449564
Ni 3.457648233422475 7.21702168014427 11.600023759796558 0.8546925406325603 -1.152522188857383 1.1466988973073864
Ni 2.3611592529800873 0.3664389165423476 13.320601772841844 -2.708939230431483 0.7446678372722854 2.780464235054663
Ni 2.568068282224562 9.000524094663161 2.027524513501608 1.3685653026320173 1.3135364958916473 -0.4577334958037278
Ni 6.147661727051369 1.8820447541374017 7.580853221665628 2.575911124197499 1.9763972298884542 3.0192770384256455
Ni 2.605413886482942 4.7527908007076345 5.623090931952703 0.4720475984335548 -0.47085023569134393 0.874970831265622
Ni 8.815299609826779 0.8550453063998411 6.924971397080428 -0.8077022879259509 1.4216464987277129 -0.8675593692928993
Ni 5.462460007710079 8.07812782604491 4.904827286440886 0.2255186573652374 0.1982132846820651 -1.4149446612275052
Ni 7.293001634194327 5.684861999561368 5.125254135681361 1.8869989445292792 1.2491655858147455 0.6975163763974633
Ni 2.4008021862326054 7.943808789773772 9.833629909168977 -1.102923551993649 0.1334230276795573 -0.7006240687885095
Ni 6.753344111493908 6.8289505161140225 0.6574778145246227 1.1381777472102528 1.265627845135827 0.06347230952203263
Ni 5.319194462591849 5.686785779125565 2.127699264128961 -2.1163184636978456 0.3644554157741723 1.7219541761793828
Ni 0.838156202798621 0.06443260729699651 8.76736107760884 1.0246943958774157 0.17247525648601264 -1.3158430325376371
Ni 8.527330354285045 3.942590103372244 13.203096196412364 0.26486887702808576 0.4333668940339052 -0.15388180975454144
Ni 6.390328775476972 0.23412303908927204 10.617362761645879 -0.09998300285355684 0.12132418753349428 0.341378993570683
Ni 9.255228773468623 8.675031798883829 10.73983000837855 -0.10340874070565416 0.050457899540235676 1.0119142133936123
Ni 1.5182169481103438 2.698437033274069 0.5407006594835295 -0.4780554951905315 0.15045324368896668 -0.8867714234449761
Ni 1.1967683249101237 9.077624697003042 5.61938625548126 0.1266959933683689 0.039753368638537984 0.7103950321323443
Ni 5.277553039889145 1.4400797461023767 12.366685403325143 -0.5391744739890392 -0.08082314209565435 -0.3515374221609236
Ni 3.102710903828019 0.9272290643681192 9.506453839334183 -0.028373151826054363 -2.434682484430594 2.6443256082161555
Ni 5.695816336594397 1.208777939082736 3.2378284020056545 -1.3152611918922381 0.5563553566436998 0.8949228489075167
Ni 4.179243005975794 6.207354925955984 0.11552763219793963 -0.7989145144309918 -0.46727228853209846 1.227842655967253
Ni 0.18718748709072508 5.216393659472009 6.272835339403967 0.5523135824741585 1.4486448816934279 -0.45256686400112384
P 8.844529852719685 6.208270122059341 13.715065301491961 0.15413557763656036 -0.7807267877783716 -1.3627677221136336
P 8.24517913111465 3.525008534376636 4.281722556585884 -0.2868716065514221 0.11743539400204937 -0.5834516986398597
P 0.9495719896464819 2.8336339107055664 6.273941979590167 -0.7567054851631096 -0.5562206308380485 -0.30347296255352896
P 3.4573493938785216 0.056118330860078475 11.786020558079345 2.4495354902830266 -0.2592499881794116 -3.6644228716411926
P 3.700175200811851 0.34019146584752363 4.118046270615664 0.3328480732815365 -0.7843852104665653 -0.29252263418961233
P 6.719126983711286 0.6331541433939963 5.928068826913237 2.019591248777425 -1.0674842373494324 -1.8070304371244363
P 4.435395188822278 2.3899972689715545 8.977085735681497 0.9492643997728748 0.8234793482545496 -0.34941703338381114
P 1.8951656778640895 2.930794117433294 2.5749630708277036 0.02361275432293353 -0.19452760830036178 1.1366741660815327
