# total energy = -340886.5681059942 ev
CRYSTAL
PRIMVEC
9.09212314041414 0.00000000000000 0.00000000000000

0.00000000000000 9.09212314041414 0.00000000000000

0.00000000000000 0.00000000000000 13.30724126188801

PRIMCOORD
 96 1
Ni 6.666117496168629 1.899717333197353 11.48756955647349 -0.021833293825007562 0.481013549377591 -0.08752935047123635
Ni 4.870832291127572 0.4845101582205204 6.004293658678451 -0.30516706242650027 -0.7870869256684445 -0.2825922624497778
Ni 2.788726964650112 1.6124971583360077 4.578582353659918 0.08860484292360224 -0.3857492921559421 0.924856917462788
Ni 3.289075601648994 4.061696962813684 4.020809684360013 1.687069962707688 1.4629792960382288 0.8482231308581327
Ni 3.6719176371946314 2.2481365899514407 2.3703920074012066 0.06293597740258838 0.8775059389826501 -0.2658546379801228
Ni 5.039472993986966 4.376348073653398 2.3886362620031933 -0.16399575826009177 1.2039576218195396 0.5351159876489494
Ni 5.327875144876546 4.816861447253658 11.478307410473764 0.09571240050266097 -0.1511667248162235 -0.5788807914397256
Ni 6.018631027900954 8.33410388296867 12.349691960920866 0.28377239880080807 -0.27569630666089295 -0.30648732389982053
Ni 1.9069910318326515 6.355694222660681 0.03300986283164295 1.1710487869066606 2.0057517717911715 0.4726286677480054
Ni 2.9866897651330517 1.320694553334424 0.2922672125019132 -1.8215970220847018 1.704806460755503 0.2708855155358109
Ni 8.037209688922376 9.17367964007128 6.688618682896924 -0.37034555600636215 0.019794151907791716 0.2658063012406906
Ni 8.815186310707304 2.712580432061831 1.5136585044302553 0.1007749026272329 0.2714694130637389 -0.6845402758527694
Ni 6.859161457949448 0.8923800815578898 4.80032105655699 0.3252206386432657 -0.07389890417199531 -1.3439454472008079
Ni 0.7433556347055669 7.189469205101642 2.167203963661134 -1.5306425037131572 2.605936981135628 0.1630583340474869
Ni 7.749107578101501 4.072734800492749 3.790141607175783 0.43432977216780677 -2.376842176383358 -0.23356389626721713
Ni 7.765200636332098 3.816546042434246 12.429789021080442 1.256312481272172 0.9145534786542507 -0.10332466563228011
Ni 8.228626160633548 7.80447860896271 8.54249080280832 -0.8025809075389855 -2.328587198031712 1.471695335754988
Ni 7.103766850931239 0.9163132777050097 0.6582333580013285 0.4659872511720878 0.7367023025683054 -1.4158332344800455
Ni 2.1199467436276005 6.58492483515211 8.963398830949462 0.143573742960314 0.9515187430246904 1.323850733333462
Ni 9.063173973554509 5.241509065705673 0.9768504530219395 0.18405113424907013 -1.252551471567843 -0.6585279109494078
Ni 6.637004517380847 2.017824014788011 7.065133509842181 -0.9625397767255423 -0.6280734511142926 0.21042473914659246
Ni 3.600362626869883 4.70082776977406 0.4604278512513768 1.0848484396594928 -0.16121870973558686 -1.153470411703265
Ni 6.222330958182485 5.581509016289401 4.535573882841728 -1.3520819602650134 0.4803836291030759 0.7442281786317053
Ni 5.291515743823349 2.913534541108538 9.61111532993648 1.1868932101380847 -0.9252927194486257 0.3427051685812743
P 0.36842374642581677 5.731301747560078 12.17997202302646 -1.3498070481879074 -1.0527824123628837 -0.9129573378117245
P 4.127196619024546 6.4078466418757705 12.397837481400236 0.289666652798056 -0.38315736305904974 0.0992137287877001
P 2.233907416996138 8.581391452322226 1.284403343205932 1.3869623170819663 -0.6479203106368907 0.43015044397913654
P 6.486420771383582 7.678452687982871 5.4998299266766475 -0.6833259438296941 1.785310014728209 -0.4091915823392824
P 4.9434510798777325 1.299409892702882 12.721017913102168 0.43974014455010074 -0.44858911030029835 1.0069044188838465
P 4.530550484721725 6.050153419361678 7.958715570099553 -0.7194494290251288 0.9820518786165409 -0.07336642870729301
P 4.847110941453205 1.0266007332627216 3.660023321501259 0.9153960291602042 -0.6971309680335864 0.5157334693572796
P 0.17045912751821796 5.577572126903046 3.834774840426633 2.1699395914574113 -0.014989531430296766 -2.3071012602437944
Ni 0.4278444090022282 0.31298179700291356 4.965650408112663 0.22424030487344607 0.23774836666220991 -0.79883892399805
Ni 2.2523917036530903 6.404364358654121 4.949761922656183 -1.792816093297267 -0.23525053994102066 -2.1205864949455804
Ni 6.323735409281839 5.956313614843034 9.306591935234087 -0.2923256876874578 -0.1419536908583878 -0.38857776274367267
Ni 8.82238727235625 2.63530647618508 10.04857738695923 0.40681099792224773 -0.7690249259604109 0.7781261169307307
Ni 2.3864368773783453 5.4586744305858 7.001125871063884 -0.3481353384579101 -0.7122547110489024 -0.015663931789502056
Ni 0.6932216668617726 0.14129523283998902 9.030440511271008 1.533857153995713 0.6387121617750613 1.6328747076122074
Ni 1.830653564655195 1.1949868566698796 11.184896408861453 -0.557487413365614 0.23422389844871916 0.5141201021235726
Ni 3.9883053435835234 6.920724224773955 1.3376704567368813 0.6247551853743368 0.6493835254459784 0.6178849406170649
Ni 6.005911147412475 8.026490075558605 7.863634690751263 -2.1936616176646995 0.8360039630841216 -0.11420763109337105
Ni 5.460411026134977 2.9618409921702136 4.619728757627471 -0.5741815861918433 0.08670016970172165 0.43542326234230166
Ni 0.9085240556789346 7.783257593194227 7.035099498964705 0.11862992853078279 -1.1923848293802755 -0.5018587682577164
Ni 4.379457579819989 4.476979694272752 6.379903819355943 1.4729798588943666 0.6074030672491346 -0.5283892104480772
Ni 0.5712608342067362 7.431583356300844 10.891298109509279 1.6917437140342735 0.034176645881708885 -0.731652913069856
Ni 4.78314785407905 0.6299559453442766 10.693899020670576 -0.9702291749499999 -0.7829924438840967 -1.6000275791751994
Ni 8.511800340629009 7.134780083487493 4.973727850447162 -0.09444690352667605 1.3094929219498932 0.104006265080337
Ni 7.141362780752437 6.2590267677975655 6.867600766791052 0.6674336980794698 -2.033806878156175 0.40321248193771203
Ni 2.210176975198477 5.676976310877694 2.306849885335569 1.166970245961913 -3.0168843698237526 1.5606038259619381
Ni 2.446126666804263 5.3988300750638825 11.17040447354295 0.7153570041233099 -0.040495903231517354 -0.19480914409652259
Ni 1.2441479673212026 3.3968081705610578 3.553725489645009 -2.1512810958159596 0.36821385437534004 -0.5038842833281774
Ni 1.3103204406558298 1.1269959586764278 2.7376055922165756 0.3135308610101632 -0.8872961856001944 -0.9873061850369448
Ni 1.0938097086528789 3.3912619753516426 7.964690004316122 0.7998159431993387 0.766009793283171 -0.10486552775683874
Ni 3.6510512142346188 2.377181095864928 6.715405896546069 0.44675668507724997 -0.21685378260138785 0.8395415439237348
Ni 4.323550113684426 6.948855254245971 5.713756677239409 1.3383419849711014 0.962581171486439 0.8471820911881282
Ni 0.42398116581455536 0.2988499097668582 0.5929173626810077 0.28601697186061065 2.2886962753740456 0.01637767002707502
P 0.27867176054021103 5.851999684289561 7.884367459498851 -0.35424093713501575 -0.14848249311584108 0.18761802566472205
P 8.800875308642356 1.7544706635737382 8.003227878110591 -0.9862147517449791 -0.09396276480140592 -0.5659106044323027
P 2.0754862607193387 3.387206888362464 10.344556913402135 -0.6343479712690946 -0.5274476724704141 -1.2381067568974227
P 4.075989780632045 6.2229946831829555 3.572168861747137 -0.2630243676201793 -0.9663581220303679 -0.304978600564778
P 7.103166770793827 4.048658858009912 10.272072688076728 -0.618063118066142 0.4103051271184353 0.5936746619194485
P 6.586561417345052 8.037764308443318 10.067806318513972 -0.6851128605267878 -0.4754715365134392 0.8490358565674152
P 2.2885692622404057 8.457756759768742 5.619434990186177 1.950717051513531 1.0545657295155517 -0.6150652117800827
P 6.9002396709922955 4.300765252709354 1.3268944722086868 2.690369952069728 -0.39636332022636256 1.7565535114208073
Ni 5.667038620117217 3.246869965317675 0.10957645151611153 -1.7603453743630717 -0.9834469591918548 -0.7496516636401218
Ni 1.6730052388583962 1.0273371952495456 7.081927570778756 -0.6465188023036736 0.31895974533521837 -2.2464363382635697
Ni 6.969303439534454 0.9843314520683438 9.134449855694129 -0.23290775074045694 -0.2517963601148438 0.2550171810449866
Ni 2.865519037992274 1.7257122775944271 8.867479657833453 0.3395691940554539 0.2654962261994395 2.2495802832091902
Ni 6.373542060687044 2.309099276638535 2.384152026794532 0.39008957140250883 -0.2623234848984128 0.8881667611306059
Ni 4.314039752718774 7.132961658828668 10.249623326451207 0.16177329668747623 0.3067657743721878 -0.025578105579420463
Ni 8.567571424915158 7.668324062633218 13.113713991873976 -0.9508325155909432 -1.5300310953814036 0.03786772158005091
Ni 7.723631448631368 4.283526586943697 8.207853386543466 0.6589775968923167 -1.079891866985166 -0.918408847844599
Ni 3.5636577251315087 8.457074850521682 12.683677471945535 -0.4413861647939559 -1.020457474977933 -1.3641694875571668
Ni 0.28978779047960584 5.011696557323419 9.949385049457337 -0.029353513461452676 0.08563778987547832 0.4990632077904501
Ni 8.776108364789163 2.6245323100815448 5.9006170859678955 0.1330497035005386 -0.6222203347676252 -0.5291929372962951
Ni 3.7139323389367735 2.9298821787913707 11.672366962426539 0.17420098092786773 0.009080365034713394 0.24935638321478343
Ni 1.2612138827442716 3.5922797292614077 12.543592400715994 -0.6692386124986925 -0.4031116946937896 -0.7384627369028379
Ni 3.431603726407666 8.45491092517768 7.745293432379617 -0.0010263843819853292 -0.6047334908367714 0.5132531261375871
Ni 5.572298695392456 7.824090318908134 3.3880506374041586 0.7706958859049308 0.36567977509957666 0.2881293902179231
Ni 3.1526301073740908 8.631625433522256 3.4241790985256855 -0.18915425980359035 -0.9992186202038147 -0.27220166324407313
Ni 3.6826008820652256 4.232037892729078 8.924249057257299 -1.4870826168443356 1.2208114601520845 -0.3593013823770586
Ni 7.4682791659159244 6.349820711012677 11.484509147772687 -0.10134980129409642 -0.4763218003288764 -1.8585496880496508
Ni 8.067159143053217 8.752232449018797 2.9643476905624033 -0.23824921755802836 0.2612153394358985 -0.8659282614473797
Ni 4.8751601418155746 0.11839944796072849 1.4704500068995947 0.030551904644928022 0.6530861711085463 -0.17974222246107108
Ni 6.386225572682346 5.950576485044442 0.11713109676119833 -1.137934263740879 0.9691387700992987 1.0504306243012556
Ni 8.20366828219118 0.09033024492711197 10.951500694688985 0.510041818289141 0.17737860732490096 1.100706746847988
Ni 0.15611721223406835 4.942087261383613 5.832271595165973 0.13693592592882226 -0.3441223606437751 1.2568711819891192
Ni 7.628518746851547 6.1021694567273554 2.5093732948628413 -1.7774542661292163 1.5175005670145607 -0.10434565069762675
P 8.536267244413494 1.8868792551060514 3.6069144109156284 -0.5989415667453426 -0.1732591858398887 -0.011934803764372994
P 2.2125136508850667 3.3309721057883133 1.1104719338016886 -1.597823886655661 -0.8696116238362378 1.8912068119630394
P 4.857394132898858 1.0721340867196896 8.346980147977806 0.7506366532612104 0.1884430926691787 -1.2658638724060327
P 8.712227106524656 1.748160730007617 12.318007729665506 0.7866896902300258 0.13622475879441054 1.0761416559141144
P 6.765057981855274 7.995785975194352 1.1435254388251435 0.0972874582992647 -1.5220745595384881 1.6227594735550763
P 2.0066225188896514 3.3860430965808157 5.690868166058784 -0.7058251533734747 0.6827204490352113 1.0311625201002628
P 6.614137827296128 3.879790852068165 6.23657195089807 0.3339780731209216 2.495864455256553 -1.1240325660581223
P 2.6410799744768485 8.604094484187652 10.039648012672071 -0.33128664233168753 -0.25131710648558003 -0.02573262887941375
