# total energy = -340894.71619556646 ev
CRYSTAL
PRIMVEC
9.03253558855810 0.00000000000000 0.00000000000000
0.00000000000000 9.03253558855810 0.00000000000000
0.00000000000000 0.00000000000000 13.22002885655036
PRIMCOORD
 96 1
Ni 6.277783647901158 1.9938599059953719 11.38728292223828 0.8662923296550178 -0.07856597063036147 -0.43583181063463006
Ni 4.682321776143665 0.36402833418848646 6.166323968873145 -0.9482472713622702 0.09757027964700617 -0.6755804955563204
Ni 2.9298112132193728 2.003190514954669 4.797111750934788 -0.032993167096568986 -1.5248665204613288 -0.9514732344987354
Ni 3.372107368988893 4.467302273456275 5.083444926279918 0.27415750141886336 0.24653176928179474 0.056034108076432526
Ni 4.8933759958367355 4.535859216342109 2.7539829779216203 1.0173107018188352 -0.6241530330139637 -0.2489807450429196
Ni 7.29663556405878 6.138014196752883 2.5593842310282087 -0.43462827724483205 -0.5545437573562578 -0.5440305165297599
Ni 5.053288000691915 4.685943822796791 11.431490859730527 -0.3350723346263649 -0.40353541249476954 -0.14429082363199666
Ni 5.611850950773222 8.029553542931295 12.209463124652387 -0.36978582684815026 -0.14495339691666004 1.6331690989241745
Ni 2.0269822129205832 6.461062821563407 0.48519889191169874 -1.870970687421823 -0.5381156937072216 -0.4677600268017944
Ni 2.661147483417494 1.3850037993938642 0.516832637020364 -0.00187561975615806 0.8354894853415483 -0.5360094459974962
Ni 0.4913879850955424 9.079594803461088 4.848260288547386 1.3787972647726707 0.5663674894640632 0.39036853609550837
Ni 8.584124112412399 2.0442072577273405 1.3900593093982385 1.0595438994564332 1.1234674375832716 -0.009582244371796401
Ni 6.804317227827896 0.8565797098299703 4.89451680504444 -0.8207241541069156 -1.3232424103255018 -0.3362308737108403
Ni 0.7849417691551558 7.60749929875692 2.7361364946865967 0.13827161402111024 -0.24744888177942542 -0.8297924349567708
Ni 7.4328100661598135 3.9636752030365816 3.705084556595214 0.9447600841446181 -0.3156250245350306 0.14757309392769422
Ni 7.579200365679012 3.8848031048443405 12.596929081423239 0.9056739167764337 -0.6532121551634492 0.4817360293659123
Ni 7.976360942581534 8.87819636399792 6.952386675658357 -0.43640439530864844 0.6416511897987272 -0.11066799337122875
Ni 7.016337928797487 0.774832555653466 0.3065642478979212 -0.8439730973325271 -1.0473031344158674 -0.6800560148291707
Ni 1.9715585763530628 6.489822413941337 9.286289921620996 -0.5464337266546138 -0.3834404415171074 -0.7929966062846601
Ni 0.13124996385843 4.603530970769076 1.6276502145332452 -0.4654144093877533 0.07490754794216777 -0.9823550116792568
Ni 6.329178773727297 2.009829428396183 6.964707957053689 -0.05393814477935227 -0.09883423396109431 1.0413991102266065
Ni 3.475981524876521 4.275713167323016 0.6863534529219139 -0.3715575740365924 0.03950602851442229 -0.8185060634096742
Ni 5.922046277859563 5.514904749456534 4.872823365027457 -0.1700288518280491 0.46839508928263196 -0.23127355757114365
Ni 5.296145777157189 3.160014407736946 9.33278489704983 0.16834323659551007 -0.7820231379922918 0.1417757705196268
P 0.21313170281082347 5.335925062594503 12.493283448678564 0.7484522440153819 0.4123733225013737 1.262548691989871
P 4.0152780771744965 6.270024700083117 12.718222481626459 -0.6372011244471735 -0.6179692728007551 -1.4293189276713063
P 2.4874789273086746 8.465563054135789 1.5066205643606285 -0.4968242911576024 -0.5064834115139213 0.5937510236833388
P 6.305703214496694 7.740286600122487 5.675080504342316 0.2218692335381082 0.16644164869742303 1.147751249831301
P 4.6408263090003805 0.9660386822902349 12.614484717021778 0.24026213422299914 0.8342880088342792 0.310459164063375
P 3.933587827970348 6.20803441035644 8.119265586730556 0.24398971958623142 0.2013855117624596 0.15586541584347352
P 4.808641782238315 1.1206485889274982 3.8803825820711753 -0.1312818129668384 -0.8222439331855517 -0.27760457942719935
P 0.06191260992314411 5.6653777549288815 3.574682747800945 1.3681505836921017 -1.1174135180797078 0.2913766935106272
Ni 1.4514380964854732 1.0187344931987932 2.7108986878200207 0.17625863478784484 0.232917778042786 0.035352668467681043
Ni 1.6937448882977781 6.589613863875817 4.778220203366183 1.4619755373640628 0.04780477818810477 -0.17732821370293977
Ni 5.948918070360928 5.78597113364677 9.193366811524514 -0.005426313221893881 -0.14612530573757415 0.5262670218987516
Ni 8.651958452474666 2.463958205401598 10.191465574589317 -0.011424182676541616 -0.25460066233285833 1.1571062086836394
Ni 2.0197923148261006 5.3194497182171965 7.075994211404047 0.9974389025955726 0.25008914761574996 -0.39715136334529666
Ni 0.7641091297517449 8.957330405713705 8.752451730401535 -0.3762866040811455 -0.29244164444003184 1.0400788487532864
Ni 1.6702422314612906 1.0553433587477112 11.337945407952246 -0.7857340111849758 0.9911404711813703 -0.4739913524234869
Ni 3.971208337472258 6.528084233449163 1.664639349818065 1.6505741817744992 1.9033897271824767 0.6756859107859331
Ni 5.621344145367822 7.906485249542691 7.910719702088789 -0.18503663809079102 0.380128603535055 0.280849054506426
Ni 5.275542564150261 3.0342092561540865 4.784579108213563 0.24635950536998863 -0.061203310982197806 0.2649498667776663
Ni 0.7872306135988014 7.38247174696314 6.801585789154816 -0.44900562901242674 0.3073483863485352 0.6532080413983912
Ni 5.312332080405071 4.545289183189647 7.310583605060666 -1.300238750341477 -0.38251355882746385 -1.235164129329331
Ni 7.9479987817565645 7.359953636473761 8.966418039473577 0.27573230210515093 -0.15218128212366694 0.14623123518781914
Ni 4.498347097263734 0.4561132250096334 10.408353005575627 -0.47782486723696416 -0.6823862056242441 -0.20427825992922238
Ni 8.244672403506925 7.264172632210073 4.762065513991832 -1.4528206103376722 -0.7788313705278715 0.10176657711654086
Ni 7.133833147909336 6.005958530746177 6.8839336069284105 1.3023989912175893 0.9488879902700625 0.7096149594332102
Ni 2.3676533140908247 5.210445082282249 2.7537851653986687 -1.4488441421884273 -0.707906975603168 0.010310637897388694
Ni 2.509798322021573 5.066005810386678 11.475910158548665 0.015782716755553462 0.656057080811412 0.053059084608508625
Ni 0.9699226724669027 3.2809148926548497 3.7453660509949067 -0.4712251025322594 0.2634262310442883 0.19409977673432377
Ni 3.729696408765876 2.3659371323848553 2.399818172274811 0.410764326143041 0.7596622537985884 0.611558741288721
Ni 0.9222941138586016 3.399159812196149 8.241921093256197 0.4983738950329094 0.4716974141829876 -0.4366617627350931
Ni 3.63196437687856 2.7623028461814547 6.933957593896833 0.9094562666370015 -0.09296183434071732 0.9308398745191001
Ni 4.140622569457332 6.912301187274557 6.028094564992596 -0.28318850127288003 0.15973621165278942 -0.352449906672864
Ni 0.858430476311829 7.057056597905437 11.336346649205106 -0.8940689855476537 -0.10327401490000278 0.8971789919315453
P 0.17084498557573485 5.755856660974653 8.206042056559081 -0.6619623905522535 -0.9535452865364159 -0.4776610879655902
P 8.599614910442597 1.7131648391811174 8.157775800958984 -0.7700801066978028 -1.0667602146992146 -1.2083300398556223
P 1.8893805702430073 3.336067553163533 10.291316639256742 0.15546715196379032 -1.2110440963526754 -0.22391583165449178
P 3.953405210406648 6.157307692142099 3.903768719202363 0.07556523613082469 0.21572249721042205 -0.184758701839056
P 6.961266561106456 4.0444080034995045 10.508217619045991 -0.38161110161785244 0.0564601398702576 -1.1122669408817618
P 6.180141941366787 7.830115163627048 10.184445488158374 0.41945619749008406 -0.34475948000714174 -0.6989140280759383
P 2.4651866302016603 8.567431987188021 5.8210164673361975 -0.055290802152504766 0.056138751975096865 -0.48187512604693783
P 6.834232984723533 3.8889219409386677 1.5050073535570172 0.13388196959384682 0.12244801672529235 0.826533561699841
Ni 5.378350880873129 2.905224652147536 0.19966328943308068 -0.22486842537574822 -0.2624029319860965 0.7417925726070193
Ni 1.5083430688413042 1.2929893623480149 6.7896610360589165 -0.08379122358504279 -0.25021564589128525 0.1889079481207392
Ni 6.931404999422586 0.7439530272418978 9.295160774533802 -0.6285912712909755 0.05278294812898652 -0.4652292899601407
Ni 2.5833773545311915 1.5328302720249005 8.884850632749435 0.6494891977859072 1.0229763847450448 1.6705650230741294
Ni 6.449736022304008 1.9469449176753422 2.647455966417975 -0.1483696216870606 0.5283113060222902 -0.588020806067781
Ni 4.0165697297216205 6.839905416888528 10.421348114103933 0.8119960302052983 0.6166189294204477 0.45440828808523676
Ni 8.195860582775035 7.05721918354074 0.23961058002687402 -0.5684809362626403 -1.0952495803881588 0.27895723680035184
Ni 7.502866409904548 3.850073006636695 8.229731686876166 0.8375499674150028 0.1259945964259701 0.4939307716598913
Ni 2.945040067726029 8.439522254881526 12.556118280455285 1.8085581866228722 -1.4313773528622316 -0.930657840415281
Ni 0.17747938274960118 4.855403217458337 10.348743692152599 -0.38828131454917647 0.03740363745943881 -0.6141614690188907
Ni 8.541346025257285 2.2365370317547546 5.780153277663534 0.6933087660740189 1.1187821162924603 0.2823132977567783
Ni 3.6557741399150627 2.6733504386004667 11.483432453941987 0.09551648244177098 -0.049744418412978844 0.010644881308355862
Ni 1.3146764795902928 3.2479190412237626 12.489079706752468 -1.3947064798037592 -0.04426436913501409 0.9404933384484642
Ni 3.0287716699067513 8.352737655771236 7.960149348234829 0.7317246468480559 -0.21142232717317136 0.10108549188911624
Ni 5.6635712478699665 7.632293608140532 3.5683897804612137 0.18776277877270242 0.528748650670025 0.0346713261299403
Ni 3.395176464131241 8.300412178809756 3.5297079480621902 -1.1569858810556912 0.7858509963788144 0.9392970041475177
Ni 3.271782999472033 4.320315826607634 8.885617494995945 0.287759151362698 -0.5090979663186329 0.8668937106844424
Ni 7.1273026248913585 6.102118901492237 11.365575933418356 0.6639238851539986 0.2011919076944148 -0.06735338974399369
Ni 0.6466482342740153 -0.3620059495360308 0.13837663420585072 0.23435296782741574 1.8747877471750682 0.3668735382973617
Ni 4.869972696888489 0.2963963229168166 1.6290114176021377 -0.18989525173467295 -0.8673601087978997 -0.41410341781860294
Ni 5.918144222612306 5.605672696631731 0.2921808386948378 0.4847470482780942 0.08195417037630402 0.8250564629336823
Ni 8.044285607996748 8.50853082453209 11.297426357874306 -0.20262221238303815 1.2841742406794463 0.20385325657666184
Ni 0.06261172815494433 4.904151810443165 5.73018167939982 -0.6805689499098473 -0.6722702002361648 -0.2643798532068092
Ni 7.688701791055161 8.770727259063051 2.5466926156857994 0.3334574247307612 -0.27458327610237226 -0.1712781508541179
P 8.470576111224279 1.462909416309585 3.6566728771768737 0.2697274906719677 1.342466034441804 -0.8444767764418231
P 1.795469300785297 3.135102675394504 1.6228250341788826 0.03801016069518615 -0.10052987649596236 0.21154548301459697
P 4.716726703080706 1.2293099885212515 8.360504732871043 0.13539814912805712 -0.10460481789628437 -1.0912623136056365
P 8.717227552513275 1.5124799700062201 12.2824378805508 -0.5442200068327466 -0.514086934892792 0.4919013999346883
P 6.323551504238776 7.576002848184732 1.2416836586212918 -0.5241111518980135 1.0272292464841277 0.04799786803551734
P 1.745537445676879 3.3875349392720295 6.014292851062483 -1.177211721184263 -0.21073018620215317 -0.17769690989626816
P 7.008226712102958 3.8785074277440215 5.982274319950269 -0.3890806705220202 0.5616392307504585 -0.2858940731295012
P 2.2933607112929346 8.29069317083279 10.428989638963145 0.7105667818235181 0.8901056300245316 -1.8380847353270797
