# total energy = -340868.4193737954 ev
CRYSTAL
PRIMVEC
9.28437203131754 0.00000000000000 0.00000000000000

0.00000000000000 9.28437203131754 0.00000000000000

0.00000000000000 0.00000000000000 13.58861694653544

PRIMCOORD
 96 1
Ni 3.09169580486661 3.9980918848843503 5.561412975019634 0.07848755198394225 2.194368413923737 1.7595917840264987
Ni 0.5182916990404027 8.939652346329481 10.537631996343345 -0.16663473854483563 -0.46312509913294436 0.26098471148233116
Ni 8.486807112448494 8.875794437182716 8.42169488467339 -0.6871103505727908 0.17720325808930126 0.44232564588908985
Ni 8.449530359726154 1.9391431756764113 6.835468320903912 3.13048059258537 0.595607103055471 1.189274822996384
Ni 5.383710099028202 5.226832068953634 5.9412282688660865 -0.5637881587726613 -1.3923973720546083 0.36183520454250584
Ni 0.12685515702893077 9.26434539644298 5.933537095278243 -0.4249395892021585 -0.1460260611555485 0.8297682665870548
Ni 4.241509544379824 2.462029710313897 13.674496269950723 0.2630403084597792 0.016968766643854646 -0.10605800540304317
Ni 8.452092846339195 6.682473015110411 10.293988726613462 3.077100891412649 2.2262038132667787 -0.13544777141906994
Ni 2.232315783575129 6.783616961351301 3.2278808271036796 -0.5544324285893742 -0.3687481296122552 0.2164506336256982
Ni 6.9678746038239225 9.14349072889959 4.893790511729817 1.5629072772841341 0.23955456663301325 1.144412672376371
Ni 2.2708180733732726 0.7339212337792225 4.548761902092596 -0.19598002447617216 0.02318158032278588 -0.416366759931483
Ni 6.794739638751392 3.8439156069996208 4.364066037271658 0.26905591852623983 -1.384542394786564 -0.44943885989510335
Ni 2.8587787698615386 3.047214379638033 3.7032109525769377 0.13665696123582272 -0.7165211996347401 -2.6575503344365456
Ni 7.209648929513206 7.754752965835513 12.206667728949958 -0.4224091094708209 0.2224950400475652 -0.08171968576799474
Ni 6.516904813043785 7.185862368996485 1.1575086268497714 0.9244357707649692 -2.2183814890088827 -0.14297261904120537
Ni 7.695091592736195 4.663382113981427 -0.24405549583719852 0.5180572323944497 -0.25818760835316823 0.7301480463895554
Ni 5.947605703846154 8.64217178992188 9.394204976181985 -0.4142638546558672 -0.7420594531151607 -0.8820081977283778
Ni 6.468449676690635 1.8117430260236196 8.697095348098605 -0.3369091307247875 -1.56687371813105 0.18732749100749674
Ni 4.211623151599447 9.023406664214471 7.267518418857752 0.2780061857409922 -0.2619586453598262 -0.7593521787573374
Ni 2.281021597966511 5.338588052146364 9.775460276092506 -0.40820247895313566 0.6629422379670196 -0.48335428169562555
Ni 7.290348689080475 3.938885446002565 8.945549779288193 -0.18332299783379397 1.4192450883750718 -0.3472691338028729
Ni 4.327334277173178 6.837401327109838 4.640744030254681 -0.5066235366362113 -1.4982468609912714 -0.27275496464438187
Ni 5.366914670466629 3.2535502582186804 2.4243175205547747 -0.2516045558190118 -1.5247485068262256 0.14838119165128638
Ni 2.3570234654098683 7.778883048108331 5.496473436559755 -0.5161217059346337 -0.2765923361126011 1.0565585915758642
P 6.631288273452063 0.020043101812450562 7.302590133280825 0.48851834239506836 0.9620947187683236 0.1929121841841258
P 0.3294206522271265 4.006113582107788 7.975851923993694 -2.2348020964587514 0.7984427170008959 -1.5288136780345347
P -0.0609110495417654 5.947652125705087 12.188092486316934 0.2812375481940963 -0.8525358993008737 -0.06595316696235738
P 8.897993370123967 7.981765140384443 1.7879360398889679 0.20738081011394607 -0.9594351696582896 -0.97132497911734
P 3.1973890932828306 3.121563628903414 11.250477706167471 0.09504262812914599 -0.8102623353436431 -0.408634938504864
P 7.351709102216701 6.523942366857865 8.613810819426007 -0.2925416603530059 -0.4097209724801911 -1.835768685599393
P 4.0924025334904615 6.603815817336146 7.101397796669835 -1.2199249437820734 0.5738666260545859 -0.2062495247229803
P 7.245523742095802 0.4218187202452422 10.572364831196216 1.7248260984105392 0.3529623275329083 0.6065746578105683
Ni 9.20060818412944 4.108260240501609 10.40252117592196 0.42826839646507536 0.5291697973678435 1.1377514583061115
Ni 4.859718724148136 3.549164655897217 9.68727081380516 0.36756362238585083 0.6792761992403528 -0.6402838771375553
Ni 6.167422490260635 7.424749255060202 6.655106400832858 -0.2644677849349252 -1.2394558147261492 0.3606625243906434
Ni 0.30442805181535354 2.768757501020738 -0.17615609965182022 -0.4325279430723777 0.4947936338808188 0.47605594826199954
Ni 3.4123780063683893 9.202947845819608 0.39547895748726447 -0.3777194798729301 1.5821327011726494 0.5513057100349344
Ni 2.390790725596955 4.498770202208799 12.82247689861149 -0.4472742481436168 -0.45010657538608934 -0.1917940114192826
Ni 6.568581626406811 1.738721441923692 6.098979029888574 -3.510067464684342 2.125879110803087 -0.6429061452517508
Ni 0.9672458527057158 1.8671892943319182 11.24331667020863 0.8391283676457162 0.7505242960530623 0.4430234432870628
Ni 3.334045761606649 8.057061395572035 9.261552657409636 0.5395159164888579 -0.718624104910356 0.538046273921867
Ni 4.125993390613607 1.863197014463772 5.657810750403325 1.003918339672329 0.8050095715851362 0.03742883427041941
Ni 4.265518929819419 7.695435114492292 2.150656948402326 2.175005178905777 -1.1754155485157887 0.6491444128519788
Ni 6.993926551056522 2.4703485074344984 0.624039765250163 -0.09164285841897765 -1.0558016588051817 -0.2496646584838216
Ni 0.621414144908973 3.8001397940268093 2.556304149870041 -2.1596137840513707 2.2695353861748786 -1.1758863175046201
Ni 7.135104708440311 5.148212008666515 11.096342279518602 -2.0023466027643644 -0.8341774513983441 0.32129842077072407
Ni 8.995256448958148 6.761510872127916 7.244784706101606 -0.5688347200576331 0.6315968908865187 -0.7323152292442033
Ni 4.184336382919257 5.163568359601198 11.239403307500668 0.7535211738978571 1.1978520231424337 0.8018448007039094
Ni 4.5540864893120885 9.084599958658544 4.626693061993165 -0.5007740198339699 0.6141025907564972 -0.30336369066917435
Ni 1.7204869357352295 5.680652161872192 7.239036751528655 -0.4903597664791813 0.4390323198497987 -0.6455525817356624
Ni 4.282620742649942 4.875056506339247 1.1230840331402085 -0.6635276781568443 0.9169955124368401 -0.424780695026791
Ni 3.73745171572513 2.2031907092812353 8.115964235496405 0.5856623331379333 -0.6302702016552952 -0.9500922949908089
Ni 0.3068874819015672 8.744160613995332 3.7847964412126283 -0.005746672675790103 -0.21691446063599418 -2.0061618627453965
Ni 5.425304084631212 6.18433861565543 9.147204477614146 -1.8199934250430074 -0.6955703084146859 0.2687450721540404
Ni 4.649669096852935 0.9006406979473598 2.303039485657926 -0.024281498255183987 0.35038453950340304 -0.5608434743220406
Ni 2.1582729185786986 2.179339158162009 1.3300772452433318 0.1201147406064254 -0.21747830355926417 -0.11394897811534568
P 2.639630458215678 8.896480017522785 2.6183906008799624 -0.3324603509248145 0.39816926308684975 0.14036629176660986
P 5.669752309394974 5.228930336977356 12.96795650544391 -0.9353925268867891 0.46951377626810753 0.0446088969586264
P 2.283936890707436 1.4519643349293674 6.693603120007929 -0.8425965286999747 -0.5550052703737086 0.24649808783038193
P 2.089633557961945 4.637905797799584 1.331302782319135 0.8549553073756436 0.3803242644856289 0.15473567311440448
P 6.083566044285995 -0.18971963839455183 0.7844672106586663 -2.2668745515132636 2.4635570013730996 -2.6577164277007648
P 1.2177939097331343 0.6049139593702075 13.29094401646025 1.198846011624587 1.3485842315243999 -0.2427450485458529
P 7.84532201261171 2.815903540952007 11.923127656779617 2.1388701237461163 0.25830587909858743 0.20968888942183242
P 4.292007242525979 4.792277047491827 3.7394107181720577 -1.8585337472100507 -0.8434905012691537 1.105421121604522
Ni 5.8687349655208045 0.7163691289170594 12.308147769449516 -0.5447254857142554 -0.26894870352441425 0.944134020524845
Ni 5.828087985840005 3.177836206300701 11.828890354710618 -1.2656216744882398 0.18946536328610597 0.568608205869124
Ni 0.2774578802130802 5.788220893389263 0.8084738107867252 0.3162719140904101 0.088820301368518 0.15888466228577153
Ni 2.462141122775333 1.013667711637647 9.561425796426587 -1.5887913441397474 -1.3289227485397308 -0.1145408460630737
Ni 9.187786466692438 0.9349455232608782 1.8021494846567467 0.6935823314503796 0.4177471852187773 -1.5734192325590513
Ni 8.963708153628009 2.1221102904707245 9.057967738189294 -0.8198934306755041 -1.6209028799623115 0.99343106698776
Ni 8.397714280786332 0.7303068278427824 12.500712139359418 -0.2802690136332399 0.14491688725176977 -0.025058742740840714
Ni 0.9316124337895656 2.7997765871590543 5.47008446663131 0.38253849852812827 -0.3098891504925179 0.5565664442132415
Ni 6.010460900839989 5.462163040623166 2.8926221618972736 -1.5953178324043555 1.865042751973162 -0.33722537641362565
Ni 2.394829427324033 7.113379278460168 0.7997864241062037 -0.8969679043620037 -1.1949425628051227 -0.2517693635316503
Ni 7.203419116044541 0.019961399340730362 2.4956985561600473 -0.5137205526923088 0.015736951119282576 1.0694351904282162
Ni 7.465591206548515 4.295433175715155 6.52120440561806 1.4930992553520606 -0.40641273404256456 0.8509613557249023
Ni 3.0164088340508037 9.202845717729957 11.679878044413476 -0.18801114733808263 -0.6811428201354462 -0.23607097895978696
Ni 4.414041025286239 7.130388247572826 13.170263895106444 1.1069437288966355 -0.1849682467467008 -1.3232262123755856
Ni 1.621645513697362 8.866361515447748 7.63587865479416 -0.016384869115926622 -0.06165402536637124 0.8075529068322803
Ni 4.539194356966725 1.247308927642056 10.25004300963696 1.0773477604070736 0.17270742710147677 0.8798893516131621
Ni 8.330179760412157 1.7508004096177805 4.230013635233921 -0.680060642814861 0.08626153950240628 -0.024542722336370636
Ni 1.7039886070708212 3.1049446034057824 9.144187985220748 2.758403912820514 0.2295033530445983 0.923715347659177
Ni 3.4619751204512643 4.491463401612913 7.8030316991247215 2.338692404786514 0.3596124858595742 0.7642028219814194
Ni 0.43670806727906974 7.882515205987974 13.050520566865886 -0.5874163397145625 0.5790628255435447 0.6861839821037795
Ni 2.2166901858586407 6.64385931285083 11.76059451584996 -0.40475205851069 0.9578819662385567 0.0412741761584386
Ni 7.4569660251589625 6.200716247486615 4.919650272466438 0.3697395469912471 0.22468561994098077 1.0808786563784676
Ni 8.062715577989945 6.036949213546549 2.722629028237257 3.489162081990243 0.8652276358359293 -0.5487171233721518
Ni 0.807983595956404 5.040030508611543 4.551792321043672 0.34656825108110634 -0.6310042516078423 0.23797462374040307
P 0.2776314979654856 6.9514969719927375 4.9778224323312195 -0.06826124627024373 1.1591360946294746 0.9397320348024074
P 6.15435937915719 7.635541632098315 3.856503358267603 -0.2965775209852763 -1.9207145916141695 -1.879538631596492
P 7.5451025665271265 4.040512179576349 2.0604964139847297 0.2525214112063264 -0.3365160090514269 -0.16350904843166034
P 5.745986286132991 1.6642514958250882 4.072698311248214 0.5345665429033826 0.5137971715665152 -0.6625318899024782
P 5.53519390909488 3.3960467963961363 7.340394238320632 0.029115943529349854 0.4077196257794462 0.23723054648552697
P 1.3228187233807351 7.3417191181745505 9.280889218529142 -0.8517617401390105 -0.745117266104878 -0.21365198783463848
P 4.6920151165706425 7.595618833416853 10.896018960106817 -0.6544136316707181 -0.39141214686867426 1.305025630207159
P 0.9385757126293552 2.0348093425633347 3.3380575386555464 0.9984352050705707 -2.8819785869510817 0.9840411411324278
