# total energy = -340889.231964962 ev
CRYSTAL
PRIMVEC
9.11387932323548 0.00000000000000 0.00000000000000
0.00000000000000 9.11387932323548 0.00000000000000
0.00000000000000 0.00000000000000 13.33908363459505
PRIMCOORD
 96 1
Ni 6.165976851009932 2.1258488154653783 11.365939907650668 0.4276081371732571 0.5839795461188717 0.7662571334072869
Ni 4.602427050214259 0.17726951042729958 6.17351494062585 -0.7882346661196424 0.3033462071676775 -0.49717447540816967
Ni 2.648292835708278 1.6527108825421715 4.957870167901042 1.2322821797958454 -0.22871710969787704 -1.4103701544829452
Ni 3.441665147587502 4.109092760636628 4.824012799013464 -0.22091612559621956 0.880942989688657 0.18316924586474906
Ni 5.630335933458545 4.768828259508705 2.7331248247603486 -0.3568377513279145 -1.0764861837377266 -0.5721149334708018
Ni 7.5481877942455435 6.370629011964407 2.743782595280062 0.3423308159609911 -0.3806281688792929 0.09973463428817662
Ni 4.911077688507924 4.43388407927099 11.38022591354228 0.007797384557231732 0.4764521552591536 0.8361224909398567
Ni 5.59568496414441 7.874756319354461 12.757886296815094 -1.0706816612408079 -0.2512134910281803 -1.4031733796241899
Ni 1.9879649346780146 6.422104202570992 0.4191582482694029 1.2232195553729448 0.6715937429944305 -0.3354330603998933
Ni 2.6818045701028272 1.8509195307914663 0.3547367920366393 0.7184811515745885 -0.14308780446283098 0.3279673481504674
Ni 0.6921289602695619 9.2940607515718 4.566648694023701 0.04897642989870275 -1.0766270801909652 1.5158339779454153
Ni 8.924748132280007 2.3126013173633138 1.1291604373453696 -0.40011661662120773 0.30993260213594365 0.4716606474077812
Ni 6.738547207714627 0.883734602924935 4.899125747119561 0.05795497924822921 -0.8045686273929756 0.1523412047402989
Ni 0.9627628736026655 7.217909920238453 2.748238370897548 0.3177310151344399 0.7352627419083015 0.9686325198868415
Ni 7.834354492166254 3.9163342122426332 3.945807586694233 0.10022520077134997 -0.16489847258001922 -0.4400160239193067
Ni 7.4468323419197935 4.060041861938922 12.635113228001122 1.5767092161642329 -1.7714047175010268 -0.5080139892258348
Ni 7.770748728135914 9.049936379123501 7.2221797727170625 0.7470455934758425 -0.7642447309629483 -0.6675216298075858
Ni 6.778529796452426 0.8036837549833836 0.29529424809643556 0.41791019315920286 0.29651298629592804 -0.30969477509352467
Ni 1.7628794562058405 6.4546589796330895 9.480260040992784 -0.27032732903949575 0.15838329716932076 -1.272465951103583
Ni 0.3443797795356968 5.118272621802915 1.452546395782931 -1.2427645673844079 -2.3417617877404573 0.5400010836553926
Ni 6.207381204927374 1.9198478003661132 6.875283651090983 -0.34845029859516763 0.7267727021594194 0.7215423069984154
Ni 3.4849105051349967 4.303892818006521 0.527473970259857 0.293897660160268 0.19162457572095384 -1.114876096369835
Ni 6.2401911706114594 5.761821870937512 4.793760187876868 0.5219727653987719 0.20931402258091694 0.40825852900205173
Ni 5.263402036678848 3.1291957938433845 8.780839065849936 -0.25312407778733176 -0.7970329811375628 1.0128873759401589
P -0.0644196334568922 5.789035914696589 12.744507121919472 -0.020885328089441452 -1.7493482519216195 -1.665114284372203
P 4.134648078352786 6.095444538668508 12.692497857982588 0.4036079176039178 0.2822076254168495 0.6949092777919194
P 2.5965533426003486 8.27392600741877 1.511225196633044 -0.1488787001129952 0.41830305772224735 0.7806486262422685
P 6.385347927125461 7.97864543014137 5.84461326240162 -0.5902203848222609 -1.0563179363199677 0.41769319205239025
P 4.6779264268050795 1.230145866169238 12.7632088023594 -0.04138087693963196 -0.03242032531223449 0.35518633176742054
P 3.856847921681517 6.207782215619069 8.407771528263185 0.49297175018073164 -0.04301018501293883 -0.5042007861273317
P 4.698760755014473 1.1921774447692672 3.7248725688810955 -0.2228493380631904 0.08522435648714355 0.9486005409366308
P 0.15613260142326404 5.6292240401770295 4.2126027340422985 -0.17324633032408226 0.5373932137189003 -1.3871057846383659
Ni 1.5619730996669656 0.924411669269714 2.6572918801850736 0.5736203143717346 0.7790853955202066 -1.6481280342268518
Ni 2.1618577528036607 6.38119199813881 4.880691103344784 -0.22266190464273267 -0.7320668606788231 -1.280112669015563
Ni 5.829118756107311 5.761110988347691 9.423528876161196 -1.2073810456787917 -0.28842815240526454 -1.6304961800777016
Ni 8.378334609329011 2.2454775959012916 10.295411790370691 1.1766211387881156 0.9990041902001633 -0.0658796334119446
Ni 2.34240370285969 5.138806191993538 7.182456018152993 -0.15011488651294147 1.0406668600462723 -0.23920823903718805
Ni 0.7216114486005185 8.784376162428266 8.784546591972237 -0.3893717193998778 0.6846415773173241 0.4547921537872167
Ni 1.3736438966403226 1.165100109200541 11.262695148134275 -0.35574606092563243 -0.5752033425881383 0.6141375577594906
Ni 4.5919278611953525 6.763109112580907 1.586830294224402 -1.1889938014208556 0.7905124064102256 0.5502497579665943
Ni 5.685228828823889 7.835165627428999 8.145577978602313 -0.7122045745372573 0.6235457384472681 -0.19103399332480647
Ni 5.533774381674414 3.080336286612169 4.487974953252945 -0.22138740880568322 -0.10679385512780318 0.8630879637851071
Ni 0.961660094200506 7.115023336180779 6.735957043201456 -1.543781869308593 0.7586222425698483 0.9324141609847555
Ni 4.5903511600666445 4.607220950755878 6.863478443160262 2.0400469455286157 0.5581222187361355 0.4398733276938554
Ni 8.084703644215173 7.216971190664713 9.28150820553383 -0.31282149364796447 -0.8443379368711135 -0.6388849399074997
Ni 4.788222594779742 0.37858872570103286 10.648257452440818 -1.6130944396614866 -0.5497311664589629 -0.24890489749966163
Ni 8.273023733362459 7.531418256229234 4.974891248987596 -0.031201365303468842 -0.5334730527288878 -0.3438709067546013
Ni 6.903918548641768 5.8620472022230325 7.223380982016274 1.0033789222290914 0.13678834460736441 -0.3849555926100532
Ni 2.5748167403346427 5.3236630069852815 2.4562989417923102 0.05475652691558957 0.3289335687184787 1.6094576142398476
Ni 2.4388923436089676 5.450865421166604 11.52898356379011 -0.8210301153831087 -1.575185580430855 0.35905918445926555
Ni 1.2217884387991533 3.472005251965924 3.7767615296104746 -0.968917655227428 0.12140492017275867 0.47742583202633265
Ni 3.563599739500659 2.997418212225003 2.772581542659267 1.089819410511523 -1.1552280178243202 -0.2911614921760276
Ni 0.9374992000259208 3.561767849749964 8.245394096704718 -0.1972565771957506 -0.857651366150568 0.5509961492143156
Ni 3.559881276723129 2.509688958451736 7.12317752404121 -0.012528471484313906 -0.3523483480979932 -0.0036216559129873113
Ni 4.333203054017636 6.8598711697108845 5.733938868433655 0.08013948576506844 0.7641074340541357 1.4341780555358206
Ni 0.8627362248871211 7.552325495473481 11.843025061723257 -0.4245413253224753 -0.09320454647914271 -0.18883570012190706
P 0.09968670101553997 5.637690834099394 8.112256724286317 -0.8377456283655766 0.6384331970820618 1.6333840431484579
P 8.815572971466217 1.6631007050087983 8.021431448169286 -0.7238822679855017 -0.6580967369492602 1.1551591122595977
P 1.6696809259043284 3.247120278839597 10.31860843610934 -1.7223118166291178 0.43792571704918126 0.9403401007000515
P 4.202273063179426 5.9454118566986764 3.816831611590098 -0.4027620246638548 0.5551896184703728 -0.39758228023512815
P 6.7493836102697315 3.953464156741788 10.283980251493595 0.4579996049809209 0.20678688528368902 1.1570244476031106
P 6.174279595103877 7.858041464614291 10.477663858642295 0.9863466493371529 -0.39191274065417664 -0.51041180003405
P 2.412853990286904 8.384686983240625 5.8339819221320415 0.8551841355569981 0.942256600996474 0.2869960479444283
P 7.20484061724096 3.753979565382557 1.5224033696640245 0.40476928490187064 0.31333751405243454 0.3624720667955564
Ni 5.325093886044282 2.85851357694969 0.8687468283228581 -0.4763570244421861 -0.1398592702232043 -0.8309738568593817
Ni 1.4153763502146062 1.062751244024912 6.822674693892425 0.04094301807126497 -0.13339371710351866 0.9517804813265092
Ni 6.737973033315155 0.8786244507696388 9.25628372163832 -0.7155176980708903 -0.3742533757012006 -0.7661632881418999
Ni 2.5501363550367264 1.5408015579213745 9.199299190960616 0.48529237925860286 -0.48612156002811757 -0.612200745748094
Ni 6.556178481787259 1.8325459500083794 2.677113656397939 0.3600650000159606 0.18698450584578122 -1.274219957680212
Ni 3.906199578397994 7.016174200678119 10.582108916069963 1.316259294139449 0.7193172743226386 -0.057348456012481876
Ni 8.783674393717801 7.316549436515909 0.8134337831191707 -0.5964864203366307 0.055699093334516975 -1.2920536434275232
Ni 7.50931709878926 3.4841996225451752 8.370021839967775 1.345940880364282 0.5745353699868363 -1.7137752399130162
Ni 3.102601493880563 8.66709876286638 12.717776113766302 0.42417571445294044 -0.17769690989626816 -0.47351698389022967
Ni 9.1511551232589 5.013809336616534 10.572264103588864 0.10211753269805637 -0.7463439394231276 -0.29820142974194447
Ni 8.576552371457664 2.2879847292208937 5.854083494441157 0.0042942564999797015 0.2670381167652627 -0.1339372483118145
Ni 3.389424391114955 2.6561763413518147 11.357895997730452 1.1978677068717176 -0.5930704526765463 0.9304868620550557
Ni 1.109705950470579 3.4011539538470155 12.497974862545137 -0.63013573295996 0.5601353925114224 0.10850441006100667
Ni 3.038694971831452 8.360480519669256 8.088713751132115 0.5000047457681132 -0.4546831390131782 -0.03389279609270292
Ni 5.950278668275149 8.237488717750724 3.447793320066941 0.16611640414752035 -0.9198234688039384 0.2547829535469935
Ni 3.37569888880378 8.5556907016102 3.875791119924397 -0.3245336398785701 -0.5191725769458156 -0.8270362123678725
Ni 3.2883605829286195 4.195437653661909 9.338252129796519 0.05810076079747413 0.8134469037192119 -0.2637692162060038
Ni 7.016083061884552 5.978850680058373 11.31994671547713 0.8587795662177404 0.9134299065727688 1.7310250281323993
Ni 0.9035654930171567 0.22069258862224927 0.2584714413316008 -0.3200154402932424 -0.09683468703256226 0.06928711643159681
Ni 4.712303979738515 0.2548532312269949 1.758704388072541 -1.1171183554367923 0.2873691150131309 -1.6500825868500613
Ni 6.255794132070112 5.540473083001581 0.5530201740966592 0.032065513075977034 0.9055240214621307 -0.752867085253626
Ni 8.152520020508303 8.881065308523391 10.94435827886032 -0.19703649076514454 0.5121084710101825 0.7981223575469996
Ni 9.142041243902211 4.689337003759655 6.202020421089769 -0.6338136960321794 0.04794207509691743 -0.892999920853191
Ni 8.290741114831864 9.031280268080357 2.1679212167396664 -0.2822168813882301 0.2639065131148165 0.5246451700246125
P 8.4076083898227 1.4398835718047456 3.603313468797435 1.3265403643504832 1.9139944992815168 0.8057294804702962
P 1.785181118991661 3.361280731661496 1.680324114217071 -0.5903121732051188 -0.2834612953182925 -1.1259943177701834
P 4.596156701216856 0.9000138142318547 8.339995253039225 0.5780163865569012 0.6739766414043102 -0.07919434824297975
P 8.570373161253828 1.4928078692290447 12.346949679113361 -0.36708668274943235 0.12772006375750905 0.8248870272353536
P 6.666347055450929 7.8117429574823065 1.2174010172768426 -0.05802799857800974 -0.05924464459393022 1.4864300708620013
P 1.8181004512280257 3.3608797209698023 6.041911434103182 -0.49351888093345325 -1.0658045356541646 -0.018592932510838947
P 6.784690778897549 3.9376880315753575 6.091359697940839 0.1580526533027794 0.13294325982966135 0.37991571619330056
P 2.2157845769571956 8.423348059471705 10.435978797240665 0.40279262079147404 0.9425119115403896 -0.640906855433535
