# total energy = -340895.7803435361 ev
CRYSTAL
PRIMVEC
9.01601468303958 0.00000000000000 0.00000000000000

0.00000000000000 9.01601468303958 0.00000000000000

0.00000000000000 0.00000000000000 13.19584884136581

PRIMCOORD
 96 1
Ni 6.419312079933842 1.8937056287941465 11.381841800843139 -0.0934868536062519 0.6357728766410792 -0.2021067061992003
Ni 4.762294860699413 0.30805647460435615 5.938699007671309 -1.2325279772580646 -0.22645685290879064 -0.04125977798073539
Ni 2.6951932433081125 1.7158557290922196 4.857549954248071 0.4660152761965458 -1.3607895153413403 -0.41258415296059914
Ni 3.600725663791877 4.055727845600528 5.202410701161726 -0.3416322472320697 1.1395378607825728 -0.8861281334340222
Ni 5.237231450306957 4.640704890741987 2.9423312135367206 -0.5147037425411846 -0.41582965648109027 -1.3797709415398496
Ni 7.164909421292975 6.193100279086161 2.54690414996088 0.6202153885224545 -0.5315611804181555 -0.2842539664229169
Ni 5.054621095011264 4.413925080988232 11.336935738010057 -0.17781158109726153 0.046480660060042533 0.4152275041207171
Ni 5.753740882230509 7.779873730269403 12.409138200361905 -1.1116668454039178 0.7288547814994286 0.06731199498309698
Ni 1.8619872901978076 6.5024217005083305 0.19629486192489168 0.9403280165151934 0.04253735914157836 0.5795089119420277
Ni 2.752093310073745 1.525085880780698 0.40157508378301565 -0.31209927076995925 -0.06384460525978682 1.2847740790469744
Ni 0.28134112238866216 0.048516976593126294 4.788456629632044 1.252263765124095 0.44434833274607344 0.18262494332550483
Ni 8.710867375368307 2.1802345658582873 1.391990574870234 -0.15784079440228946 0.9339617079775335 0.23946303536047145
Ni 6.822499227088382 0.6566787027182368 4.82132721486642 0.5443441911154366 0.45475461568106196 -0.15172825374664836
Ni 0.9884887688137567 7.402057647586181 2.40180311929917 -1.0506491680699648 -0.21160024751193235 0.30571650717206705
Ni 7.443594425844661 3.9874585846990276 3.8583736019857358 1.6261031932163286 0.1322781154418367 -1.6855494122981034
Ni 7.63270532750987 3.842832697995256 12.610982419138997 -0.13764837861481455 -0.30021434640691524 -0.7867876492604708
Ni 7.973240190722978 8.566511969095998 6.9564817088140485 -0.7190264825550972 1.005527593140978 0.12487256700638494
Ni 7.056194319873232 0.735797835327194 0.2983777831651379 -1.445288049406053 -0.8059153712288571 1.0600154397762132
Ni 1.986128792225377 6.213224023187079 9.122738747575717 -0.5392971156098325 1.6322149625410212 1.026445831350884
Ni 0.08192762108899118 4.883875814642457 1.1392230052614232 -0.4040079812558139 -0.16555667498930843 1.4929007661880096
Ni 6.305701282704603 2.024978798197982 7.051940564287743 0.3470030246256798 -0.15269293165276285 -0.44581874664401283
Ni 3.1661627865875186 4.121896375150992 0.3902843289722723 0.6710039319292315 -0.23758792982494564 0.25101448764349676
Ni 5.793681825943352 5.619663732353831 4.96927910927576 0.024160142185971296 0.4814028143962096 -0.06465090321116608
Ni 5.171964522194706 2.6127237597547555 9.35890512990271 0.3684231421726687 0.7669222777951114 0.0934616567952713
P 0.2395969757993931 5.409392244933758 12.20454950680689 -0.10485370068229684 0.36115771885950704 0.2129261654122075
P 4.053212377587913 5.7820691994191655 12.705411645770251 0.18017982421912193 2.022465485001426 -0.5781017471818559
P 2.632477847266006 8.342626299958908 1.3744931957588313 -0.8647427257797107 0.7862310054260524 -0.7139585811138864
P 6.28911181624148 7.694302737768593 5.825373116496544 -0.5715418345761512 0.20423018030010634 0.5340482085060673
P 4.665670234566109 1.1578365669533337 12.579588657060416 1.1344599320390332 -1.8732468850505095 -0.5150991782073904
P 3.9977368410946577 6.2217531727925754 8.194753746476131 0.10314134597688043 -0.3458941078322172 0.23410305660013875
P 4.723462886755572 1.0576415991247057 3.668366508490943 -0.41039023063307384 0.12226366862862813 0.7400017992551836
P 0.12330120948715464 5.572726361480454 3.5046456049272536 0.2684748492117892 0.35781554186015146 -0.9333058195610894
Ni 1.4796451682947551 0.9353032999735627 2.593604399656007 -0.13291806301868078 0.4373150800483759 0.2226930149909842
Ni 1.8236151329874557 6.4015956116729535 4.650942575072897 -0.16818922751614906 0.10261118450502328 0.39734728140618664
Ni 5.930094123545002 5.616922863981663 9.187715360024864 0.06194610268549332 0.7418115987704128 0.7845677587910165
Ni 8.695179510343399 2.337392712553222 10.141444688591188 -0.4595173271770279 0.5910145985887821 -0.3753440376622181
Ni 2.3329658494915955 5.261980409785908 7.013633322380943 -0.6486147656007538 -1.5355962481740069 -0.8534779514991688
Ni 0.4735327961682458 9.057127407714068 9.041874114582379 0.6204046217151251 0.4095589929810301 0.17964246365841322
Ni 1.425981850692308 1.0830397116391701 11.313790727489687 0.295095280012795 -0.13801013282960747 -0.555501750394153
Ni 4.245037099582144 6.802339418929936 1.6494942568339783 0.09105047625061738 -0.19870642226839974 -0.11757037691801688
Ni 5.51988350118678 7.921659572442804 8.08356555231137 -0.11153728335005952 0.17235312908585154 -0.1611145800575548
Ni 5.586755279859051 2.8360414199857717 4.7561270052605975 -1.389489454379194 -0.5401512360800116 0.35008783419859063
Ni 0.8937818489395323 7.336646463243817 7.101226606907665 0.05901298819909837 0.5554148471073015 -0.577012113662103
Ni 5.099791327065743 4.485277818808421 7.296683881096457 0.030975622445907944 -0.5995275211557998 -1.0198146991876114
Ni 8.195881649875336 7.170273949850343 9.176669840805314 -0.743311837465023 -0.4043517377484778 -0.33593596817824084
Ni 4.6584393910316395 0.30510463149564626 10.434075664189155 -0.2034223396868303 0.18230201276844732 -0.2648794185510471
Ni 7.969750993157095 7.214236035977617 4.550047062926778 0.43778893436100086 -0.7271272572853607 0.6660280759811948
Ni 6.99679681712375 6.067714567073858 7.016417467622145 1.5175306489215477 -0.12249712479567293 0.46313486932495723
Ni 2.306350575035543 5.210976816426189 2.3411280473117393 -0.13492223793290312 -0.09511101947323619 1.3384576846133596
Ni 2.3112643028738047 5.188581036700975 11.291529286378765 0.21878339552393292 -0.6175478689926204 0.4163919567424635
Ni 1.0333524563792433 3.5216822657037294 3.9031209829656928 0.17135759794180166 -0.2862501709173393 -0.8693758536763478
Ni 3.5852271350689926 2.917951910647437 2.8759823636986144 -0.09197915871247385 -0.6653207655015252 -0.5343922221090475
Ni 1.0675501989306682 3.3374941078911644 8.26937659271272 -0.41970945115147074 0.3105504382256007 -0.9301112238831917
Ni 3.458290668582963 2.7622904223399356 7.253665771674992 0.3944313933109724 0.006434699881750208 -0.6405664413749808
Ni 3.8957116223464574 6.74004777556379 6.038037454133634 0.5210296847592124 1.4036379779654342 -0.16882326155572214
Ni 0.9191015221288723 7.25185084797987 11.267354647015956 -0.370011312595395 1.1279100467356575 -0.6147011435724445
P 0.2620306227850128 5.513031330256361 7.900460217826099 -0.9546395480418591 -0.36991335356495003 -0.013240152839357842
P 8.517140274339447 1.6033178375744535 7.846449783669939 -1.1696066551434954 0.28181758906728244 0.3850574082952401
P 1.773531173094715 3.2332689816337234 10.30219661861884 -0.06290152462022715 0.1162899675436965 0.9667273324443287
P 3.853138002434032 6.075856028060923 3.9008904210075532 0.15127085449425562 -0.5193067885308346 -1.0685394180868242
P 6.861592665449305 3.9407736622283505 10.312053827142824 0.2742454331469793 -0.47918189548549095 0.1901024826494726
P 6.267049629048405 7.6999106987142785 10.267465128015994 0.04567436210866327 0.6323785062475497 -1.2127315113574275
P 2.204415516431164 8.369412878688221 5.676378970824629 0.6363331200199235 1.1228454877285565 -0.10263586709537162
P 6.964221957161109 3.9777934172813825 1.5620190820956616 -0.27724513920525157 0.38498516029640795 -0.27793702306595364
Ni 5.204494302085437 2.8808510114649653 0.41624053277699086 0.7556230507322084 0.8688865727447552 0.4869494552460517
Ni 1.419472288308409 1.1766710209976063 6.917435153727914 0.06861194474144312 -0.6665153000302586 0.03400643885243175
Ni 6.961372896616355 0.7155640958508144 9.146834046011964 -0.532945719470508 -0.33077730679543677 -0.020628989104261246
Ni 2.7877065668831644 1.653392781452812 9.184257718509315 -0.6357762190751889 -1.349757425896895 0.7161707582738568
Ni 6.367722445639285 2.1245426450198606 2.542286147394353 0.3418783018046047 -0.6886548122417753 -0.15621482876309226
Ni 4.089736251849928 6.948570156193728 10.469467127044775 -0.15964956547625406 -0.7966324032650344 0.051366784507750236
Ni 8.359441166781584 7.162213632992717 0.21469384247450754 -0.6169976529161051 0.18418174628966347 0.16767500688389186
Ni 7.4843107467943675 3.8122774252542118 8.191019313319051 0.631299414250758 -0.10317425609734489 -0.5444814880242494
Ni 3.1467963876947 8.479038597560558 12.35682998972109 -0.05056819986585484 -0.5651068775840848 -0.19402135808790458
Ni 8.862715089592166 4.970267264452041 9.946304778108649 0.5502271322587751 -1.0120435398826246 0.9726681234087957
Ni 8.602783394955313 2.4580810810724354 5.703271938523651 -0.363413090552587 -0.3734905293932471 0.37254024966483584
Ni 3.4605176241353495 2.5707091327340224 11.586389922333433 -0.006776399491885103 1.122490418381983 -1.2176353764169483
Ni 1.1820986616556497 3.3475740119703876 12.683506337227426 -1.1211020226748887 -0.7740136374242541 -1.0462309843976112
Ni 3.0146306328670334 8.410489840213213 7.937922659185293 0.3770448224034087 -0.25405430291108505 -0.9541723785974534
Ni 5.597547449074462 7.8790228404297045 3.7434644986854693 -0.397088114207529 -0.16172958793373435 -0.8767757456848447
Ni 3.200784281814904 8.301044441628518 3.535642662373022 -0.27929893641048675 0.21747881777989644 0.8151129785677251
Ni 3.4618970743358153 4.328958161451024 9.258141251566569 0.4593072680487509 -0.4433630860146687 0.15116775325748805
Ni 7.221295575238826 6.111270932553936 11.309225017806574 0.381296141480595 -0.9502203359282408 0.6718056018949203
Ni 0.6610523712950088 9.187859616254977 0.16966786665014255 0.06120639630599136 -0.7548450349156033 0.6977919986563531
Ni 4.714077215783774 0.3068194774311277 1.555645661528933 -0.026558981435451032 0.16744617870253742 -0.2970405766646239
Ni 6.12977179406607 5.6702886531095 0.4109138714800275 -0.4812441773311582 -0.4686802246232186 -0.4693916488679465
Ni 7.951538644105188 8.786358463789895 11.259357442259004 0.49928226577979173 -0.17759895086582317 0.18461600561360464
Ni -0.06378469534782787 5.0125974519761485 5.669424918931691 0.4810695994265069 -0.1138142523096943 0.8977574901428345
Ni 7.940439930400784 8.73676136867379 2.6418878614766363 -0.12319826462775556 0.3797236547871525 -0.8546146362067734
P 8.362452515585215 1.6797916715636934 3.5894159753509314 0.4061209138337587 0.14239154972675477 -0.29027831824012584
P 1.706776602609413 3.071891340207951 1.687102757626164 0.23489238527065354 0.1418953268166266 0.43659311428068676
P 4.597229669391349 1.008531368785235 8.07132000157756 0.7457986084426188 -0.19201744028399834 -0.17534692160685286
P 8.438682917186139 1.709246990550117 12.253651622733416 1.1492877410804851 0.19834801048771647 0.2019616959809038
P 6.344957009324403 7.843553839850399 1.3296006569473218 0.9372933434539277 -0.720094004587663 0.4644723571894582
P 1.6428801086832467 3.2472347879116454 6.0476304934362215 0.9691089453026278 0.5508704222697286 -0.4674715490270981
P 6.979846710085343 4.043628354299707 5.889307477683116 -1.0811136552074088 -0.12139206465695224 2.6845631155799636
P 2.3407917499752857 8.434860127088115 9.95275753960194 0.28056726159994905 0.15606313367657637 2.1272405099269878
