# total energy = -340891.6784958587 ev
CRYSTAL
PRIMVEC
9.09373686272427 0.00000000000000 0.00000000000000
0.00000000000000 9.09373686272427 0.00000000000000
0.00000000000000 0.00000000000000 13.30960310760418
PRIMCOORD
 96 1
Ni 6.280143697037589 2.1098196771540976 11.440588318610383 2.013839433895312 -0.10133283201323193 -0.7260301675664399
Ni 4.614871341172749 0.3109576002309456 6.327971296129104 -0.04099572568607133 -1.0460844315174178 -1.5813307740966442
Ni 3.0213576620450167 1.5906855269967928 4.945568715778709 -1.3443719932152653 0.4041892440286845 0.5572788968992338
Ni 3.6209986636981544 4.314450653720321 4.976447408305452 -0.8114537845485833 0.48605548267687254 0.13795228300847853
Ni 5.08817305808268 4.4335786052164705 2.496841838475848 0.20561471935245879 0.7373859588988914 0.7988744052216757
Ni 7.29746912160444 5.9210775012493855 2.686489899763016 0.14108285821766026 -0.2266232032833258 -0.5946483386866275
Ni 5.105178345815336 4.710692045364728 11.416231654084637 -0.2181964126722113 0.17839007930855083 -0.17154246025909814
Ni 6.00500359776526 7.6444133662976546 12.578067468179398 -2.15219820831359 -0.40754736186764 -1.1217748803721972
Ni 1.687561104652402 6.8629976606402 0.2766469314527034 1.3278598544928553 -0.13625175537760406 0.1557998527128607
Ni 2.7169539178937105 1.6806316772447634 0.42277418737572847 0.34415784186740084 -0.7934974571804786 0.9329162974321545
Ni 0.5397732950974315 -0.33465678758927503 4.539120514000007 -0.1735206670313915 1.1440979693494298 0.06127170232628803
Ni 8.68342735302621 2.425872498089111 1.4926723228730792 0.3650477979425326 -0.7616229770693851 -0.11710140770139833
Ni 6.6489947535746365 0.7626789704465629 4.759727292697364 0.690559742573972 -0.9769153287209241 -0.0056178604074096795
Ni 0.3955138927039721 7.094551479643747 2.3536173033251564 0.591250111638356 0.9722642031021578 0.4738160031878872
Ni 7.77117096293161 3.6561277687843856 3.8922466436391585 -0.28440231907532315 0.7702135469518736 -0.01799437969489159
Ni 7.718900164061392 3.992186810581348 12.744822956558442 0.9319955853900981 -1.5067153034735985 -0.4196109779003935
Ni 7.695547448073444 8.850470203486726 6.846299741209878 0.9122078612402097 0.23687290603579206 -0.3228516241904569
Ni 6.879648292639396 0.38963933875996354 0.37579685267084606 -0.306378309125782 1.4207702667703468 0.46798371277682627
Ni 1.8091989274930507 6.763675867797381 9.218403701985151 0.33296737246822006 -0.28644197521317116 -0.7044681251249479
Ni 9.222322193153065 4.788307088572334 1.4661595333626192 0.27643935547450454 -0.037167610189232765 0.10497017165550308
Ni 6.439220434100348 1.8113905180511096 7.000891447304857 0.012300157523591718 1.3392814660662353 0.5179767568655014
Ni 3.473534628472081 4.560618107689845 0.5031509984359588 -0.6539222938565964 -0.13079098937334893 0.048157276431517064
Ni 6.0724791244905605 5.5345936891435565 4.735077809848092 -0.4710214711618856 -0.26705560026675945 0.8826841407494798
Ni 5.166188225707526 3.049084465412327 9.379782973194384 0.18146306180691976 -0.6398046235082917 -0.46757567870513017
P 0.3268843707844079 5.480022174874214 12.636855748182233 -1.0323385426862348 0.6669526446779933 -1.006983608861214
P 3.9595948580498823 6.337797988067023 12.560259203491237 -0.04768805010458239 -0.5318537719579098 0.3680107372255985
P 2.1968467379035745 8.63242967730175 1.4424148773205125 0.6852100482262844 0.12002089534103846 0.3998741615930984
P 6.213068294729528 7.721446410352913 5.7724276427504035 0.531206368181898 0.1587198545731331 -0.00019386117836095644
P 4.83628564369399 1.028365220987945 12.70291174260001 0.4375325953758207 -0.5108820548022492 0.889970389998248
P 3.9098884929446953 6.376719181380269 8.063237234426822 -0.42594514764853736 -0.9696892432861299 2.105606733707296
P 4.6822923054775165 0.9068410698567392 3.787074849941569 0.7101294371757835 -0.13884548424670926 -1.1606797849675106
P 0.3570437487337957 5.400879383891695 3.725850357861953 -1.6523950370333218 0.4941225759557231 0.9375214003043338
Ni 1.5520553332597207 1.1561413161385097 2.7898520398462745 -0.6414185049626309 0.3626908676745818 -1.208471450529493
Ni 2.0732992303442854 6.587257374742014 4.792801213276868 -1.1866088461284465 0.360659696177166 1.5541781249412523
Ni 5.968164870169009 5.669599305014689 9.08721108993557 0.4172000544660557 -0.9288166734414842 0.8931547012635006
Ni 8.61612460729926 2.305525985867734 10.088865277951786 0.07890484202701896 0.5461107960975563 0.7907870002278511
Ni 2.1923271507361255 5.260217463758684 7.090238320300646 0.9467912556420339 0.17293291284872153 -0.17178260129436224
Ni 0.7186070846350407 9.266517753784461 9.446384591817488 -0.5192070297281768 -0.23122496372139534 -0.44683690349588207
Ni 1.5887758422781522 1.137335468528278 11.664775301468355 -1.0610500516883143 0.19002997754032433 -0.3225369211635155
Ni 4.112478760382193 6.803824715572609 1.704121708657718 -0.42675735913718765 -0.13788749120881413 -0.16189568119795344
Ni 5.692751958794017 7.801671356009328 8.140738605924986 -0.42654858556049124 1.1888166524130428 -0.35733294579677816
Ni 5.349363365172176 2.8023986684477427 4.695987473031196 0.7992760115354687 0.6432519586269437 0.9464199883455443
Ni 0.8012200455634316 7.588605103829572 6.899804560157809 0.12017670419261238 0.22034148403967213 -0.493374384935789
Ni 4.866003975410738 4.575168086498536 7.07233729949758 1.1015081597033611 1.3308145662458046 0.22027334980589805
Ni 8.319877945017577 7.5476832884301315 8.70498587475231 -0.40790783053085233 -0.25520821400987015 2.10578182583258
Ni 4.857437675387122 0.36923663097547793 10.484679263968687 -0.7199065711672054 -0.8859160174232161 -0.08096840942426702
Ni 8.179788930300159 7.049473826547074 4.864939098836677 -0.3233367913569915 -0.5806923907271676 -0.25431192744784586
Ni 7.237668708700725 6.226054150816283 7.067225710067352 -0.17396983875366812 -0.9184283882286247 -1.1540658791954188
Ni 2.3172205313352188 5.149182937974868 3.0295320220144744 1.410383267109068 -0.46118417335648954 -2.8026546551087734
Ni 2.1745761765895235 5.391349147772003 11.437447341935057 0.8778391539523528 0.06416805003747658 0.1592088783944097
Ni 1.154649943310619 3.2416079662615624 3.867850876045363 -0.3782455275797292 0.10629326134230081 1.0789071344743935
Ni 3.651226244673208 2.7601491674820093 2.968507592143477 -0.8092670613099094 -0.5000289141378292 -1.2996597379095554
Ni 1.1213668667857406 3.269880393834198 8.351563251994527 -0.27175377707337717 1.2903685424156164 0.570257825657405
Ni 3.933968707873077 2.588850448219951 6.92406846856865 -0.3394205842927316 -0.3063397425783627 0.6541516362585831
Ni 4.204907500764397 6.9167507386015545 6.125624740836652 -0.008714239944546282 0.6276867571988352 -1.7324234511418226
Ni 0.5984588158749317 7.488664936887383 11.359918689226628 0.47625803697047653 -0.04744970884153118 -0.3472760757814084
P 0.18378351045359037 5.720833417894789 7.923312816344677 0.09973514850880888 0.19836446554794868 0.7407926705875951
P 8.692321027573021 1.5291845853198112 7.938845828096629 -0.8161128805871493 -0.09677426610827204 1.0189513227460516
P 1.9727225018292158 3.3580714528883706 10.419875477102135 -0.8773061642670181 -0.340819007302155 0.8601731041311573
P 4.063854549950902 6.237257634498975 3.926452734444713 0.0041302201182896615 -0.4491897199987747 -0.9441931558975546
P 6.988754946231059 3.999270831513829 10.282453655375082 0.13539840623837326 0.25159015764130865 0.3787916298911863
P 6.49662010050063 7.777691172185255 10.252533442702363 0.22078242823183267 -0.6092943707345765 -0.04319633288181593
P 2.3421191825715892 8.784840705322779 5.918048377536151 0.3677222594509022 -0.646945605428447 0.4562088316290853
P 6.916905332126397 3.7554222804169397 1.524827776040284 0.6169973958057889 0.7630429973453633 0.5214577734355664
Ni 5.393740800538681 3.1544354057239983 -0.046914587921269915 -0.29169910984705244 -0.971550721974901 1.881308064792089
Ni 1.6392642687443066 1.3911052864253428 7.197766301191567 0.3467896230632931 -2.1051799305825227 -0.5836370751777884
Ni 6.9917195044133305 0.6498393379167939 9.254805930217142 -0.11203916268714254 0.2153579147821517 -0.39607201423818883
Ni 2.7337773308912587 1.464573585672472 9.611170376815306 1.106017360427624 1.0026430725043312 -1.0953405974400685
Ni 6.391660190869443 1.968130164767723 2.5267747823800257 -0.544398698502456 -0.6328384766031037 -0.01010752074764711
Ni 4.208754151411943 6.7871922710469255 10.24505384422102 -0.07674845780564847 1.0550647806391573 0.9167648844832726
Ni 8.185781702821988 7.21532539749263 -0.008860937094492228 0.12475995268792063 -0.4130870607389466 1.4385712995075095
Ni 7.721992034558238 4.057479840485345 8.126444161119123 0.34626151847396497 -0.8689248821818584 0.6062434997233946
Ni 3.2395709692283456 8.55599681987235 12.388418497518554 0.7292918690368473 -0.5251365078387343 1.3611343002752687
Ni 9.276884613685654 5.1406893878452955 10.007104400157381 -0.42604542067182755 -1.0474597145983895 0.38891406303716897
Ni 8.468196791498661 2.1673011871851786 5.800550933040251 0.778094492361847 0.43044637795300067 0.09666088045885934
Ni 3.7599600550578995 2.58735907539206 11.714792672370578 -1.0362098527161832 0.8670040110100616 -1.357232137007385
Ni 1.191952451481398 3.4523098468849045 12.700302749524878 -0.021476424706221076 -0.5517669659420692 -0.025193468546492098
Ni 3.252056669793553 8.620062195314363 8.22528125779288 -0.34716526123515695 -0.7780654388961246 -0.23160934364400756
Ni 5.7600819857312295 7.80954653203953 3.6102298606323733 -1.1621674252566307 0.1945690030612585 0.0592317890781238
Ni 2.848594851165334 8.602811376689312 3.8222648830640615 1.8674572749519258 -1.1090450915103545 -1.5579100811798587
Ni 3.3346187057961134 4.544758630788373 9.257361270245418 0.2423943500746535 0.2694143303069231 -0.22434520588242654
Ni 7.385832961656966 5.936936978150857 11.413956401148427 -0.136901473146461 0.46467136057414166 -0.8464231015349164
Ni 0.3403567417875793 9.214319704808286 0.3287940555030484 0.7260756760923947 -0.6260186254677929 0.8776725464675014
Ni 4.624865357866967 0.19320916860059487 1.5174009212321231 -0.5567723895764605 0.026009022469251977 0.3424938239014166
Ni 5.980432321052085 5.302285089989309 0.41871474328810393 -0.2592564159373148 3.1244840086823027 -0.30397072812555387
Ni 7.850741159541634 9.064082079871806 11.528339240805591 0.3698225936233566 0.05475369870211215 -0.5304072693193704
Ni 9.226414374693011 4.807667654124647 5.9934209052598675 -0.6977997119658369 -0.9464176743526992 -1.4297876397776086
Ni 7.796833488055437 8.904832561810693 2.5690861207556956 0.6180155526576582 -0.26847202099831186 0.22444239358192314
P 8.56808239602032 1.6054446617508578 3.644821525876358 0.038828285721107324 -0.9393592248440209 0.058080191972183844
P 1.903337290385275 3.298007321618747 1.667133843778677 -0.034263549168560344 -0.006934779446620315 -0.10766314510663393
P 4.8055670009341425 1.1234493325027342 8.270161576801959 0.26465290436253774 0.03369019316359359 1.9292228861954968
P 8.656046111655606 1.7522994166143173 12.573807961883153 -0.5540786447943812 0.9242308538430146 -0.8512043249736437
P 6.238276133015583 7.495039646352939 1.4959997211518914 1.0242624505463198 0.19396068005329822 -0.813880648822521
P 1.9710947229499935 3.225302896259074 6.166139156829449 -0.5097348285716834 1.0845147104691581 -0.912914657499247
P 6.824276529535575 3.9182911057067136 6.174338069888146 -0.1346432732399036 0.12481497429557215 -1.408478593887187
P 2.588677667221597 8.388790282150236 10.382395641064624 -1.0429330303726296 1.143450565573418 -0.045338318925483206
