# total energy = -340860.67469965573 ev
CRYSTAL
PRIMVEC
9.34101358191500 0.00000000000000 0.00000000000000

0.00000000000000 9.34101358191500 0.00000000000000

0.00000000000000 0.00000000000000 13.67151758125805

PRIMCOORD
 96 1
Ni 3.3051400865895073 3.5953093245867893 2.268733173601937 1.04764097737126 1.3452340841052444 1.6656752990819959
Ni 5.715224276163188 6.340829302741542 7.438945752072837 1.7468370554639918 -0.20311509285905663 -0.37173189483092756
Ni 3.2649083421890985 5.818825454975571 9.727817216306963 1.6257090431017034 0.3894066864028713 -0.7901018012353683
Ni 6.221451152419457 7.332882282147395 4.521840700110072 0.09857686653464959 0.279937341325434 -0.15486191427962365
Ni 6.2383210224884476 3.8235476442244924 8.536577402812448 -2.012405529662263 -2.9799139632469904 -0.6747289461893025
Ni 3.966250304824688 7.472212836936458 5.851368611306332 -0.07694257609432555 -0.29090772429400863 0.4038717127882658
Ni 7.686402272529997 4.322731396432024 10.47556720135493 1.2359020359366197 -1.3933383958116392 -0.6159465859437714
Ni 1.8427110400773212 6.552020273057038 11.53742090284856 -1.3602308146243929 -0.5113469102538097 -0.3224754717979607
Ni 3.4937911917463804 2.953189386445881 13.457625923589971 -3.072330466607199 -4.774033091626397 -1.6300614065331283
Ni 0.19526827899788796 8.84379118782794 4.9358138605438855 0.21181287774337068 -0.8524587662060351 0.10020977415238226
Ni 3.1994745438318053 8.204809830164983 12.639919221531661 0.7078121018965164 0.9447004345512762 1.7753472470885425
Ni 8.442949623929556 6.392083442868091 10.888556753085386 1.3025262608240729 0.8229738693730408 0.3246621950366344
Ni 5.2985590356884655 0.4260389473486046 3.5904959004192643 -0.16483316655972258 -0.6968376051628837 0.5328374760274178
Ni 5.285089294470591 7.266009967737707 1.8974839399242394 2.2052989447933116 0.8410160715867323 -1.0691857934215714
Ni 7.058835633152922 0.9753605885900799 12.963729184925654 0.43105727206412214 1.6139578161030461 0.2315923743631431
Ni 5.02455909176063 0.6987208742959672 9.124917390823123 -1.5698083752793415 2.171987989346008 1.7667060264737768
Ni 8.991183037118407 4.357918993635725 5.154585997275766 -0.14084734516808645 0.48950153224394405 1.083814856188656
Ni 1.4716766497061502 6.895237125739699 0.2154588793047102 -2.5996249228746713 1.7107246260121505 -1.0841120757141005
Ni 6.8724730762612225 5.485743601752963 12.470105203850494 -0.4001400136599754 3.3789669144903747 0.373128518068138
Ni 6.517682708066116 4.366092380297058 5.876920019161655 0.8017350145989225 0.042967247590145356 0.10122150324634827
Ni 3.401399228926682 6.244345976084515 1.0649922819715802 2.064829037569302 -0.9606896108906811 -0.5630947322500625
Ni 3.7344810821492898 7.422359848808997 3.409935981006443 -1.1259187273372415 -1.098647036105482 1.3987503108558297
Ni 0.4091074265916553 1.767543905833047 5.051448132724414 0.01831396781783943 0.1360578941992431 0.8663602067784757
Ni 7.537469156040534 4.634048688602171 3.4198617417679653 -0.10594770507742399 1.2244508566768848 -1.1161688470393294
P 3.9252058922648096 5.395331933758639 7.2347483984354435 2.0380479128207156 -2.6665620510168524 -1.0888344208904344
P 5.188325737413745 1.6509587184958052 0.4178356694446253 0.20195655377458122 0.8952822891294646 -1.3547757050470925
P 7.905066053507282 2.634119053214128 4.2911064617113315 -0.347581265726653 -0.11949459052392322 0.6241412059394218
P 2.464990665911179 5.030499976236753 12.962170169801338 -0.2756574830031575 -0.7216284389543184 0.8404933663140429
P 5.922510702907899 7.764418415839079 9.643054059071618 -0.31089316627700003 1.4333522172004152 1.071376373314987
P 2.656360005946279 1.521940642420011 11.519975626358612 -0.29577148014421323 -0.5781205162349334 0.9681499238234682
P 5.192706672664219 9.261801534221783 5.6515185652714335 -0.6809823832981821 0.16234279603770105 -0.20832131965034448
P 7.723402026319182 6.2643544266314555 5.77111622940671 -0.08689223110786971 0.025189354781434036 -1.3596080934387293
Ni 8.640315894520741 7.545521109528612 7.2594254874433375 -1.0833947379321018 2.8405532299267597 0.24070513529768867
Ni 9.015759243182368 9.073748253917854 1.0583349417732586 1.2327310944078058 -0.33452674653554 0.06914544864740994
Ni 0.46023452893695294 1.7272280923126933 10.535244133198649 -2.5005076104555193 0.3547340747213503 0.06963370113773815
Ni 4.895746517978036 1.302725741656419 11.483445725539788 -1.3246220642818476 0.33609640501550503 1.1512824029130109
Ni 0.36763145921605866 0.4503610778500637 7.797577144948103 -1.4253877109376998 0.7603402537022196 -0.2830933704559125
Ni 4.147792898839534 6.298112848796089 11.783631332127866 0.20553424382351052 -2.236359413643542 -1.174568627134461
Ni 1.0969805821107024 8.817374802138513 11.420420040418255 0.7500833518609017 0.8481989624884166 0.6288771779625105
Ni 1.282717291109478 8.09522106180984 9.017500408066564 -0.8690783770405872 -1.4663235299201134 0.8158724824415691
Ni 9.194107210639299 4.863277155652561 12.942824931200631 0.14419029349839038 -0.036866019788413924 -0.48558831323246693
Ni 5.904688049479532 3.038781091563351 3.527634617132292 -1.5478778937548374 -1.9476435547945299 0.4868185860951422
Ni 7.381156639022555 7.703832603398621 0.5499353458170747 -2.555508649281747 -1.272230438054009 -1.5062339929618058
Ni 6.614847928696033 0.5641178063518183 1.6023705035728506 0.4166236131372954 -1.9497477456217258 0.5184819786366942
Ni 1.0191792821081476 4.145401599427761 10.504564509026672 -0.556303677470158 -0.16640025393652633 1.1609042422734912
Ni 4.698520362586758 4.439475380995829 0.21694783682907173 3.0761015036138573 3.675927529846682 0.6782595850503803
Ni 3.3889943632281114 8.219138944608963 10.401987105274955 0.9337490777460951 0.5736231425852121 -0.8811214242480503
Ni 2.7870407823943206 9.278559312130847 4.409187145282265 -0.6260127119305219 0.8533213713166464 0.5409727035400426
Ni 6.881150877642225 1.9118812437655093 10.375041084129874 0.6023181965270595 -0.5810433463086832 -1.0316607998929201
Ni 5.951019475582626 5.702146857505057 9.759494460702289 -0.4560625358592081 1.4090226393161152 0.9772624276476977
Ni 2.193718297874897 4.285582186429604 8.443720257529053 -0.9353431617060922 -1.0341190316254254 -2.935919045723279
Ni 6.555439083934807 5.351830834693697 1.329590495985552 0.5585194541745542 -0.032280971520892786 -0.2945995713232991
Ni 0.6057833962979579 3.3465674806958017 3.362153895533629 1.1194300342891044 1.0368127764075048 -1.9593058216238062
Ni 1.5004469707540393 3.6833763982359775 0.9732766085167734 -1.8774578378080633 0.7229826389893678 -0.2573460862884794
Ni 8.149025298574724 2.817511167867767 7.008183988385982 -0.4491012740500265 -0.3946352817916623 -0.06598684841377023
Ni 3.468561114749514 2.280729837018107 4.686801127266407 0.10069391287765239 -0.6740514605063036 -0.6097900794240724
P 7.6719423838994345 4.980983264589071 7.777206263084065 0.2486483014041653 0.40166699182746307 0.7237264591339277
P 5.103854953895543 4.9824124396281375 3.0142142265127183 0.4405734390846735 1.106550864333591 -1.077170868509577
P 3.955685618751583 2.362912072271136 7.7591192589785365 -0.007753675803489871 -0.657512582311016 0.06379549718940626
P 2.4011354988061884 4.953847620873448 4.023226749715501 -0.11502575611929222 -1.2170838747888524 0.5925572604855537
P 1.7337948246817407 1.5629196678865989 2.7017377145886616 0.4265416435819557 -0.0427895843617005 0.35560439314144565
P 7.611123046125796 8.811938332382061 3.2124370680260115 -0.12708860082109724 -2.153767609683239 -0.3155275797252179
P 5.408278578230189 6.968414624145272 13.138096012502517 1.6175437336820917 1.0242195131235263 3.8229591494486095
P 3.0025005958003637 8.345167896420042 1.639351575335381 -0.13005565386922116 0.32509542591931107 -1.0547608762454932
Ni 8.84375382377463 1.189568706210273 2.7512562944390093 0.2465914188751366 0.9150594717563919 1.1497934770723102
Ni 3.3279882051879284 3.1359369711799405 9.959290328859888 1.622209514588877 -1.2708932072998242 0.9355213391551694
Ni 8.533837683603569 6.683990109344239 2.317157920791665 -0.12791855292156032 0.3074098357140899 0.739010638986508
Ni 1.807075074233913 3.610834088736657 5.896374547618291 0.6702757955139552 0.8743113433047524 0.4488945573558592
Ni 1.134634206832794 8.117480696568645 2.7624253440743867 0.04587105150050164 0.9909036725802159 -0.004401214391489194
Ni 3.8504030575402983 1.3619664481777545 2.071645265207903 -0.4635555018021436 -1.035843727626016 -0.26695789834663053
Ni 1.080082689001731 6.50627733079356 4.769130950530006 0.150753805648521 0.08141680981559526 0.302761281198485
Ni 6.9575043205790585 2.708193288899115 1.2982299119420202 -0.11065153831099653 2.5494107639141257 -0.20448883327813167
Ni 2.1363084299656996 1.222785349601927 6.622852243016142 1.922123041925922 0.4296215680588601 0.24852103179768167
Ni 8.991902295144605 1.9288538649810987 0.4647677227046609 0.6730872968208215 0.9394849517886078 -0.46786004271476844
Ni 2.1296482874633798 0.551381334680131 0.299605529660457 -0.6184672954830962 0.749096048246968 0.2703764371098763
Ni 5.740211486813547 8.681472399240546 7.699948610057156 1.5817148969089405 -0.9520676735496247 -2.6275393898967523
Ni 0.16612525151824203 5.598732498959219 7.010849913589575 1.8825452796332995 -2.0068678876734856 0.6817200327951549
Ni 1.131486285341515 2.809225689046508 12.494180731600112 0.742985821584172 -0.35475464354664066 -0.15120452003269444
Ni 6.461571241009405 3.4503648207880566 12.341579399177045 -3.2748030407862503 -2.3844171605171387 3.02049805531694
Ni 2.144659295880249 0.9455160510095585 9.480116895401963 2.5017525386062136 -0.4163364209141798 -1.4453536125366655
Ni 5.933374301407476 2.0338375137659126 6.452039671010293 -1.6442407833573036 -0.5455670077789443 0.5845747565007094
Ni 8.337078578878655 8.666863054396748 10.374056541325183 -0.8671865593345129 1.0585974763827637 -0.8681792622650855
Ni 1.5759316994514396 5.882288299520818 2.2712085421336545 -1.2572049111794543 -1.3900160163066255 1.6067967795782327
Ni 6.342239795753955 8.535874024508907 11.945351361760983 -0.5314393101283106 -1.7917902231359142 -1.7261931539613946
Ni 7.279339593755673 0.495076508647546 5.0792694068182564 0.5594100843096237 0.4397949090474361 0.3273968203589781
Ni 2.3196071344860663 6.438470915051149 7.400966125985625 -2.8895887951981716 0.9954614671542277 1.0873421526156242
Ni 3.339346877393848 8.541945683171612 8.06377547454503 0.4391840149363146 0.7082093373349351 -1.0084802480113986
Ni 4.405352659311434 4.394797314251656 5.020017491080928 -1.4254211352787967 1.063461746453601 0.38528623647659455
P 8.94036792461824 8.164475334617974 12.838114974106306 0.22475169729222583 -0.6680021689884302 -1.9211845892720527
P 7.614747359296764 0.338230619768581 8.116465328419975 -0.28809905120061996 0.6067358659787809 0.923161789148552
P 1.6606079852628406 8.142355815059076 6.459313518088211 -0.3618686288836026 2.1312899974060135 -0.9357632799626465
P 1.155558076685804 5.970523511409896 9.528432352735761 -1.577345307086335 0.8518370734616361 -1.1029461777014682
P 8.23528021563843 2.731387024990644 11.910105850274654 4.488917034313501 -1.6799783459682291 -0.10586748665879187
P 0.709484523952942 2.721756440250263 7.812766566719524 1.760560318587355 -0.43947892046891407 0.17656382473308946
P 5.33981829155487 3.8614347942797647 10.681761663641687 -1.137571995305454 -0.6136392779668335 -1.3878465194591325
P 8.657083013443131 4.650049844431727 1.3703920421989222 0.664678761042152 -0.2751718016159906 0.6475323311698525
