# total energy = -340867.76769788715 ev
CRYSTAL
PRIMVEC
9.26585057581806 0.00000000000000 0.00000000000000
0.00000000000000 9.26585057581806 0.00000000000000
0.00000000000000 0.00000000000000 13.56150892423886
PRIMCOORD
 96 1
Ni 8.835118253841653 3.278925077894456 9.087187379716402 0.973370548792459 -1.8571654061076144 0.27732278652072234
Ni 0.36261813602345405 1.2554115639377061 6.490592126154149 -0.25653593168235816 0.22901175812016042 0.7939232318639875
Ni 5.033061783670429 4.46267455341478 11.397986737862864 -1.5446205631598044 -0.4322860022649006 -0.32037668028740307
Ni 1.7654225117873994 0.9841723197895272 11.98270545921693 -0.5985425315347112 0.8095311136045735 -1.5706455264686563
Ni 5.64043828945778 6.608719675495586 0.722961505728513 0.47141639260745904 0.5226538506261966 1.8571512650402275
Ni 3.623114363691205 0.7916631548842767 5.491733433188832 -0.2150380695488877 0.24022562455810886 -0.1043983583124331
Ni 5.004458102917331 7.235980696636402 12.257298941276552 0.13241926900539128 0.3978008240038374 -0.7156318550512515
Ni 7.852484065249087 8.452596144178509 10.322152917755247 0.17123367076942766 -0.542537219813685 -0.20031464729578405
Ni 9.240851319217956 5.945701736950752 10.366322300904562 -1.3669565633840006 0.5849185129933733 1.0741922454972275
Ni 8.59261241235475 3.288357713789063 1.0474710514697059 0.9865780486216686 1.171501558173363 1.9087072827406482
Ni 0.8485295330889776 6.500244362707599 13.16940518156323 -1.2424241533258538 0.8768780755906639 -1.0577582683109203
Ni 6.04290977542848 3.381099612285258 1.4395545923505784 0.4552760354021708 -0.27727727799476765 0.18195902760673177
Ni 6.657680429981938 1.6224226397230792 3.1317185096649562 1.8448714192316098 -0.194832026914658 -0.4613235271478313
Ni 3.007305933872329 2.886025215577124 10.670317253452572 -0.9425648762655122 1.2135822893934969 0.5547695002138188
Ni 9.026087434379829 3.7078042380298233 6.739229180972548 -0.490067174939427 -0.5807903497576126 -0.7098250185614872
Ni 6.455064075259558 2.3166016337822213 12.890512344832588 1.2676142794382361 0.7662769309016286 0.3179349036151299
Ni 6.3512958145682905 6.299647963412552 10.567181850356198 0.35680766942092745 0.16779713428405293 -1.5891327866395664
Ni 7.435252079297925 6.459789659057446 6.415407161344695 -0.09221235776920247 -0.11155810928566592 1.130914895000252
Ni 0.2912275370281862 9.182578384894589 2.7249411829278283 0.51091187959892 0.8571466586000076 0.5029615144035918
Ni 4.171207957441524 7.526946936678118 2.3856859625671083 0.6137634622495236 -0.25284279910148716 1.27144470892792
Ni 7.685115006148599 1.1720652379337821 1.1349314151329677 0.1682941285251295 -1.3519071252500459 -0.8159953811726787
Ni 7.643038778646229 5.193592645039855 8.652988694760705 -0.18318518670434902 1.1797337162751684 -0.7874587071855664
Ni 4.902126049066599 0.6833963237344323 1.702891919120642 1.892741503440011 -1.4231565076143362 -1.3703275367387624
Ni 5.7675935570233 0.03113696430278894 10.669571352480553 -1.7473312214915908 -0.5249824987593732 1.6601962782452955
P 4.0762422548051465 9.029497267394776 13.256361482954716 -0.0493042455517667 -0.13512586930327697 -0.5536341010577949
P 3.0252816840054706 8.098631386015539 6.107195320195864 -1.6181857381414646 -0.11793187402249368 1.4254563593921064
P 1.9603667422261497 2.712494365838215 6.2096524630294825 -0.09326136785900713 -0.2630585632922244 -0.4334481408938019
P 0.4135923598417295 5.650565864146194 7.104671548254034 -0.16022857790817566 2.161934461764748 0.7412446705233492
P 1.3156395927343163 7.664109322874459 1.5298327011764632 0.6226821048953921 -0.7020314906589974 -0.8897063377035839
P 4.675121975606883 1.8209156909355373 3.653077344724989 -2.362525245540054 1.6115592339638827 0.058028512798642004
P 6.6023262385925605 7.8738325849948385 8.495811144717663 -0.02801036916999692 0.1922976905285785 0.5539318348038719
P 1.3160472901600162 1.816125246183561 1.8041556203990285 -1.1620095595225277 1.3852808156144851 1.4510254661104622
Ni 6.533786741822019 1.1864087746379592 8.991944628147559 -0.12509342476793942 0.14729541478627536 0.3526810488470636
Ni 2.402755512513126 0.540111063472122 7.612794115754689 0.6786660764601796 -0.3941346880061599 -0.30693443873956816
Ni 0.12375470040115732 7.315064731371644 5.282370612656174 -0.721799417314544 0.6245649237404017 0.8658387870573669
Ni 8.351098016880345 7.944336442089209 0.9061742427427422 -0.29211022924254204 0.24258795414269835 0.7959526035891905
Ni 2.1902524952175177 0.37171442154185896 0.5704715494959639 0.16439685035325238 -1.1265005679826405 1.2435032453226456
Ni 6.337610153255585 5.538560262285668 2.709752600650382 1.5738822882383992 1.3660371368935247 0.49456377725819983
Ni 8.881178797095185 0.8340683200823823 8.637908522935092 0.046524883034416646 -0.0990059836522682 0.7488605351973942
Ni 9.246290373510819 6.605736071607508 2.8257026751045564 -0.049098043078231575 -0.41688586565974656 -0.03266252323002762
Ni 5.356866198182172 6.238752793373886 7.787384978800418 -0.04488246233498722 -0.3875572918989584 0.5906271333423764
Ni 2.9000815109131945 5.332793518364697 12.620136677958849 0.8635571901120417 -0.9094205283030595 -1.368688715583759
Ni 2.132072219399993 7.428228564555182 4.299242554227474 0.4882800011320171 1.0287505682246605 -1.2103565833673477
Ni 7.8797812610698275 1.5772886815279579 11.166275612306428 -0.06064023938987621 -0.49524691936815357 -1.0487028429768712
Ni 1.3721427495961205 8.73035854713789 9.45460893268265 1.0808100079240612 -0.22232868967303002 1.158027177836012
Ni 4.060786816030878 2.3693335894562995 7.122002395186523 -0.8031540064336362 2.2235892584620673 1.462139830856069
Ni 8.498313850960427 2.412762631143947 4.698167999179641 -0.16193450485568886 -0.08991404865332903 0.4777053109399643
Ni 1.1140239498750184 5.125460845695012 5.0524487228475286 1.0385760389555148 -0.46637857307323555 0.5273196315329821
Ni 2.043268307402037 5.288234042905788 9.879342551266694 2.0869402676460447 0.22445627753899408 0.20508172966712424
Ni 5.644580124668869 0.1857006178960583 4.476572402705862 0.04206067661547595 -1.4841034796113537 0.6620302676757114
Ni 5.66798566324429 3.5258970593628924 9.041796757460101 0.4284807695861975 0.006466838671266282 0.23263110004030257
Ni 7.206496760077816 7.776179785689074 4.162487865456833 1.9955568335360405 -1.8747849189615904 2.3905497557774376
Ni 2.8087850851081178 8.19699765581628 11.504581082982279 0.19273709205884226 -0.9044369590455391 -0.13746145941498905
Ni 4.231352593582877 1.895329736976395 12.715040299396312 -2.0437418778816996 -0.23337774839834 0.9457620430465712
Ni 5.779166604402833 3.754142756800876 4.049005287013203 0.08580645424285867 0.008602396957030346 0.7827091083157229
Ni 1.7986127885796237 3.730422179305596 8.172165176250909 0.849899233008975 -0.06894901636588771 -0.5690902877118651
P 0.43601015874488613 8.026459675816033 11.31825872651203 0.6204545011164541 -0.8563552730469638 0.9744563256574701
P 5.369022994148503 2.4228068131771052 11.016053936296867 0.18739922478569662 -2.3740802973675046 -1.932660451122136
P 7.5871842313253115 4.056543056463362 10.567602519972716 -0.7952473499920498 1.1591288955406231 1.3690643537556229
P 6.43173266348881 8.455607545618339 2.513070096642055 -1.4727307189980379 0.83138240515171 -3.4690038618748127
P 1.3566873108218518 4.070608617650017 11.572415448523373 -0.2901399928900487 0.8994785865989993 -0.6275810848589062
P 5.739101066477211 5.778063968183326 5.116295992882285 0.3263393256287412 0.2458900219327378 -0.13704931157823494
P 3.9199273554514833 4.5431762632893875 8.351312984613894 -0.6775605021008266 0.1784931805453184 -0.2506599325175554
P 4.487961059658772 4.24953219242887 0.24715544531000228 -0.7230464023477676 -0.2172620737834 -1.3412033656792965
Ni 8.868058352668108 3.2797126751941037 12.495506354677493 -0.3967389583982264 0.2005578736548417 -2.36056966447558
Ni 1.9587081549715968 3.2682322863204107 13.412345591442527 0.07887064635497384 -1.3286723230918216 0.8585227130119278
Ni 8.956973454873072 7.6478292233982055 8.280399576923708 -0.020150763916262072 -1.6431462647415445 -0.595459264623697
Ni 1.7849178614163328 3.685779311191432 3.0756008121874507 -0.8108310633629197 -0.6616296898031832 -0.2881774698470392
Ni 7.518783722313531 8.745313629980616 6.666214278369889 -0.20103327062936344 2.0061199537638674 -0.6822617642312379
Ni 5.092001859235849 0.2828623271208663 7.340112178670566 0.19476312134993554 -0.34549687239379856 0.65664894875914
Ni 3.9611233271483646 1.3069852882887727 9.405055163758917 1.028271828816029 -0.8297983484940419 -0.4540161948531407
Ni 2.8657237369473747 6.60397555999653 7.807251889037774 -1.6399730092198852 1.0083038703345344 0.8711105769792674
Ni 3.1262423919697575 0.3052514018872122 3.203024789419909 -0.4788383961031431 -0.829530439544636 -0.9908399092218161
Ni 3.5659625972885145 5.15268391471108 6.290573915935549 0.987358378431119 -0.32392660242219057 -1.4482059943837962
Ni 6.149884020421844 9.183514235803584 13.049127954886282 1.22523684291329 0.3585611617769244 0.6103881180193875
Ni 3.1668731467810085 7.1537277410014015 0.3181124024979345 -1.009388618758281 1.245865574907235 1.0232139546771477
Ni 4.0322294645307 8.134156657154955 9.258753869131484 0.3799313999225844 -0.6687493315670998 0.30125975695229407
Ni 6.591133091086975 5.209743022607929 12.78103076067117 0.6758838857293521 -2.9312064707389585 0.060340962981902536
Ni 3.406654828196189 2.381369929365037 1.6883399007783229 0.1420382801523941 1.3193381901750891 0.15588829866160894
Ni 5.0290589362181 7.800308060610054 5.8742082870139996 1.272322226436867 -2.3050706029670107 -0.29481040178252454
Ni 7.515494345356178 7.1205096666574255 12.551881642801238 1.3788412306367286 1.67041024266382 -1.4659944287154687
Ni 3.497682544334327 3.356091081558789 4.840102298426792 -0.41215580717392886 -0.6798431274874163 -1.194239366090511
Ni 8.144830917027832 5.317189825981083 4.497688349601954 -1.0723672764733467 -1.9659328400220204 -0.5584245804679028
Ni 1.6174190804076685 1.486251699539236 4.321808606739976 -1.6777494566377105 0.6202254158247835 0.16970257883688192
Ni 6.503487410412032 4.270713926864108 6.580627469694731 -0.28119846742604476 -0.056145951063948464 0.37839182334960636
Ni 1.8569227863053261 5.195742322375365 1.2601037906734913 0.04966805664908865 0.6157383265877073 0.9851659987654906
Ni 6.046875559478472 2.1686908609083315 5.888095017284382 0.02905115172968545 -1.6415059009246438 -0.6600384340566632
Ni 4.196577856340773 4.712806189932393 2.309118532850507 -1.0715326963871934 0.5614844503401492 0.48163627056325437
P 2.7407922735220374 5.5292110190463175 3.6970845754890846 0.5740604872329469 -0.6887594561404395 -0.6488132547648052
P 7.764041521423911 3.4140211794105437 3.024270779706746 0.3433129773686023 2.0219371233017824 -0.2261938290553911
P 9.097017520601065 0.9116012514298458 12.96748747197489 -0.906384312579897 0.5278955586411102 0.06330210249275549
P 8.880539453404882 0.18723040982749217 4.894158344149336 -0.3435798578767438 -0.779868039322502 -1.5330901939227015
P 7.840095623018152 5.560612986675811 0.9223589039579789 0.5459994673306726 0.8320413788919477 0.6090202911375834
P 7.471917050059185 2.1342404284366707 7.463820549818803 1.261435404321034 1.3423973859873979 -1.4329966336332094
P 3.903156165894273 6.249955206730056 10.765356156308565 -0.5446164709402169 1.0386089490759791 -1.2572419350649766
P 1.5811896046238616 1.7341039368131623 9.267013448342144 -0.1046724379094262 0.14314796827680507 0.8381444064658921
