# total energy = -340855.3363820699 ev
CRYSTAL
PRIMVEC
9.39726092144325 0.00000000000000 0.00000000000000
0.00000000000000 9.39726092144325 0.00000000000000
0.00000000000000 0.00000000000000 13.75384124822487
PRIMCOORD
 96 1
Ni 2.24516531819265 8.527187063757829 12.634099129408899 0.3817759093304909 -0.6151328317932245 0.13284941456427443
Ni 8.143158610808642 9.276674982649213 8.03375570254176 1.4389009149327865 0.6544360002682212 -2.225174343561
Ni 9.534272691068024 4.271797340409836 5.402989769696345 -0.27990751652876306 0.34880382527984444 -0.8079815097292665
Ni 6.386199776921188 7.118603475985293 4.258684402925245 0.7463079439788695 -1.3745081504790135 0.6148523244383282
Ni 3.542898819561119 5.270049542726829 9.824904589783223 0.07681736337037093 -0.7371206210526466 -0.35918722539669756
Ni 3.688171071656785 1.3414401605635617 10.85583764539688 0.5409691039956167 0.5852195891735599 0.11899888183442732
Ni 8.778056333564797 3.1858217101018322 7.330370744306389 -0.34881899478849604 0.4893837757191571 0.36919267334884154
Ni 4.97829279191409 4.56439044741874 1.4930752978325228 -0.32047078266310614 0.22239656679648798 1.4350946538128186
Ni 3.649990001712759 2.1005790661230526 13.53454934170806 0.9098481027587815 1.0038517481004519 0.7323329698560161
Ni 3.3650556621181744 9.08517760550933 1.6056093733416772 0.009120731354345582 2.1404822054282424 0.7660871834883258
Ni 2.6202663735423233 0.2327194006241235 6.968974653861065 2.6820763446023683 1.1233550803751233 0.35582910755774205
Ni 8.57237849013263 7.083485913006995 2.595280936976442 0.5951764432759556 -0.5133850237297609 1.465494863371231
Ni 3.0697843358294166 0.9824272154142754 4.506280606854411 1.4490030363637947 0.14435561543166106 1.2340444139025908
Ni 4.169667911871399 5.112607838113931 4.437566897393985 2.529382641618657 -0.6787925747357149 0.9944497380602615
Ni 5.90272951197405 2.4160639000292363 12.851946425358296 0.23012710267152625 0.3726757468014356 0.08138569946734371
Ni 8.970897518974922 2.1370498346322235 9.397972003696838 1.2624080526469483 -2.7526646963438917 0.8893160442437006
Ni 7.018400485876224 1.7799633279123062 8.45445884455581 -0.9990977783552343 0.41591193178225144 1.2295406124949664
Ni 6.211796016869214 9.249319556952178 10.644661464769476 0.5771802638088511 1.4922371644620818 0.0724212911852043
Ni 8.275641191185425 6.174996344237956 13.347442364735011 0.26773668549418406 -1.8700412336290182 1.8533303486322403
Ni 7.9263262190074 2.473913436474085 5.199432887988612 0.7695753991472424 -1.2215478240974769 -1.6899801943759478
Ni 7.555134424080252 7.257654741543193 6.800050436483066 0.8526791097469574 0.6456502836557912 -1.0464536419313784
Ni 3.62780306936281 2.318642499066964 2.190340759944942 0.8317482731315612 -0.5938340703154482 0.6375441096088891
Ni 6.1920053859801865 5.075920932610245 13.222488869575837 1.342907749964913 1.1861406482427765 1.5530668941549444
Ni 3.0055352648948106 6.1197780407698055 12.103751569529745 0.045111033406025534 0.31151177369760547 1.3597410194721677
P 4.623207901708589 8.630077670407381 4.369554223576637 -0.6249171648734979 1.4941708911496847 2.2388600685782087
P 1.5081475641586912 4.747712207809596 9.574956251518103 0.21277935542169807 0.06655814753620795 0.039130133232242285
P 2.849183642515117 0.08376906071745804 9.254491809203516 -2.617880783761066 0.29632735264768323 0.36956831152070546
P 0.9905746403814105 7.675165634120871 10.393942551132607 0.22571663230865643 0.8400421377092371 1.0479754778925434
P 1.9963634457245185 1.4088185192883125 12.674150254218507 -1.3324225341628728 0.3559854306299482 0.7096496693258876
P 4.228598133288821 4.281044244870806 13.270613180993596 -1.2384042335331833 -0.6613409549181707 0.04061340264598812
P 6.809330231356245 6.395005010132498 1.390568099416717 -0.8925949721052885 -2.093892273483845 0.24936023986952538
P 5.216908033858144 1.7884302597408979 7.472337979838109 -0.40077661880270976 -3.178813475362803 0.06039804147208308
Ni 1.2961641588430803 0.6296437143373236 10.978563050060425 0.2973902466945588 -0.28389555464223365 -2.3147796027246583
Ni 7.888934518956385 1.4734434806481607 0.1557887264678929 0.1535503945570517 -1.797226049439505 2.072834938592914
Ni 5.680897777517081 8.76356575767169 2.4880422178328945 0.8782307329638165 1.2593684944896761 -1.8184865014801777
Ni 2.6460806484958646 7.025955883423602 4.798907544001587 0.1428944575051023 2.2458678673546095 1.8253544322446047
Ni 4.229660023740132 7.325380798911293 0.8247599765462321 1.6266917187299468 -1.2132416182246268 -1.6737920146518592
Ni 7.739254951624749 4.1143744303182 11.54388721400841 -1.1626613341739138 -0.47086823341347295 3.64074429707733
Ni 7.1298989832638355 7.638187413537622 9.161612104304238 -6.270471952874653 0.10905694013036701 1.5411855693363263
Ni 2.7207324869490614 3.8649617359090493 11.734336796587932 1.8586566459411604 -1.2028160520159283 -1.8042970973536732
Ni 6.393275914176382 3.2625691376757575 6.584926466664553 2.595146318278027 1.278562550919624 0.8073911844434354
Ni 4.961997941979819 6.463858738776326 8.413031960789816 -0.2640736348203 1.1781416891977001 0.24939314998998982
Ni -0.2572753823791648 8.4060939632659 12.71006188572013 4.206365909514305 -0.926954937642397 -0.24594710042291834
Ni 0.4258490819356245 5.144332990004414 1.8150667949996573 -0.9386138620375643 0.051504338526879044 -0.09841565836643695
Ni 6.961781990574046 1.8333773573392913 2.601745312564553 -0.5076198391112097 -1.803604699272339 0.07561820085594718
Ni 1.652442501148726 9.344495012623625 3.212979793325616 -1.5530954334000349 -1.0379402051437285 0.7859368712244013
Ni 2.683754266365812 5.77274660292513 1.3921365022160421 -0.03837191490997908 -0.3918104107483575 0.2411008280742106
Ni 2.472832751501512 7.140921969984077 8.966059809202049 -0.3198650307583072 0.5619765594852193 -1.6873622971371263
Ni 4.008354535878502 7.763669034744261 6.604663533167983 1.0704736589950596 0.7098039355155646 -0.4514561474354483
Ni 1.123188782407029 8.464873828513223 1.1165984835264617 -0.957582432720267 -2.4755555684958717 -0.4307199433293615
Ni 1.1590017426720256 5.694411038304555 6.923862164475564 0.41920371515964583 0.41190281062285833 1.1284142400655859
Ni 2.046864324355873 5.0926762483154375 4.061756348866666 -2.499880775504798 -2.604550642311063 -1.5687511376594208
Ni 0.13963013681277311 7.051037172047921 5.021032472990245 -0.7919823060875328 -0.5612047143162012 -1.7264510356084717
Ni 0.5970399185778363 3.1404517357750406 11.581187760631305 0.5152210484972353 0.3748928090574124 0.0772045715064606
Ni 1.618931869738341 1.2922361038992944 1.2819047555614993 -0.47719777517592654 2.2551264098384 -0.9267261094610426
Ni -0.4217246242446491 7.064898131478745 8.816514622697436 5.275863834859655 -2.3646474340893793 -1.1432299649221795
P 7.378099431051579 -0.24517359013847664 12.56339132124256 -3.4538477229596642 3.6074127728047354 -0.16325913720438337
P 5.082480220530729 0.719643158853179 0.7549251738925205 1.0493394481196057 0.2944920992111573 0.541537317794261
P 5.800562494393088 2.2415473728496895 10.740814235546555 0.10649483583014563 -0.05916262640308521 -1.1504066851762766
P 1.8567013582256 2.6639918272586787 6.173920357895698 0.1555093180556354 -0.5077915888023835 -0.36304696546241993
P 9.045455384821809 0.4039299715136606 2.0650019770998957 -0.8648620249663944 1.1511224802963789 0.1342231549833495
P 8.411798100468955 3.4440114459404003 -0.01576202525648879 0.6754887071734624 1.9033686441365543 -0.6495287927745911
P 0.8723260906825043 6.549270440652095 13.633769378355119 2.5696584584195676 -0.25955620656592077 -0.012472935656030132
P 8.207802366689753 5.270622775625323 7.24930527547249 0.09375861921039982 -0.7123454709904958 -0.09175084475175166
Ni 7.274785947673628 7.257964851144017 11.781952716205549 -2.2058039094541884 -1.3744983802870006 -2.2588077153447292
Ni 4.325812794517209 7.054833665342872 3.0925510791603026 -1.3001127662865737 -2.184392533657948 -0.5847750454369736
Ni 4.752091331263674 9.169264293636116 8.771677473048426 1.5354864620690198 -0.016182780407449547 -0.9972116170761148
Ni 0.6791813737539936 5.752683451477802 11.417366255775976 -0.7032941594215049 -0.26212602417562597 0.47421555261915105
Ni 8.984767875666376 2.8548126016331263 2.337094020316064 1.5871252692912345 -1.011939924425225 -1.1566004726918144
Ni 4.399459126082882 2.915969973820111 5.988119600150366 -3.672103013894269 0.6737616971800268 -2.8366744636976433
Ni 5.224961486218969 4.600710859757815 11.25738071271025 0.12981397017206028 -1.1082971576007365 -1.2033302726481856
Ni 6.159255932680918 9.188124595722668 6.921468682192831 -0.7781140327458729 0.4137123530277714 -0.8741771317197332
Ni 5.987586775472585 5.573449499461459 6.472529591160612 -0.6814166426221233 -0.19095557467838725 -0.7031139250898988
Ni 1.5035804954919927 4.138215280539217 13.592797322003667 -0.9601674198386237 0.08498138723840203 1.523315888144757
Ni 7.2041561367705285 4.219830489120035 2.555573751905931 -0.6630746497798258 1.9236780451178679 0.5929051307432757
Ni 3.90917584717822 3.0660254315769895 8.370904041380742 0.7701929781265833 1.4302013302762595 0.5023074257593607
Ni 5.958671404510792 4.435713757597539 8.804012507153866 0.5092923417176262 -1.033633864458891 0.06867108011415271
Ni 4.763960071440711 9.187307034047766 12.51415249471396 0.2541160093869559 0.31792281943027184 1.4006336439214717
Ni 1.2444980198934736 2.5142840681451486 3.9984892916680077 0.3020897090527571 -0.20030821953788083 0.4342315560270457
Ni 0.7129701640790583 1.237130567558717 7.456341962791906 -0.7902100446784585 0.3811549879170404 -0.14725581979759156
Ni 7.555397547377922 8.29585469880285 0.957518836385569 0.0816104138836401 2.279586599763293 -1.015982984146347
Ni 8.526350707561663 1.5651701416680064 11.65461983465459 -2.4622367398997786 -1.230323770517894 -0.04775695566930485
Ni 1.0002726133526718 8.215996777960044 6.675660776961757 -0.859594605919868 -0.20986012489237402 1.344897269591116
Ni 8.841647596255227 9.205688075842133 10.061567080968143 -1.025620764346427 -1.141998920728556 1.5197037453134665
Ni 6.8179663138761954 0.027157143497720714 4.467852388955788 0.6872710445203712 0.8820336516496745 0.6258838996621415
Ni 1.930826950083457 2.672186238528969 9.159742049438657 -1.4110106162804215 -0.8101155253531338 0.9098529878547879
Ni 8.795901731503191 4.20199448844227 9.713237881430318 0.9291298338065289 2.95736693118441 -3.0310573188900247
Ni 4.005385001519085 7.794764570172462 10.726909108990764 0.2853729105187085 -0.09087846944912736 -0.5090653133084846
P 4.977522216542341 6.998694430332876 12.649242814915862 0.18882592992989414 -0.02484328429592496 -1.7817513508426734
P 1.9669406226886477 3.58007438261762 2.2457131784874416 -1.0418053445260897 0.8684312303748913 -0.6296744770528252
P 8.548537639911613 9.196253226168542 5.837488090316803 -0.1535776482505613 0.054206053728758266 0.21295830420172357
P 3.3638340182361364 5.720732765332174 6.776187032836535 0.7455520396494515 -0.29708737074215935 -0.49373228249583995
P 8.035757319056177 5.56596927999913 4.3064647746039055 -0.3093936989133381 -0.328008485801048 -0.35397842750224845
P 1.5831471012552376 6.999258265970742 2.9556320520395922 -0.979316739073565 0.4562507406106142 -0.623591761193855
P 7.115878270402284 5.640000899250676 10.181693203341137 -0.4602241234360654 0.8159467873229301 -0.4232349478062259
P 5.308653489399251 2.904928192578607 3.4668204769441258 -0.06067057840717938 1.358363679508667 0.7397845410380549
