# total energy = -340859.97495293315 ev
CRYSTAL
PRIMVEC
9.28986444055595 0.00000000000000 0.00000000000000
0.00000000000000 9.28986444055595 0.00000000000000
0.00000000000000 0.00000000000000 13.59665564264487
PRIMCOORD
 96 1
Ni 6.210599660985869 2.8186935713727608 6.247472991738014 -0.2715259773332872 0.6657300851248019 1.5237205797823434
Ni 7.923362715869015 5.501978075668211 11.148836235420134 -1.466094444628443 0.11982446305951622 3.4389126989163876
Ni 2.605361119646404 6.4590106416148 3.9014783900973424 0.788467865176371 -1.54219678420966 1.023279260697444
Ni 7.125363342794028 1.3890577212999335 4.758992352039239 0.7092547478803141 -2.948471428466993 -0.5858171135482427
Ni 5.197995124728051 1.9385625049641773 12.690670425752717 0.33413311064154716 -1.4115963135805625 -2.021789799090641
Ni 0.39530324939492595 8.077834585199525 8.255168811423372 0.3641815932874954 0.1356722287250502 -0.24468648854293992
Ni 0.36655483426200564 1.595134788737913 11.30899164394095 -1.2966417770188379 1.9498523895203903 0.6311731730855388
Ni 7.000879156540189 3.375156463656715 12.574921499225333 1.4972698417899828 0.803543528562571 -0.9225172135860177
Ni 5.62353595455862 0.25163177670163256 8.579652635663903 0.10219723689605625 -0.07092773735881333 -0.31324469722831216
Ni 3.2766653186818493 0.9143837263441454 6.083633222898669 0.3430211571597963 -0.6799102332799258 -0.1363049772130427
Ni 7.105873206767121 7.203556133517802 4.319698806587015 -0.6891638906677099 -0.20990434786674816 -1.5370594629830947
Ni 9.146642802564488 1.2652331154359466 2.205078502801325 0.3236190984841007 0.6778502654271036 0.342532647559152
Ni 0.8673900170468563 5.207888830575837 1.3704612702519532 -0.9151926549001465 -0.014200459870098124 0.42164292072875764
Ni 2.03701649048046 0.25891595957041136 10.74662039774226 2.1017151119623736 -0.5261713768611519 -1.1410568685302604
Ni 8.377943662582382 5.947705781374123 9.080485960475825 0.9526091478753917 1.2204260517882077 -2.075755454673819
Ni 7.8880890998088775 0.9282386304769048 9.83028672880896 -1.2238484472061955 0.3044021592360177 0.4341932465899425
Ni 1.546846072308998 2.5856573167326435 6.158686968358625 0.03929057006950652 -0.2888642115014186 -0.23335717957304972
Ni 7.673047312987693 0.7862997175400548 7.24688127526646 -0.49473398428747695 -0.9630771372862512 0.08241696894533548
Ni 1.1932180847016356 6.017500534458085 12.417227904835654 1.2836723613423633 1.0032989609207754 -0.45523078398653216
Ni 3.748869138628317 2.3402841218428923 0.8188950656228046 0.32497381273978226 0.6529661005909141 0.25786210669294946
Ni 3.1866093708053773 8.79881169049611 12.955192818636876 -0.6373988422802764 -0.5291150328705081 -0.7693337154500814
Ni 8.460270443073542 7.738559438469937 11.30580986529976 -1.4676934136844466 0.12291235795622056 -1.6043146365863274
Ni 8.644702125886786 2.9373715922229695 5.3402229524553855 0.7142198051950732 1.074696953047788 1.1479301986113262
Ni 1.9395658103459246 6.331042756118782 8.038560753422903 -0.28557602766845014 1.4567317724666202 -0.3947190997547202
P 7.724996236087057 8.3621694724138 8.791040718719891 -2.161055401593904 -0.7006248401194578 0.7942171089553225
P 2.1656996955542054 1.413731601799202 12.828499502570262 0.06004862855246432 0.6389415041770481 -0.8385028182465752
P 6.14618373953183 8.173613089697815 12.18926577426508 1.202393105545897 -1.1461075435802908 1.1437773527852173
P 8.412111784749667 2.646217944358672 7.571012084650451 0.3271080854739657 1.4743394582460543 1.2278974204645885
P 8.550419289596471 6.140684139661511 6.880492729581615 -2.1081904352740723 2.7754652391781747 -0.5361914801013152
P 9.113329347944617 4.651490967344403 13.144458018025334 -1.4146528410186991 -0.8265934684034989 -0.9500331596180994
P 0.280473090481011 4.5101270970291285 10.384255292435515 2.4949712540183224 0.09914765143645506 -0.6222069650311864
P 6.171665838255285 3.142956296834721 0.9733706508991737 -0.6949627567376742 0.7475937526698285 -0.29918513381145245
Ni 4.780071983907044 5.074291287104459 3.08551613474322 1.5344631630108283 0.3350016292894295 2.9498719083589453
Ni 8.250607487882279 8.252725577021524 5.914314291891227 2.361783996498655 0.19700332353436395 0.620478412375854
Ni 7.995331297280097 8.50606947577738 2.4550938430545863 0.1968889094436867 -1.0704690310093692 -0.7719073897145287
Ni 5.866224378565732 7.186267695411952 9.933975553053157 2.132262645731928 -0.7559197560370207 -2.2554650241247414
Ni 2.636008383112928 4.29303225012122 8.303885790612458 1.101876341676057 -2.0139996136222607 -0.16599993317431413
Ni 3.7381300550977614 7.118275176069275 1.2107619940852457 -1.2731717189213556 0.5223517460047455 -2.1903369241668407
Ni 4.93367060596085 7.716328792372517 2.902913626278735 0.15089958719776592 -2.0322909557322806 1.1035005075430415
Ni 6.62110948981952 1.1768493431957203 1.7179514442878299 1.0245941228541258 0.46282633694560293 0.3631726924070068
Ni 3.9996211651479907 7.891832915261139 7.202366101856673 1.0310738170411984 -0.8156547100038082 0.007142267471736086
Ni 6.217650668252038 3.195992134097644 3.7438795523270527 0.48725593074287704 1.354514738076222 -1.0014143423035529
Ni 3.0142545120316844 5.023345669386844 1.82717331191507 -1.6494989464324494 -2.0817242706627437 -0.24629239957747903
Ni 2.1626340402210884 0.651867944223483 1.4423880472721289 -1.3191792959997215 -0.5227029586965771 -0.5848076984471218
Ni 4.204471970452723 0.502543588893215 2.378462678577774 -0.46308961790931863 -0.7173830334144032 -1.0245187895315002
Ni 7.0862065633119435 5.019239549213395 5.350855202542514 0.876650275850574 -0.6176825947982716 0.5230156048409896
Ni 5.093381958951596 5.147997073204307 0.9077191774472421 1.8143933052474106 0.4275585148822443 0.2556771832264887
Ni 0.5153905427119042 5.615974004736932 5.03024618084575 -1.8610063771202596 1.7324926138168613 2.8084753755556084
Ni 1.412867644387142 2.901066801187148 0.6385044739304868 -0.06581072784722214 -0.1197766405407163 0.3660808671927373
Ni 4.922504188656587 8.956293475971863 10.803617433290157 -2.052206463709285 3.1009494158954722 0.47343650836128137
Ni 1.7813687052924445 1.0825107677175307 3.861858046369432 1.4689203441130123 0.9467326344899566 -1.206428194847219
Ni 5.156664516918847 9.337150056856093 0.32619501730828876 1.016246779330695 -1.6644848783183206 -0.6089166756801836
Ni 4.297640022985542 4.2061255663596775 10.625963635722496 1.2164529260730728 -1.4819260123440607 -2.0301402279378653
Ni 0.6561700805409572 8.130545277199845 4.07618265563996 -0.934630451909784 -0.23161397162969788 -1.354204920145287
Ni 4.863643606260742 2.879644373313913 8.306850186420936 -1.1464911521719543 -0.8156639659751889 0.03927951432591299
Ni 4.726283667607811 4.1037698376921545 12.715307146793403 -0.8079622264555568 -0.7017162734114237 0.6302465475062113
P 5.613493610876501 0.6393609994508305 6.289146395552649 -1.0334412888321105 -0.39078582613858504 0.4116148470687943
P 2.355231514057999 5.222093033619279 6.128297963129254 0.8346104251707045 -0.686674548586953 0.014933481381380733
P 0.22190142287565026 6.1822377042222145 3.1439679630946498 -0.9239117799406991 0.7997642640257968 -2.371499424014206
P 3.4470507261506307 2.9218296486705313 2.893722234198172 -1.063160670273414 0.828229204234709 0.6414028212333469
P 5.862164707715515 2.334914580077615 10.197573604405056 0.4086035710462963 -0.6359027173507242 0.3510998204028728
P 2.399860023816465 8.143188782982792 2.8023387646638143 0.7079224022221356 2.6242054404275126 -1.768897634808457
P 4.639990114912892 5.53476200800327 9.02604456669199 -1.1056640908532636 1.5901712552064096 0.500552390741467
P 6.113567024760394 6.9692285876919176 1.4465480486605222 1.964175233900966 -0.6002127201482824 -1.6319779068295508
Ni 0.6585436409579614 8.874942131268513 12.376138833507241 0.2679043214202999 -0.28186284048292104 2.5141403707476053
Ni 4.621196718734421 1.5868760990677888 4.155695536129904 0.6303187955050435 -0.10154289114150898 2.1928164960555847
Ni 4.277341668734449 8.332794920403751 4.849791489087376 -0.20450991632405424 0.5085271814168274 2.054253576046301
Ni 2.3872629673567483 3.8994950039954626 12.241558422356338 -0.02292755533045084 -1.1470902192085344 1.2953857931245498
Ni 7.797512919512242 3.47030325735909 10.112512816748636 -0.23335949356589486 -2.516262816407247 -0.3400798151432852
Ni 0.27586438863022517 4.434990671773827 7.10181910983569 1.1850751830927397 -1.4562782298689694 1.1561047640023188
Ni 2.545292854846604 5.476988339770984 10.601774686157738 -1.1513137703715786 1.2971413423630758 -1.4781788865968029
Ni 3.3668327449340705 7.590915619654097 9.58115578366998 1.256830815669487 -1.0485951137544136 0.4871178625031159
Ni 4.533704773500192 5.005118954951766 6.991671971689728 0.6543994906033311 0.8143861277040297 -1.1276231116228579
Ni 8.448463025108719 3.338396469253249 0.9561128693466545 -1.3718815114894438 -0.7757074801869092 2.120269992146426
Ni 0.6980088439462868 1.316801154084832 8.879744991290398 -0.2695138319992648 0.38647357191647635 -1.0020594320867193
Ni 4.0953160608644685 3.586315087055952 5.167735248617257 -0.9688240670723574 0.7911233005213472 -0.31914949274852134
Ni 7.506749445963068 5.181867919702927 2.8203676049819353 0.04477010512683902 -0.07139593524448348 -0.5774263183813861
Ni 1.619827248966473 4.054273438859285 3.9983140811923255 1.1884680108243726 -2.0175299953730224 -1.4494164697521297
Ni 1.8745460476899078 7.851524192562974 6.0164526377260374 0.5452697882534996 -0.2789047862958616 1.1501446897641416
Ni 5.393806891732411 6.115982389568305 11.842401737106329 0.6158098032555911 0.20814494197348024 0.20209179380086487
Ni 3.7191601514910193 1.9328956875302339 10.545634176130184 1.1510571742760822 -1.2756533476926288 0.2926954123220507
Ni 6.48731685919058 4.589564729615441 8.658744685285392 -0.067689947147806 0.30279239154673665 -1.0975527746000389
Ni 6.350532892145689 7.066669977961807 6.620605979155717 -0.23822582051926067 -0.08427587653094518 1.341344005022219
Ni 8.781281715909468 6.749244592879162 0.11624128935361333 -3.7529986610990718 0.4319183345128368 0.020446955000442205
Ni 2.5681552117399398 9.204992442404814 8.318638095670003 -0.4783198045955117 1.3068485423485106 -0.4006200386201875
Ni 1.2937344201692882 7.658545834275585 0.779576642495883 1.999816123033027 1.0138916488349572 1.4865887079270528
Ni 7.428658843750398 0.6423737025554663 12.341154132237591 -0.22517541509320577 0.35263759720363785 -0.20790942892390646
Ni 1.83575157292901 3.012619495854022 10.100248337443238 -0.8185281748968612 0.5351486406590977 -0.4527766660190848
P 0.8701565387383782 0.40218239416514745 5.572425906236773 -0.9602810625983527 0.4424161487203671 1.6636888647795864
P 8.465314839576216 3.2180462727667947 3.3330436492443343 0.07734263974622163 -0.14001225086130079 -2.005384875370056
P 8.569649309413295 0.07412104304951567 0.4564054761298049 0.3658486965772732 -0.516636183677207 0.8496038132557432
P 1.5061007259724801 7.430916280859329 10.691308543641114 -1.218632964443527 0.8254089611770946 -0.5153583454060479
P 5.258184157768246 6.069876791331156 5.020823471135506 -1.225844908810934 0.34263883411971313 -0.05514244950009858
P 2.7705163333195952 1.9963083036025255 7.845284190480384 -0.037328818357445386 1.1335068240971446 1.8642361969114667
P 3.47047976478736 6.193478440443643 12.747137010029338 -0.5684503401350209 -0.5025390821541926 0.6794304654300298
P 6.207859150915355 -0.06491385819905444 3.5222270978239103 0.3646305078994559 0.4904322715883295 0.022896702092515406
