# total energy = -340867.53754046495 ev
CRYSTAL
PRIMVEC
9.26654204203307 0.00000000000000 0.00000000000000

0.00000000000000 9.26654204203307 0.00000000000000

0.00000000000000 0.00000000000000 13.56252095494078

PRIMCOORD
 96 1
Ni 5.9699327582319235 5.609019471897795 13.075273621474686 1.3600739773315544 -1.3668943426874975 1.0552028488789182
Ni 9.101551434501113 0.9557789640639062 11.47139732790565 0.47639841920308273 -0.045343461131805776 0.0327846506301887
Ni 9.001991704903345 4.488879848500716 0.16367678851743295 0.9115231764683592 -0.5303172807087254 1.392510500593705
Ni 2.47643707523786 6.454804579825671 5.595557039362459 0.5442858270736755 -0.7339255111541167 -0.7943307517150514
Ni 4.983981932703913 3.162448462230822 11.81602095967352 0.05593203528092948 1.0277115854371848 -0.07673457384857753
Ni 8.811239933331299 1.9804361364394476 8.102154856213762 -1.5419777262203187 -0.5868452977024409 0.6554094199250841
Ni 8.083936834211787 8.232220042795507 8.393315172650809 -0.7679862002832515 0.10566976882568897 -0.28086062447065174
Ni 2.521268606491956 0.472500987731776 2.4482250874530123 -0.8366251416078881 -0.0952262048948618 0.4387947499176959
Ni 4.176374978717102 3.120545158317837 4.544976715130091 -0.1946476788179938 0.07272031048286187 -0.6731963115948599
Ni 0.8043404978547171 3.9671086557920843 8.02244869331957 0.6404237451495294 -0.2987794137326016 0.6324947201104397
Ni 7.8166990231665485 6.1973429708211665 0.9538793229090716 -0.4631628943494152 1.357897538505526 1.1667373040155002
Ni 0.31236772495877596 7.601177784243904 2.2229647126585084 0.2737026732696318 -0.21837459012128843 1.2538449935682858
Ni 8.997006305189682 6.969079139879369 6.372214668993017 -0.5153871417614544 0.05970924293517459 2.5126285620887696
Ni 5.722942341934556 7.731734097563241 8.719223169099557 0.549061651195764 -1.3415435226275347 1.1637645945404216
Ni 5.693298673376918 7.579753538634258 0.804341424508939 1.8432493102471545 0.8350503409216006 0.8886940943889855
Ni 6.496114825036659 7.4924441778496185 12.07887662290353 1.6659010419395568 2.654877415590073 -1.1199905347782648
Ni 8.958457489559867 8.562016280359224 13.71726985958302 -1.31067794339693 0.08976029668428412 -1.138476252287278
Ni 6.988752009009681 0.7030034454594012 9.66610347267084 -0.4298815065884661 0.4015127256377859 0.17011421245300382
Ni 2.1324352284528683 8.479451389190562 0.39681094423517044 0.7774877120157835 -2.7629858757642416 -0.20105281101338923
Ni 6.047855111749015 5.09085296411224 8.537417317385449 -0.48492034063116485 0.005985528159473562 1.2923295227967293
Ni 4.748241098660054 4.618926501998024 2.2873328948723 0.19821894110901994 -0.34750130441833704 0.2819322602682757
Ni 5.255871547942942 5.725518440671356 10.780427414171461 -0.8286202690255406 0.20979867552681933 -0.7321774181147583
Ni 0.1880042418041996 4.513797580526814 2.449825419294182 -0.9911810946113186 -0.18090898907566264 0.7922723265241258
Ni 7.652041834482378 6.373527738025407 10.068775504859342 0.23059247234371902 -0.4913113317591732 -0.771180281740517
P 2.1517096362677752 7.687124963322395 3.739254575830565 -0.6828343489052563 0.3237481678627973 0.30319425497084557
P 9.32649674686018 1.416492910093489 2.233150495865309 1.00723094898533 -0.16128041621145772 0.5972009299051521
P 4.21396934049839 5.569534735503892 4.219924020528129 -0.08563650432389767 0.4545892937477913 0.8271146310142917
P 0.9333539318946396 6.483929322019061 0.4243724207562652 -2.264265396025191 1.2902770111430746 0.6194872521071783
P 7.067082090384395 7.813603998065502 2.6297325565076775 0.050571285189648395 1.0071106213573817 -0.7616332614820303
P 6.760934068562815 0.10018522119753082 13.58381404520345 -0.27911638808603545 1.0635766747649102 -0.4305001140090715
P 6.280862315838356 6.652774987786088 7.025697712835659 -0.1986873961050062 -0.7392394671678624 -2.002035242171533
P 6.334626793791284 2.9295246570214486 8.497787096278714 0.4324148145332811 -0.8697777171004569 -0.3114845200040958
Ni 6.941687241080878 2.10716536782246 11.694270641424616 0.3637313931239542 -0.8814014173823144 -0.08944816476050402
Ni 8.585488431799204 6.361147637621217 12.299931840839186 0.9652731164963053 0.2773454122285417 -0.3047423161842558
Ni 5.4909637240314915 0.04357128151235165 3.27518614151781 -1.529327641556476 0.027808023351203724 0.8291964532439847
Ni 1.5440839299028406 8.376194309247529 6.463531809287248 0.7885272576593969 0.9490072894567464 -0.2543111561168975
Ni 8.056183540266765 8.184738280466862 4.557970260629159 -2.494852211941955 -0.4868676941655228 -0.13265966715097152
Ni 8.40467039348561 1.539951052073298 4.377750840942894 -0.388320395317228 1.2886978395814128 -0.7560711940132204
Ni 3.4359226561892484 1.9819373162788778 13.273205109957784 -0.021746647648472225 2.517638613708851 0.7699263547287578
Ni 2.952969008834773 2.499103037504813 8.085297162609493 -4.027743145369657 -1.9303500578214046 0.812197347582827
Ni 0.9967741468394578 1.535771841532662 6.376812727241939 0.7639814499992327 0.3660371584389954 0.007911798647908955
Ni 2.679921075818407 5.718225671945236 8.296899580827848 -1.2293084418795022 0.7609760875140055 -0.8556919284313521
Ni 8.111625262361278 3.5714087699689365 9.967721082001695 -2.1314972283208133 0.19287001809228074 -3.316220170280457
Ni 2.178434344026521 4.451007490452867 3.8996991944221135 1.021961313216969 2.419640759606123 1.3565068288055864
Ni 0.6763602832721801 9.22007977602057 4.213265083289768 2.8398405201304513 0.1077410495324209 -0.6146574348187026
Ni 3.2423723888671536 0.49762073037824195 4.919004012012131 0.5612391670985625 -0.7152865558966908 0.06943701174589977
Ni 0.6702323189029504 4.151948373428596 5.639879837448749 -0.26130481382591125 -0.7704020088135958 1.0948466885227852
Ni 6.234548137829268 8.856914719927296 6.705378367999011 1.2735977507151808 1.463477575830886 -0.29862283355007924
Ni 4.049784745467371 7.573915617036474 2.7097241289022063 -0.6932280334347546 -1.1718386297978078 0.01890249333145777
Ni 4.485729224146356 1.6277608061377482 10.332430870682828 0.19825005145727145 -0.37527950297286977 0.34004870479503374
Ni -0.21607815810998876 3.4147764068461632 11.87174994457681 1.426153642569447 -1.9891375602732582 1.2556185405289406
Ni 3.417130108569714 7.815132977531587 9.631438264884887 -0.18383387603194146 -0.5993596281193677 0.049707908748088586
Ni 7.785118647285202 5.0489681932836925 7.164198232799091 1.6197384273405655 -0.7814924622998025 -1.0245776677938936
Ni 5.656232504502097 2.175978710338564 0.7470890200648911 -0.3113757623403734 0.24019811375428313 0.07652760004409401
Ni 2.2871308842519325 5.47365382316695 1.8924188118292986 0.717742473636351 1.3147202317871036 -1.271988497246532
Ni 2.7080264983677393 3.585846042745679 11.28626942080614 -0.8876268294667359 -0.2909470621723763 -0.22367697617080834
P 2.9638757290261886 5.746117964023537 10.359854275724864 0.4085989430606059 -0.32895825130882705 1.424804327630404
P 8.74151846967776 9.211563823721582 6.444639183011752 -0.872529311703665 0.7039071104151554 0.18919976832954513
P 5.226580007989614 8.779418627352266 10.45361129658528 0.3878403703570159 0.9600964573913724 1.4946519445511612
P 2.753793950385924 3.1628932562573198 6.067899569222296 -2.1289343526896434 0.8703281902872881 0.4026990326364032
P 4.0700228736730235 2.0143609475021274 2.537262658361441 0.747980446585286 -0.6638686064360309 -1.115850544467962
P 0.3662322815676653 6.0033293763881375 8.38364553584559 -0.8838187685745553 0.8616890265550514 0.0668175718451817
P 2.752876562706272 0.5081030429360412 12.1412228456052 -0.29159626572060104 -1.866774132841972 -0.7884138720099841
P 1.6332836653000964 3.280161348035033 13.423532517754952 -0.07078478402304585 0.7904447863970838 -0.24711155304466478
Ni 4.447069210009918 0.37858180238253364 8.374571737705034 2.520110472288111 3.0406174517746343 0.9049763764887768
Ni 6.087034052249701 4.682448648907247 4.943918964075563 -0.08404293458453269 -0.1735093541774818 0.8268914592598922
Ni 6.013550372455368 2.3668880131283276 3.4206847541648098 1.3996489114106991 0.9129907621528212 0.1458656243182843
Ni 3.8835893107748944 7.95288012761264 7.191784728984176 -1.1769484402205472 -2.3607694391912117 -1.8792344700925119
Ni 0.975581564785279 8.14896016096044 8.883925763840601 1.281846106766902 -0.5887887945820569 0.8967820136034426
Ni 0.16812380212818956 6.108532430197096 4.464144667356326 0.7460438916842054 -0.2913579244575498 -2.465768150091805
Ni 7.089312525167069 5.856732678488221 3.2035492835876664 0.3930273138745941 -1.1751517533314406 0.012976100544693782
Ni 4.140531993415151 4.458318792263426 13.403650224770498 -2.3505953268716873 -0.5596198863275846 1.3378807290639667
Ni 2.098723547861219 0.9679088678281912 9.985663887699776 0.05450918679147387 -0.21689774846544577 1.2587586288198194
Ni 4.715270741445901 2.6269720535807255 6.892079733967261 3.4935725523531125 -0.4456693655503421 -0.8803824891994967
Ni 4.232761888117923 7.699004670446775 12.113216575057606 -1.6094540146954217 0.10797116326535598 0.7226784774853876
Ni 0.6418692864799378 5.157507202291386 10.627211625164724 1.1203085802393158 0.8224655622780546 -2.003876923365962
Ni 1.0908851496126273 1.1584567754714252 0.25038567736630085 -0.26512521601326594 1.8312281174165623 0.06946940764573198
Ni 4.4164340214348785 5.054361320854979 6.811043822264684 -0.2582400588576585 0.6326921808332265 -1.0796784654227793
Ni 2.158566877509617 5.682595817114313 12.524961478732443 0.9306442135685262 -0.34542976660128893 -0.3203517405867386
Ni 7.169254984887838 2.6490912898567744 5.957378446834022 -0.706021842765313 0.3625983079607755 0.8395770251473605
Ni 8.013316515963036 1.9540542907427942 0.2188544141587128 1.0401775791146795 0.30539871882133207 0.4459938387692965
Ni 2.2401587817453157 3.030594833000866 2.156562524427711 -0.6065813426787876 -0.40455485489821946 -2.477135768498798
Ni 1.771994535771894 2.308981390803639 4.275625205804766 -0.9508831663232205 -1.6843649050716991 -0.09542932204460339
Ni 7.236326217466826 0.7728444475075602 2.180731519842538 1.8717384188257826 -0.8073485041309579 -1.1399826616294755
Ni 5.081818085449003 7.761424098831973 5.068422372017642 -0.5844652275060386 -1.8314700582240393 -0.3358012423725894
Ni 1.801063678711972 7.986665940542039 11.49777639363964 -1.5532730966284798 -0.2963342946262187 -0.47988457797947026
Ni 4.216573238861845 0.14661615763857488 0.7875902961401856 1.1100984724755332 -0.128431745112553 0.34948105385252715
Ni 4.064796543861674 3.925075620288037 9.155610588496595 1.483673848273103 1.5057884207839551 1.9073939632458632
P 0.8982337368857471 2.707906033318896 9.940907415437652 -0.3872700996758427 0.6567844458957399 -0.19367117383733742
P 8.639883034623004 8.212185778518666 10.94077751403238 0.02737016448283673 -0.4617585578027209 -0.6833498550890942
P 5.391042599287194 1.162209725070001 5.2333696034732595 0.6257941681618127 -0.21830928410099174 0.5886116455742444
P 8.21465994529106 4.206435641674582 4.2855802521103215 -0.4635506167061372 -0.8325941660716241 0.7703822113192538
P 6.800557803089998 4.335472242070051 11.564029390540716 0.7144967130055437 0.17422874884200962 -0.4818830964667378
P 3.9888294307527286 6.454100322617049 0.7802799209838491 -1.3648801404709463 -0.8739578166200755 -0.8410651796571128
P 2.481941401315771 0.36216890280476305 7.9755488698422585 -1.8616818059207292 -1.2056491505893494 -1.4002832025605882
P 6.8185348949942854 3.991627926502778 1.1848275013174165 0.5918646052939033 1.098803102067372 -0.06775448183715428
