# total energy = -340857.7270123486 ev
CRYSTAL
PRIMVEC
9.45413815423779 0.00000000000000 0.00000000000000
0.00000000000000 9.45413815423779 0.00000000000000
0.00000000000000 0.00000000000000 13.83708682765279
PRIMCOORD
 96 1
Ni 5.48603785182607 1.4822197846368579 4.9530957919606555 -1.3941493217487086 0.07828572038578131 -0.6318655711668731
Ni 5.737546289960362 7.041687927745454 7.906539253111453 -0.5693846790238323 1.5412650164240103 -0.7331279549534858
Ni 8.545652230207704 1.3188522768008784 0.22100182503908739 0.3264005178839798 -0.32743590112702964 -1.0249774743354736
Ni 1.4545569763076867 5.992184047833875 9.225476617155996 -0.11990545280909672 -0.20525399357893037 0.6971163127455672
Ni 6.597627057198235 5.404845713093698 10.345270123645061 -0.8323221433571601 0.18249561683649212 1.6782978729420126
Ni 1.6743562349696484 8.411564188330521 12.865321709190358 0.31974598868193965 0.794314039544503 0.3575612597575003
Ni 4.485969660483606 5.686181957201516 4.268851595410898 0.25224064674111396 0.13802427389699456 -0.017298896289763756
Ni 4.77594698689247 6.634280750941295 1.9736525053874199 0.970400924641174 1.016558911254475 -0.6450005658869343
Ni 2.0531930061788812 6.059960764481799 6.858421349857787 0.21893894726519067 0.4573804833396833 -1.1420505999020976
Ni 1.018532123217676 3.38972452138562 13.350519425807942 1.202261465064039 0.8982516561704336 1.4946218626441745
Ni 0.3908321817383007 4.331394501159632 11.253288098549735 0.753986800680366 0.43666124851446086 0.4073095348252211
Ni 5.237885632747437 2.330681416045423 7.119430251454138 0.51794564651725 -0.7708167277535113 -0.012155404415611323
Ni 5.939307052965434 4.547884811456861 0.7209120715000964 -0.541471497553332 0.368711619947365 0.03949934364620294
Ni 5.352375246167211 2.6352842942264085 2.3791074026563868 0.34791319514477503 -3.0834456026837542 -1.7069615594252927
Ni 7.449000563167764 5.990255403644143 12.72881908042074 -0.5778726618901854 1.607794881825444 0.12576679668588017
Ni 8.81331779050008 5.175658495214078 6.064324794667972 0.16562712321592765 0.464542034085129 -0.09628498517667933
Ni 5.629580031888205 0.6277027777208308 10.966680226989988 3.2353165526558536 2.241474109162288 2.5811026957007677
Ni 2.5011489816583024 5.80370634897866 0.3891597446933826 -0.7631607538701501 0.2269980701242413 0.9037206497048049
Ni 3.0571563024535453 0.8948010897221098 13.909731699447885 0.7614630544527531 -0.15335936159216815 -0.3898995668788898
Ni 7.1930770425011 8.363083367718085 6.770832541229476 0.4636048669828403 0.2536454975084406 0.3989125690107775
Ni 3.67362283694156 3.8426344652739566 13.622556579597042 -0.44324404393830114 -0.42033937142598576 0.33342991392693544
Ni 0.4707839375408073 4.57485746769853 1.64814936392096 0.2282442838265166 1.0433212669499838 -0.9586499547528328
Ni 8.077218591419674 8.743650246215164 2.6750550173290484 -0.8156997043091305 -1.4442310688964481 -1.2127320255780598
Ni 8.701418610942982 6.1341190244045665 10.411923688676614 0.7369290738671308 1.7431819752099076 -0.4775800982160098
P 6.770562152877386 6.937777494954641 3.446763227883076 -0.7269061424134899 -0.567998340199267 -0.3956516388713186
P 5.183278530591151 0.6065122723930784 0.9674826132603879 -0.40955256522312683 -0.9983860970001902 -0.20259264469668337
P 6.915768261260072 0.6677060726228206 8.396053729224288 -1.1326071951010108 3.2028671738778973 -2.2610813418702542
P 3.733089366124912 0.11258838623078121 11.684769292828058 -2.1331594465145844 0.45664874737998123 -0.06381143802900623
P 9.378514533611098 8.180429417984802 0.4780059537002925 -0.8373252529987064 1.1519496041833643 0.4960928123082166
P 0.6458689042432172 6.459870809705291 4.696404595273372 -0.3038059204129155 -0.44446866037402166 1.3965993259510978
P 6.936813172859776 1.803688845339799 12.276526491755881 1.4893261614628739 -0.3782049041497809 -0.3835458567467201
P 4.42447049159049 5.9117009694653735 13.36531137041212 1.2778079321417863 0.23376187121063613 -0.33511295805631314
Ni 2.634244339026064 8.637593724056366 5.772224068822768 -0.4834560973808125 -0.4119316069782647 0.5994071935278515
Ni 5.409440424251585 2.283401270982475 13.555903014565489 0.035164206605958793 -0.3487894271021412 2.73150374599556
Ni 4.228902189096562 1.7310054309738838 9.456707819711202 -2.4515669188907583 -0.7566584339752582 0.19269518307731331
Ni 5.419679255905888 8.350518818070283 5.002577805806879 0.35904015829587194 -0.8009230602205883 -0.4034618789443567
Ni 8.554454032857894 5.229367454242794 3.5183972329104614 -0.022109687414845793 0.7303246811767358 0.2633951206960367
Ni 4.544443505157538 8.35518916233365 13.280254379989739 0.1187839376101438 -0.6107974376426641 0.9547668176483428
Ni 4.811749808198885 9.481744268452594 2.951962943111034 -0.09495212529786873 0.03975671107264766 0.4167290283669081
Ni 4.54202324578219 0.038908505700172145 6.85395237873776 0.2960797554132514 -0.08691279993315999 1.4838080598581218
Ni 8.34893052285521 3.0114833608820395 7.0738783228513995 -1.8763046980402267 0.9135078109985557 0.8637168556183578
Ni 0.4203054575298902 8.728438537875576 9.270820554718664 0.3717588914141211 -0.7222426754995497 0.250523149829375
Ni 7.294945381443963 8.5425134563303 9.521493247037407 1.7494508389377545 -1.4758486958017294 -1.1492548309600206
Ni 5.068032586116579 3.203288916378357 11.631994402652015 -0.11872223113427295 1.1333731267327578 -2.591787171997807
Ni 7.0040320953547885 6.938136752205669 1.1574569021902796 1.0269327982896312 -0.5195245609685955 0.6183266561401738
Ni 0.22247856142357694 8.052893093869793 6.908884703247608 0.5673949022873132 -0.6244543663044665 -0.1673721309314924
Ni 1.1477512839296073 3.874958163728309 7.257454996471533 -0.26315215144729515 -0.13392182169284678 -1.0176524014289698
Ni 4.76495182418337 6.601824694552353 11.216107809309772 0.05853013502540888 0.3715166934963279 1.5721933305717506
Ni 6.637334437575035 4.0163920709752 3.411893530015516 -0.5011967091936852 0.8545660423570252 1.9369485369745287
Ni 2.645702754506226 7.942449851593177 10.603110943535635 0.7881161382639073 2.19753344191528 -1.05701779060047
Ni 2.6240338697863153 8.10418179352316 1.227426978897113 0.023680888556707604 0.26275697289140554 1.5227168211081776
Ni 0.4185280795511191 6.308264249771391 13.233498939596057 -1.9968840369878964 -1.1351039933809353 1.5564612645484743
Ni 8.851701591530988 8.441798522246 11.708790367128385 0.42863863532030055 -0.1463155673715093 -0.201526151105382
Ni 2.7283886470718213 1.1068243197269478 2.312135233168002 0.6030255070067292 0.05805242405804195 0.11957120939812955
Ni 6.4216288207471575 6.063080630082832 5.589671278368064 0.7104991618103763 -0.06022834866343821 0.00038772235672191287
Ni 7.563244368994731 3.9182959331681317 11.9205261913324 0.13674900672899673 -2.0674477061390713 0.3117532002844502
P 8.040820159407609 8.782128588627922 4.779440290951811 -4.476931322706534 1.21413996166918 1.3057820487572092
P 6.432586166903517 3.8883924940891266 6.060146065590224 0.31855376814605135 -0.34870406647718655 -0.469834649942636
P 2.8535897990551478 6.069774159917779 2.6262518106045047 -1.9389516834474867 2.042901384258275 0.013475151668299374
P 0.777149067079468 3.5187829617484074 9.33787497520926 0.09398281940606396 -0.7881652463342878 -0.33683328318152955
P -0.1998680445404445 2.565049501650396 5.227374521913407 0.3523041251236191 -0.5471659768349479 -0.38619049345841877
P 6.859033978012172 7.663032797536905 11.249800466973307 -0.817435970273947 -1.6978498269320113 2.8174806643780124
P 2.2442044140676622 2.993671764541589 1.353592452975305 1.0886181911145703 0.3839004118726614 -1.6796369034684104
P 2.722252911389787 3.2441118850609816 5.767145305789812 -0.31318067675959615 -0.8624896680794759 0.2578320247859624
Ni 3.9634961678303897 4.402659794797804 2.288557557948548 -0.32759016731670676 -1.5034710855046882 -1.1322310427085145
Ni 4.288633434149093 4.37277526399517 6.625045003348415 -0.28697959288419606 2.0219993439982855 0.17781106687662926
Ni 7.135151537841896 8.83914649602137 13.496375978897754 -0.3931039327488004 0.06693275726680731 -0.14843852725178308
Ni 1.1664421151212585 2.891727792493246 3.0537339044305924 -0.9662205680112392 -0.2771651778969355 2.841103703113591
Ni 2.8473595219912635 4.756613274304243 11.49122984838862 0.24979964139978914 0.5102662755951213 -0.2458936214771636
Ni 6.043312027138097 2.8287726863196467 9.157093890250415 1.7412899003935174 -0.8112439825306224 1.2525213896608558
Ni 0.4882551849065995 8.743773150011569 4.583576073932694 3.202478680190227 -1.1732866750982438 -0.3330977273984973
Ni 7.252222130986162 1.4536871955946713 3.5163220495788647 0.6782752687796642 -0.5377035458704675 0.1085046671713228
Ni 2.7201162761599877 1.8974928044108978 7.516209086110774 0.7220210464070468 -0.7649834089011858 -0.6010398440352681
Ni 4.834534281224622 8.74811259943846 9.642346440869474 -1.3409318571854647 -1.8718680024251115 -2.6862749560647483
Ni 0.6294442299744992 6.904999997867411 2.5492204380873305 0.8578791658906579 0.5358268976730449 -0.7453774617448002
Ni 2.8257662703768323 3.775897703826377 8.895545157363705 1.0843509311977841 0.503333810141346 0.7631808084748082
Ni 8.306878516208542 2.8546108459791224 2.0661536842166326 0.02308953482961185 0.7009238594171154 -0.5754475973884606
Ni 0.34444639814764955 0.742096904344938 2.579814029253837 0.13109772198049036 0.4651189896345215 -0.48335222481309653
Ni 3.6528899119019593 2.667324368535213 3.94996256901863 -0.5839098692232009 0.047992982939510896 0.3472051133341569
Ni 0.4634843974482054 1.232431999652227 7.153234467948255 -0.31175371450508244 -0.5274494722426272 -0.38253926985907666
Ni 2.213175932544648 4.824645252683161 4.362487270822304 -0.9572458753164546 0.620140569420461 -0.05280428828522519
Ni 7.50270952219648 1.1223858311793797 5.9703705147997335 0.6771205863499306 -0.08861101357118932 0.28611210267757825
Ni 3.89070875794444 6.699589937522947 9.1060481619484 -1.3488246296699804 -1.709377625065953 -1.47762584230681
Ni 6.2004870744629335 4.913069807127021 8.282312883548762 2.428651704855482 -0.7964670813317638 -4.48401651168809
Ni 8.4049179291865 1.4623093696193479 10.093477115951403 -0.1996055370439014 -0.8542117443413998 0.32908629224625907
Ni 8.15784348186095 3.7202695547461158 9.432811540034916 0.1462867710161029 1.3607900295619726 0.5031407202939334
Ni 2.7754702552328845 2.1913746898901474 12.058757981976045 -0.1765532832101282 -0.1667154711841 -1.6996642544329308
Ni 1.4553700321915928 1.3701315223160606 9.787884389502452 0.3075795285227348 0.7948822533431471 -0.1511492413147268
P 2.1186250965569373 9.191246964443556 7.814384095739809 -0.6719472696791072 0.5851203445915343 1.1397995990843919
P 3.909465768103386 6.916808216460416 5.935321188306658 1.2391046020343175 -0.48241840014491755 1.1143258802933196
P 2.41579702212455 -0.35616574784171673 3.7491727460051525 0.7333878934830917 0.4305080844288715 -1.7722583237505736
P 1.518041514219643 6.656138718424906 11.606548589727216 -0.824796010183444 -1.962262333148969 -1.9345440412980943
P 8.068889495678732 6.499644369049386 7.710274180633294 -0.2529402439112999 0.3967795818281747 0.46545631836928225
P 8.033814643012558 4.605403788174112 0.5689585446948099 0.9648632826523963 0.23475200303804733 -0.16496172171778686
P 4.652561029440655 4.654083145688432 9.536160397017543 -1.3144926891573296 -0.2202257843974143 2.2968464152850054
P 0.017019339560551548 2.21174835767872 12.038058146420093 -0.6704259479385744 -1.3289546302189306 -1.102933579295978
