# total energy = -340862.6378539241 ev
CRYSTAL
PRIMVEC
9.34396082511128 0.00000000000000 0.00000000000000

0.00000000000000 9.34396082511128 0.00000000000000

0.00000000000000 0.00000000000000 13.67583116958579

PRIMCOORD
 96 1
Ni 7.917539813680919 2.2064735698091544 12.377707593821919 3.1126852162751617 -0.840977505039313 0.48792056091006936
Ni 5.962194535522829 2.4071725047836012 4.388409898441211 -0.8430945513823158 -0.9114321594164496 0.5030234779897789
Ni 8.26697591737473 4.695573923275467 9.35197142191909 0.6721910102587971 -1.1714601634124664 -1.573552415702806
Ni 1.1482793481544642 7.451808773319108 12.067279723464754 -0.9505211549981113 -0.38573540819887114 -0.3098487841728857
Ni 4.085478687869418 8.086347810293812 6.746765814189917 1.099788348798777 0.4578103717882503 1.806036448642283
Ni 5.122835876841347 7.425075701343602 4.669147333215654 -0.23751671026737803 1.0758976582241084 0.49116812131308957
Ni 1.207865786458484 8.648872941041596 3.051146139022783 0.1261393495339505 -1.0310643039595018 0.030277825047934952
Ni 6.920539191595466 8.240541852146242 7.929479526847749 0.7242026274393979 -0.6667927220613613 -0.9336279787871986
Ni 0.4739378411713485 5.894880641600584 0.6207352036194395 -0.5316185160186522 0.22235080116021708 -0.4552037874033386
Ni 5.1220977039346485 5.090038574277899 5.321511844293005 -1.598399556653473 -3.827761198822943 -0.7544470281462362
Ni 2.499986067849907 2.6021062159171224 11.09130394767503 2.27198924703201 -1.7118970490536967 0.597926495217267
Ni 5.5517797433592 0.9440670839025657 7.954629731856233 -0.15447444903321783 0.5748215337686874 -0.4832496377969613
Ni 6.62163522814756 6.23088012960031 1.219626095577104 -0.6493542148699397 0.8723621899981815 -0.9067902897690642
Ni 1.8932640023086449 9.50196722216418 10.718733131326848 0.16761201485644037 -1.0190940189715028 1.1878100655253994
Ni 2.98686249160234 6.6039097344259465 4.248232732251298 -1.068825067648043 2.7198705326320063 -3.671316513437232
Ni 7.94990729404553 7.609777775352629 12.948194713605119 1.384328221893229 -0.7600196371380071 1.357409543125514
Ni 9.294596699146913 4.788490269911059 5.0128481137432415 -0.40829169623283235 0.257217274020099 0.5568608355252087
Ni 8.786855210829186 8.83106148958351 11.09175526098381 -0.1561191837254924 0.7613584105540888 -0.7384233990244702
Ni 0.3453640055578711 9.25516518438402 8.547353609656668 -0.401380828045612 0.021504192620362964 -0.11364867326610749
Ni 8.373730670020713 9.277469218919334 4.481514993085859 0.401271041940625 0.025105022597743862 -0.2766499288234139
Ni 8.550705288411514 2.440988299079077 5.063298961529801 -0.0276756115383975 0.2758531439537314 -3.11431709545163
Ni 7.000439400774967 2.4231133019839555 0.600676522875008 -0.8224542494241448 -0.025707174958117016 2.863659991147552
Ni 4.996897972582044 7.520000999560716 9.288596941888796 -0.26636320218542514 0.4178857676791707 0.2852947489826055
Ni 1.2028200476025692 5.229497189878886 7.1800032307157196 -0.8402953913706238 -0.7035160456243239 0.9086345420666544
P 4.996570933952493 0.5081414098418622 5.472903632288232 0.6707329376560319 0.2095207392750843 0.9327684590003806
P 4.213453575592776 5.504405861878663 10.437900388151794 -1.6354203568521966 0.7207069555813137 -1.0073620752465553
P 6.646060341794527 6.991684109463869 3.2753750361953142 -0.23149801487712393 1.6541996943422284 -0.7463953614863532
P 5.520673697708567 6.504704902142149 6.710894348508699 0.20966266416958731 0.5994231343674515 2.31918133133678
P 2.9663524975491296 8.740565228806588 8.92631102324192 0.39161140736367395 0.4252920874455708 -0.831676025132729
P 7.573625990846081 0.26015455782664654 13.604771482231076 -1.7894255795584797 1.288100058096414 -0.8966436882533654
P 4.83868602756657 2.5303913164372176 11.27003336191239 -0.3258896396858323 -0.4949869808385476 -0.32740916165415224
P 6.813177081494605 8.682081377882193 10.01846306739692 -0.11394486435028764 -1.1459620191413618 -0.4526573668324011
Ni 2.1194906383096845 2.114697186396565 2.566775765568788 0.019174516045921814 0.6137423792036011 -1.9919794005974272
Ni 6.9828727543877065 3.6103009030940316 6.1190861788710045 -0.7568823770606061 1.1458095527238974 1.582935656689919
Ni 6.148130012363302 5.390203972439783 9.759169088364033 -1.0621731095491642 -0.42236231539328545 -1.3539655504409713
Ni 7.058166390870974 5.9841154676635275 5.1212978608863775 2.8914975821851105 0.8373777035031964 0.7734917034825131
Ni 0.09869558641778443 2.3830370539228074 0.7686566445570981 0.35368017953553926 0.9485036103474503 -0.10381960299082765
Ni 3.874772370830739 2.6861364557897978 8.934830846739741 0.5156925888170151 -0.890038524232022 0.5251228809919795
Ni 4.473439942124226 7.689360289863424 1.9931023551376856 0.43683479797784763 0.8939388877276926 0.002028343283938442
Ni 2.897057683927895 0.8272068376034867 7.038622562369062 1.0228799683764964 0.46397227762458804 1.452660430610724
Ni 5.618832006377804 5.622934005188447 12.131474603257177 -0.35514545122715613 0.2834389267207893 1.065804021433532
Ni 4.788181919203198 0.4565739587344095 10.28310366082491 -1.5914884313559365 -0.39223901364534386 -1.6520736491381611
Ni 6.84988950365181 3.4838958007925136 10.986519836371109 -1.1792938005242724 2.4805360524295987 -0.9462045299006284
Ni 2.0924024958220953 6.861840429571654 9.786972043856208 -1.6304694406048243 0.9927304413763097 0.6133459150961308
Ni 2.7654293075144203 5.692864208147093 1.7025042384842668 -0.4997080404633007 -0.604170676354766 -0.3330403917980006
Ni 0.5716121326688524 3.523131092377676 11.013407083700546 -1.99505212598548 3.16867844381133 0.9428009035357182
Ni 8.079657534329304 5.159146508682247 12.427268896536104 0.6484461012333735 -1.4211780437317265 1.224434915837285
Ni 7.762673006647701 8.434298224213382 1.6627896017077926 0.48390346933087625 -0.7218562386944084 1.1749676623450926
Ni 1.5271956483120022 0.5891376656283975 0.2607525713206809 -0.13249588787959762 0.234737347750028 -0.5699492932780507
Ni 5.965698520839437 8.430953086231128 12.048257287977952 -0.37206639535221087 0.18980809133750537 0.2598254010669074
Ni 3.3666851559617736 6.16022109769581 8.181305812373882 1.557574552217311 -1.632678275330685 -1.6592328858907617
Ni 2.551069501785625 5.478934224617135 11.788443784722123 -1.4693096091316307 0.130581187355388 -0.3661106919894082
Ni 3.6404445207777028 7.57652261870781 11.477414163286586 0.7077308550366198 0.5290952353761662 0.8488098565995382
Ni 2.961633797322764 5.385485272213418 5.781102033587951 -0.8155305257211181 -3.0021599191293844 3.3229510612463873
Ni 4.377019610172025 2.745760269937195 6.383795917609241 -0.8543117602543738 -1.0089926688714428 -1.1673551401051574
Ni 7.655525807646259 6.626101641431129 10.818991027997798 -0.2900895992680875 2.200469127504836 -0.8262641100885383
P 0.7196662578505 1.6601321792436772 12.192769117603532 0.21371138031766418 -0.27345070515982584 -0.038272927438269565
P 4.060941446692318 3.6690463849220656 3.204096499686837 -1.4939852575014398 1.046920554265468 2.0085691866353086
P 2.0618570878221205 2.9089338581609843 7.2024586374167106 0.8081041513500599 0.9362327633998974 0.7575236101890309
P 4.647303021553879 6.556451757297812 13.924457348992762 -0.9453882046469202 -0.8691686227615483 -1.282757819947894
P 3.443651361436168 8.788527779820313 3.4466376913220023 0.11042271012964208 -0.3458429428793076 0.11050087166574518
P 0.2759542612182519 5.889563927880184 10.512146566624416 1.2077564267403393 -0.25197016668854666 1.136850543758397
P 0.5160146312492586 8.170144451145381 1.0193868834761965 -2.0995247891792745 -0.2658543808698066 -0.1805842587463922
P 3.436493887429444 1.2825333775651837 0.726398581638809 1.7827255418304846 0.516442322498846 0.3684629942716687
Ni 2.3563880775948998 7.7381637973531365 0.3486119663473454 3.1484831998103777 -1.121203067029127 -0.19690870693802864
Ni 3.959951917887262 0.6803029540017709 12.336133508837431 -0.8336758291715772 0.5237637958609238 1.5751547271929196
Ni 4.748881219892126 5.660562135508392 2.988018339558778 1.1400101724333012 -1.614043433838317 0.006438813646808266
Ni 9.007522190127876 1.7636352335158474 10.067996338228573 0.5333203292011073 -1.0626353938975635 -0.29508859514457564
Ni 8.3731793763309 5.921417490398359 2.7908131115440105 2.5425729150566854 1.6942680231180243 -0.24438515525243715
Ni 1.728819635410033 2.9906841715876538 5.0408706523152595 -0.2947047294425957 1.911479446169147 0.13515338010710273
Ni 5.142037716376357 4.16849977997091 7.821987535691154 1.2288726398936642 2.526263636373701 0.38235337910051564
Ni 2.172461552335949 4.273395084408879 9.445841786956883 0.24258024083321447 1.1137705220104819 -0.6171161807718404
Ni 9.095589021085283 6.998523888801888 8.552085391428216 -0.8059261698621345 -1.3349381014958752 -0.005861343876783454
Ni 3.1978958472705683 1.3919698469734765 4.394400311738484 2.6647041718725073 -0.5832516668139117 0.8398480194205602
Ni 9.19019662463369 3.1511666990882876 7.338559967886346 -0.45045495986444356 0.21352189001467742 0.6007320829868621
Ni 2.439960463386205 8.631932340030904 5.3866504641307005 -1.755981698077737 0.6946136009283714 -2.2264704366646044
Ni 1.716915429294411 1.6937797822439555 9.049926953231418 0.32615292064954793 1.2615331062411628 -1.5807430199139743
Ni 5.4654882649622065 4.2050346668720735 0.8005335669773842 -0.5607910238175503 1.0059158297183322 -0.21069753319200488
Ni 0.5656618984032102 4.0293868909211605 2.666048808766749 0.051653205399917496 0.3122440238779397 -0.5119202662587764
Ni 5.414199263887913 0.2554722990475742 0.8920511226745872 0.696150092177556 0.18842380939546904 -0.8092374936235547
Ni 6.0810964372663845 9.165911670399389 3.379215407453963 -0.1542152818345602 1.4446897537004215 -0.29440236771082845
Ni 0.6316966040858729 1.1316190659691001 6.270710631491254 0.9479816764057093 -1.2148110195942756 1.0265728438470514
Ni 6.877360748534014 1.3065940767392237 10.703826710591956 -1.4006475278785426 -1.1696771033701145 -1.2461993040975698
Ni 3.574691068316453 3.8672037625468665 12.796653422236382 1.2530708344064225 -1.7734621142506877 1.592451309489838
Ni 1.6303249441504009 7.568804507050429 7.204400312480154 0.014114585024511175 0.39031634270133425 0.6486463901696378
Ni 7.562992563405282 0.9572607566146992 6.551530293121126 -0.9379764855638814 -0.0047794236665143494 0.9248795431706072
Ni 5.014399211243393 2.3471936201241212 2.1351660670220607 0.598332215296118 -2.7035810514433636 -1.708769816278625
Ni 7.0740791561887955 4.256370387750588 3.3020838138726245 -1.1039381093010923 -1.4383391288920453 0.04343570258613165
P 1.0381140498003172 6.060670538860773 3.671017026264126 0.3539969394450097 -0.40840611032350954 -0.4266128631395233
P 0.9742667653513021 1.1280216410440493 4.155976069251312 -0.9255585715155028 0.3357590762807443 -0.4243996575382884
P 8.976995470049589 8.472178641476123 6.520554128526229 -0.5218465242335529 0.015895331074017787 0.6593686616831483
P 1.6831183229206241 4.105596235567168 0.40827595952637297 0.44233978695647685 -0.27208133561612496 0.48409244541323077
P 7.941292162147097 4.556302186891365 0.9339924253202551 0.20731704675554619 -0.9174390277321618 -0.2955146269384008
P 8.191551465439643 5.370572310705937 7.046252840794507 1.2741906471041733 -0.6419864616509589 0.34881745212659926
P 7.525943758657683 2.4449501384770547 8.729118876772334 -1.1870940132949812 0.14222777045538085 -0.6060514383172465
P 7.561011643706293 2.1525776036593056 2.8977855784776647 -0.1299047301136537 -0.9079765967676814 -0.0017946300065775544
