# total energy = -340888.6732523929 ev
CRYSTAL
PRIMVEC
9.12110329645110 0.00000000000000 0.00000000000000
0.00000000000000 9.12110329645110 0.00000000000000
0.00000000000000 0.00000000000000 13.34965664960676
PRIMCOORD
 96 1
Ni 6.590234177997043 2.0878387543311647 11.4877393723415 0.05210597666661994 -1.0765741154658426 -0.1955506502482374
Ni 4.857334031830258 0.410152294001412 6.058848741414121 -0.02147951003001462 0.28172965733916644 -0.503077728266482
Ni 3.0985025893944873 1.8332687652817776 4.775719312911769 -0.45091210200652027 -0.647797154795465 -1.0135082973536096
Ni 3.571942569745526 4.503626772591771 4.847874535748455 0.19045960887857522 0.00396824061912865 -0.9290935812519547
Ni 4.091061034695609 2.8013644119218295 2.32753952101766 -0.14602349005238724 -0.3038159477152445 0.33318257380281974
Ni 5.218611806687197 4.941530935051859 2.7671967595040936 -0.47942049385885827 -0.9705369359984058 -0.14227405031228402
Ni 5.721166348308235 4.437051840665168 11.828890520977145 -1.189264795694055 -0.36205092009773776 -0.6294554190634837
Ni 5.425514910649802 8.1133124671917 12.48871021108226 1.5196736634064798 -2.065925098846958 -0.21530495005702918
Ni 2.1251075818215193 6.202368387443975 0.7286785462616696 -0.5155347230829121 1.1129140875474575 -2.001120186556431
Ni 2.92322235006944 1.6748260823804195 0.20855858418519388 0.7065784865997315 -1.2324415881918453 0.11053943821316446
Ni 8.061568448994738 9.143449857490438 6.812395975427248 0.9311502066706674 -1.5878297515574267 0.19395656628824015
Ni 8.971982239284081 2.3903857459745965 0.974643686594855 -0.3912573664583649 -0.5285280500187866 0.640966762137193
Ni 7.082363298712187 0.4308188895294701 4.455086997933078 -0.38304989094690806 0.5192407111795897 0.7096093030062554
Ni 0.7915603435209093 7.8712748738769545 2.579487192910053 1.4781598604334092 -2.1743068672871715 -0.5961984567825668
Ni 7.521517052304478 4.093022071873882 3.729159376382884 0.10505244695666424 1.0282887980968936 0.07065648597529767
Ni 8.084042847168071 3.9953624203958538 12.53901218287045 -0.15838535405184984 0.4898334616620661 -0.2543877749911038
Ni 8.219664529976216 7.2967913127774695 9.267197688211715 0.21590093176981529 0.3694762660275315 0.5886504692319797
Ni 6.975144731127969 0.6659682257417394 0.2491183056937863 1.3627057585274467 -0.4292359025846672 -0.572995279193226
Ni 1.987798494929743 6.553676796552759 9.184924425645452 1.6181746823978713 1.840044944377244 -0.07812322666598803
Ni -0.08851300923443434 4.845111753602878 1.3647487079724172 0.14258386824321898 0.45229664105887263 0.10889984572721247
Ni 6.66369554280549 1.9249449730902832 6.709710596110946 0.0938655771019093 1.156265972170531 0.020172618293133
Ni 3.6884646625476014 4.115888677482869 0.26093013427920214 -0.06673143988927863 0.1900163506935695 0.025491973623517388
Ni 6.010341802726786 6.0929516339994585 4.70481915386918 0.43746189003888536 -0.40565888659567556 1.9264553507526885
Ni 5.478809516383072 3.100855834008416 9.756782933256995 -0.3519724528158132 0.11490825670482147 -1.640536595032839
P 0.44151247086811224 5.738003904731923 12.605893583863054 -0.09093786193215306 -0.4937754770289496 0.23742055100914597
P 4.224192656342504 5.914789126077506 12.575589630741675 0.3356675450082025 1.1145138279344098 0.6204005079500671
P 2.4119389127292967 8.465195505799235 1.1709626624566747 0.12999189051082127 0.15904227090955836 0.03502433859398484
P 6.509703958243656 7.886096666503441 5.966976429887788 -0.2909375490906796 -0.3122543082905848 -1.0831054888264573
P 4.8141273661861534 0.9473177736535057 12.646143187864384 -0.18353459962396776 2.1223510430451706 -0.9801361496510668
P 3.8893387173249088 6.553248104704486 8.152794986417714 1.04973231268265 -0.21183190390676424 -0.3283509567421313
P 4.97670190881662 1.2728225819374712 3.693622646381619 0.6954479239042087 -0.9162645478080865 -0.28310494042013823
P 0.14338921425474008 5.862525205000724 3.3174428131904303 0.4460884553656318 0.02377550515304292 0.9739400481426841
Ni 0.7233855701009617 0.1761430956834878 4.54848162157594 -0.2905894217226415 0.8030958995021911 -0.14064217113581584
Ni 1.82706641513654 6.798450720813933 4.580254072305236 1.3277762936401132 -0.5115430854250158 -0.92095835373933
Ni 6.1143679842068375 5.624765409065562 9.191024619435355 -0.7996683618778808 0.013570025374950823 1.2401654391986643
Ni 8.512087097117861 2.511532238076135 9.936843542745454 1.812000636645518 -0.610103239789117 0.6157154437695718
Ni 2.4529017869973297 5.398242812217066 6.7274392843128545 -0.4725674754927668 0.2763678788066208 0.9574389651638671
Ni 0.47697988048540146 9.232927879438645 9.133274354810984 0.14649760147532834 0.033498388867761665 -0.8298873086634223
Ni 1.5673521239078674 1.0539981961515936 10.978303870500511 -0.3973897046083478 1.8050203486729428 1.1977833746880275
Ni 4.380482758899339 6.845907820528156 1.4242347185271393 -0.4906359029587034 0.614548162934348 -0.3057758996550928
Ni 5.734273373541626 8.048288122801406 8.048828092108169 -0.5299632398034163 0.006828078665426951 0.24144869833193253
Ni 5.5476829663046745 3.1192804623810333 4.814753985972886 -0.23356389626721713 -0.1308074444335812 -0.17628280315756092
Ni 1.1814291283267633 7.599949418332271 6.704811651606523 -0.5147415377576554 0.38935397878806494 1.168138041017769
Ni 5.049606886332627 4.965492073039417 7.07186034842948 0.012384746817598024 0.05630124569489014 -0.4735470657972167
Ni 0.8606873601102141 7.339405106716515 11.223416187688729 -0.5718151428421958 0.5719123305416924 0.20472743165149904
Ni 4.399919829722135 0.557635059352009 10.28242572329368 1.1914350638724964 -0.822630369990693 0.4923364305895779
Ni 8.631144856596961 7.256248009254556 5.042525261843269 -2.238150958326326 0.6524097138668119 -0.6029609723173809
Ni 7.318426569460564 6.188002649975226 7.398299157676492 0.7712389028925943 0.23064569417915762 -2.9744148878056325
Ni 2.6238859867364845 4.9628834375371556 2.5325363144209194 -0.09071803261186312 -0.22892536905394123 0.7563761268481489
Ni 2.476397748723995 5.363874495529925 11.307359524242626 -0.9747612584923986 -0.28491731103852863 1.619965969970339
Ni 0.8527729789028277 3.648304445357187 3.663359738224436 0.8542947909735094 -0.36092580535435903 -1.77549482841
Ni 1.6878236543759542 1.268553905661043 2.2668121283235747 -0.5921713379010447 -0.2424069484801438 0.9266597749994816
Ni 1.540317174157155 3.6527920281093302 8.083710839013236 -0.37384482740887226 -0.7220027915746017 -0.41474105140260187
Ni 3.752357990146704 3.0102011897532432 6.714864019393385 -0.14489349021300207 -0.34027110521848497 1.2189476674704682
Ni 3.9492005173296074 7.202296684094144 6.0164766567086785 0.651583875531407 -0.006220784098731222 -0.6556341343413805
Ni 0.7642481122342922 0.01274856587940983 -0.2215671015045144 -0.024831971442015297 0.522490585575455 0.6469229797206278
P 0.3852416491754435 6.035415715299224 7.947637661598931 -1.1960581644668047 -1.163343447842603 -1.9571720631102552
P 8.678912073818445 1.7950787063727922 7.7905394293025845 -0.16795397157689138 0.47910167706685874 0.873900738129895
P 2.0798121835549748 3.3917825402326813 10.281878457104392 -0.6499134298075193 -0.7063555719556481 -0.6597934079253928
P 3.9080278576890146 6.375167686710927 3.792384127120743 0.001967151028699838 0.9084705056849643 -0.4092692296547532
P 7.38792025439669 4.242243319485778 10.27894146188856 -0.8578182307457356 0.681988198854877 0.15024986942890897
P 6.3378350114984885 7.957122696769567 10.197509165033168 -0.22856310061851606 0.344582073889013 0.44316613951251416
P 2.60477727562726 8.914902375741583 5.609018736579182 0.5495478468035633 0.1910152242717291 -0.221828867218476
P 6.807015436676254 4.1374600864438795 1.6086068734768526 1.009490691553784 -0.03835263163626943 -0.5702904786675533
Ni 5.8476942912710825 2.699965108150349 0.24929160665372674 -1.2382234849809448 1.1313548107511484 0.6711535701332183
Ni 1.3647997861500838 1.013755889032787 6.919661060637555 0.05345683426755955 1.4233819933615808 -0.317713274522627
Ni 6.816492262854051 1.0254217799677265 9.126812965336153 -0.24605097299063428 -1.0106656856984917 -0.02228709353297452
Ni 2.8870662971639662 1.687185177155121 8.84533572198022 -0.1322637172641335 1.5259772370270042 0.6118752440878752
Ni 6.9215673711969 2.0696603957437256 2.4225084470650344 -2.9308696562248295 0.18204695933484777 -0.5211191591492251
Ni 4.29847492043488 6.85836724743756 10.530208699485609 0.3765851091581708 0.8876078033033424 -0.23663533610368928
Ni 8.164974395460266 7.475400754754005 -0.28805629506146213 0.060660036884218116 -0.4918947150664691 2.3339230084223286
Ni 8.103406949165628 3.9465462763115715 7.9762460016438395 0.045831713622133965 -0.04950890536340506 0.14232675792709037
Ni 3.100983529452582 8.547148617644764 12.36143433766072 -0.47724842590820393 -0.4667169302492607 0.21578780323071872
Ni 0.43629337564295784 5.039245313148817 9.809848599301082 -1.3941531784034504 -1.272510688298589 2.1418659731496468
Ni 8.574165325189167 2.684541322715647 5.436514048944129 0.5790707959633447 -0.6667263875998002 1.0738004093754474
Ni 3.7518107239574183 2.7149602017367758 11.449506444247687 0.4792454017335746 0.10079907099694899 0.337204036257387
Ni 1.3420426337789544 3.0147526202274695 12.45477514679497 -0.3988089535533777 1.312421151340282 -0.7258797580315047
Ni 3.1739249913812086 8.772622287630464 7.891302080073864 0.5147299677934296 -1.4138480857292166 0.2378339843974807
Ni 5.465985245347478 7.982260457064089 3.37046743427032 0.03483793361479161 0.9984688865219836 0.39312990089072936
Ni 3.087201542585738 8.60292416343613 3.309486474908532 0.4265179894328719 0.24332611786030353 0.47407722726907386
Ni 3.654278767923556 4.693500776964437 9.367934799894158 0.5851013184281407 -0.6067060411821099 -0.948532920923489
Ni 7.270039117224555 6.219324518208676 11.371544727142682 0.34061280482861983 -0.17247551359632876 -0.9898379503198631
Ni 8.274245211254307 0.05358009626201414 2.358417191527473 -1.2948759433676664 0.08144200662657587 -1.0903696265880385
Ni 4.88402237966109 0.43325878462336875 1.4816246995768974 -0.9408455795815603 -0.05707026265043074 0.5277472059887041
Ni 6.373927216681879 5.812906403838823 0.2825672151829268 -0.015142254958077146 0.43581946933945587 0.4131163713149853
Ni 8.00559223893397 -0.17288047708502965 11.361265243887265 -0.018058914384239868 0.9218767517885413 -1.504074523416642
Ni 0.31049968148406776 5.084987645469945 5.4922759130807615 -0.7432755849104489 -0.03995288624385377 1.2132243918334462
Ni 7.251833395327652 6.437902634209375 2.615918703130801 0.8949755565223233 -0.19064524252682008 -0.12596605718087983
P 8.684904638591124 1.8836081335929051 3.3703607173634094 1.8123148254518273 -0.6301802130446502 1.3465695150872163
P 1.883489559251893 3.242223811804061 1.3400250457611214 0.3334677091434063 0.7394816650856555 0.5201938191214783
P 5.005123266246856 1.7329822360951774 8.014332992087176 -1.230767542923532 -0.7892898468570342 0.913370256979427
P 8.602550198206783 1.797176560098387 12.24088710203645 0.36211159813234406 -1.0419513831856506 -0.009837554915712091
P 6.4825048286361575 7.971798551745578 1.3478883487908409 0.2625381720123801 -0.20515860565164665 -0.5749814563853195
P 1.7616407422074374 3.4109642201671444 5.623422782681181 0.45876605083330024 -0.16483393789067097 1.3921338339805767
P 6.982870305500051 4.282613322048751 6.1524695684152215 -0.27931641991198347 0.03729282291318738 -1.368518508554482
P 2.4725851276053046 8.49731091000715 10.204370970936495 0.44011269739817105 -0.42339435620222565 -1.337873529975115
