# total energy = -340873.0776620273 ev
CRYSTAL
PRIMVEC
9.26161714259416 0.00000000000000 0.00000000000000
0.00000000000000 9.26161714259416 0.00000000000000
0.00000000000000 0.00000000000000 13.55531286679459
PRIMCOORD
 96 1
Ni 4.30006697258323 1.286985059829531 2.9033447155955723 -0.19955051543624988 0.5465573967166717 -0.44948719663453557
Ni 1.5744471334410926 2.137692381417351 12.588561392525172 0.6557364642471998 0.24851486115009455 2.0110266470368656
Ni 9.528536973163437 0.8923392169126263 0.9144930051747197 -0.5275104073875496 0.26955239854668417 -0.9207416097428337
Ni 8.339901026024194 6.125420576679996 2.33674583604335 0.01843583810768438 -1.5250112735693089 -1.012545676330024
Ni 5.931787946581507 8.519567137435711 8.51819919658023 -1.159704565538435 -0.880051074002007 -1.5447925699612943
Ni 6.8777787855775285 4.600439740524791 6.148472741807233 0.6120691052662361 -1.9238256264393254 -0.8827219359659507
Ni 8.970172597433885 1.0130356856637863 11.51990136032154 0.241625590229429 -0.9145411373590767 0.5665055577038244
Ni 3.849267018624562 6.19679986018165 12.499191417677734 -1.0198609790445146 -0.9609284663743644 0.992892935096103
Ni 2.3282594162337533 9.252299979557584 8.847878499721517 -0.36676966572964576 0.07999524687772029 -1.0513104558030473
Ni 2.5940493056758758 4.596846233064217 4.5941937059077524 -0.30971637236007954 0.3119789431420111 0.5179711004385466
Ni 1.664340389658433 0.8840426602549409 3.0835628193902087 -0.2002277440089326 1.4346197710589292 0.296279015908251
Ni 0.041900482222632436 7.712231969038269 4.707760581764196 0.8192876787707051 -0.6256810396227159 0.3571501403620107
Ni 4.915066137285484 9.422398840436184 0.6861061566592127 -0.3161857821345071 -0.8562349454190157 0.36547100152288026
Ni 2.2902404777655705 3.14753280915872 1.905402687427912 0.17512272141118873 -0.4368877627029702 -0.6347994569842164
Ni 3.606640433715673 4.6294656487243735 8.639898698470514 0.4604498662936264 0.5752807327932932 0.03310963806977523
Ni 7.967482138144997 7.720474808316389 12.215709060962586 1.3699873797905247 0.658978111112949 -0.5423916953747562
Ni 6.985741456886569 8.767352443106299 5.874818813229099 -0.03521974243424257 1.110351469026604 0.5898372904512293
Ni 5.956368278541205 7.269758208912219 13.026181139094296 -1.8498902126024401 0.26034784922928067 0.36058179175137894
Ni 2.0371019573727875 9.2787511581849 5.352789613966873 -1.674217532225052 -0.014597695308516796 1.2726194459623117
Ni 4.839889590745595 3.533899692490556 4.496608676633694 -0.2518074158584373 -1.464831004534987 -1.1143559622003065
Ni 0.4361879005551964 7.882210428893704 2.2939386415001244 0.22882046804496076 0.6642259897754497 0.12187054695526753
Ni 2.762907109854173 1.1495704459312532 10.969162074005109 0.04079800785296845 -0.40699611734986035 -1.235279828971589
Ni 8.983629727176703 0.6250748780176087 5.381432091215765 0.29221898690626447 1.5342055384740674 0.9098015657915621
Ni 0.30989185806521446 8.061237488720739 10.180541855415864 1.0446410142026719 0.7108951116972144 1.0874249421374176
P 7.645344569862333 5.981411691359223 0.29651715671517725 -0.15401962088398635 0.777286651748571 1.0564917428936709
P 6.232262592311899 0.5314158482603989 4.054963831244039 0.07851917655282606 -1.8378299390037962 0.39072720498650776
P 0.5717455602116053 8.784014092388702 7.488510197089491 2.0767859528208623 1.7997125633067845 -1.0959147247759835
P 3.1637591624343 1.6993400409303607 0.5310240818542591 0.4345915104696257 -1.0461199127410437 0.5031594893470109
P 5.038301215301961 3.7463704519055576 2.292921715935251 0.23198241071271017 0.7839319249792305 0.1804662451112892
P 0.7258755407718503 8.118372405020427 13.00694661256306 0.22687542850344797 0.4927141256439708 0.540693738847043
P 6.347023290621096 0.26811733383604547 12.31906870853991 0.4912971906917862 -0.04252553206703644 1.0242493379201973
P 1.0210284612784128 5.155293963348266 2.6030673423108257 0.9035213892098053 -0.7636366650653043 0.5378063899969189
Ni 6.606005891445894 2.316543470518223 3.0601929807941635 0.5926513628612567 0.40684725047682185 1.2044335330146934
Ni 3.773849670038347 0.9978558951280125 6.9019590156756365 0.2999083851307222 -0.6261191556013991 1.0047827445551536
Ni 1.5049850046928899 1.9532287523136243 7.620634575262306 -0.09719721257830358 -0.24004179068207693 -0.09645287821311131
Ni 5.070605735978458 2.0785384325753817 9.9467258469174 -0.4855397193827186 -0.8204757855415352 -0.17951082317655537
Ni 3.2200697948061765 5.243112617320327 2.3570658241064915 1.2316489170872207 0.6726931467061963 -0.13685287929671272
Ni 2.4514018780785665 5.862168370341475 10.54000096239408 -0.3429823335020609 0.8895541283964358 1.2347470963965703
Ni 0.14442843657841273 4.373057777471841 0.5538400757437519 0.4179042796219319 -0.08209095306448443 0.13860225788765163
Ni 8.44209370983855 7.451313690225687 8.15122984424176 -1.7996405724182682 -0.6739676425432458 -0.6774599719672204
Ni 2.398267980394775 6.860385468538978 5.588177318898482 0.20731319010080423 0.1323709322659591 -0.06700500526563945
Ni 1.6429275307696536 6.675190171679104 8.465902549088284 -1.1140374025186233 -0.12645893765689836 -1.3280904824464224
Ni 9.342563700461582 2.784486677851948 2.8352699770989003 -0.8536286181444201 0.8870742993973756 0.3802113930568484
Ni 4.2654192627636265 -0.25820925579140186 4.906169427835413 1.587882202061917 -0.6598481724227281 0.4925261780028808
Ni 4.913871388671014 8.810502317484683 10.89534050205667 -1.436025136046888 -0.770292736929241 0.13052179487236232
Ni 7.182430420649979 3.770969307099588 1.365793086460375 -0.09389823011205764 0.766385431455035 -1.1180616931866678
Ni 5.049618911479334 6.023774328278461 4.147220652162252 -0.6295325521583223 -1.1266568910548467 0.20782355407831948
Ni 7.153737930668387 -0.016820022935948094 10.22901530734151 0.9029279786001805 0.9800865273600541 1.0068784507419175
Ni 6.189705461432166 1.974410070773243 5.934949862682125 0.5860104605059714 -0.279435461988351 -1.05671028666238
Ni 8.46796140658438 2.6430062140176087 7.152094919783063 -0.6315238715567382 -0.29108281641929223 -0.05066538756535146
Ni 3.3604110797290447 3.431114265177549 11.20117484564127 -0.4120714749902388 1.9244236650346407 0.29840094734726025
Ni 4.713644487150027 7.848822299008735 2.948375624420457 -0.3534148416892946 0.9521571479396376 -1.7778612717596478
Ni 6.659315759855848 4.167875910766818 9.841713000675867 1.2598809153497204 0.2819757119117015 -0.20047379858146763
Ni 1.514181790539152 4.139553885471884 9.300829001186228 -1.3757029421180629 -0.7700721362780029 -0.5156067139714281
Ni 1.9835142404478405 6.615526833892981 0.725957043002915 -1.7217993957690734 -1.6046928458613525 -0.8928397411262429
Ni 5.732477945159998 3.161740129892019 7.9801622182075524 -0.17721662782573996 -0.9758508920121515 -0.8276694750764971
P 8.416466815139046 2.4400100889638616 13.165055383858004 -0.18070047260928232 -0.5753727782864672 2.116183480781878
P 4.778762917447176 4.870082462708147 6.074312194670503 -0.9533622239913323 1.0404673424409565 1.0680575933543994
P 7.063640918873386 7.094741429318248 9.880873896540669 0.1510620809175592 -0.6538778137719061 0.4079839351844264
P 8.775558235915755 3.3216419502703816 9.513714681050287 -1.1030243392375714 -0.4278282236038632 -1.012247942583947
P 8.338335812723068 2.838092918011227 4.872620145811748 -0.5825291868255904 0.4075990410411819 -0.18830888108415955
P 2.5157330709165686 8.288499050750524 10.73000581704848 0.40959550264592043 -1.65769819441379 0.2843634954175877
P 4.33842859088657 8.181138384557302 7.023563122909105 -0.9664033734460066 -0.4469163505835658 0.32073997716409275
P 1.6470674736430466 4.9850932246808375 6.912206068908571 0.3523748304605544 0.09500534713330734 -0.46537789972286303
Ni 5.867604939618168 6.84099164219248 6.2179302397468525 -0.5629306958683725 0.10266414923014576 -0.5136382773911476
Ni 0.05072217257365416 3.441728078450274 11.606628069629679 0.14831331452782845 2.1787160520984608 -1.6102212318787494
Ni 7.185847957384389 7.404236890168739 3.819019503120728 -1.2642229943685002 0.8073528750063322 0.1517879033399902
Ni 3.5026139497023654 3.2150499983019727 6.661975696306046 -0.9283939840817689 1.3046142537013532 -0.6501872522941964
Ni 8.377706947297549 5.0352819281057055 7.849189985210242 1.0769379265631647 -0.5574763576220206 0.2642631251232868
Ni 3.794021472226825 7.259709354286645 9.121383316263273 1.3144662067947683 0.014208944510530367 -0.6008948338169716
Ni 9.350713923568037 5.098548034969568 4.815809386112885 0.798282794384264 -0.7115420012525939 -0.30111500384431367
Ni 7.093092861462623 4.756479466544754 3.77900468615318 -0.4251717598176226 -0.997301862797076 -0.34021274117672373
Ni 7.263099106169558 8.466257269025759 1.3904493636808368 0.026232451333967725 -2.5204046064897625 -0.38070118820907334
Ni 1.2910509097655922 2.619787339781376 5.274155705738758 -0.5982697374892987 0.15091141427230784 -0.3319895819359831
Ni 6.741179193989897 2.499108468102832 11.624277007302021 0.9948186913639059 -0.6894665095097933 0.7323460824821387
Ni 8.356822000587256 0.503252196619011 2.965454972637065 -0.8483262320949002 0.24200379950445414 1.4118475103594201
Ni 7.565416813716069 5.137085623999072 11.972187803835421 -1.1549421111527851 -0.4624183028739069 -0.7389530462756951
Ni 4.535877007257628 1.658033228368096 12.36553609418731 0.5075648175035582 0.3949893226969714 0.7898768297087558
Ni 8.998374221705655 0.9728310055443267 9.067257499380956 -0.13075319415687803 0.6098350737293949 -0.7294070544584729
Ni 6.968644511597344 1.3531407912493192 0.9361485184332592 0.3416641289112696 1.0389735315042492 -1.352651202504922
Ni 3.048674307524278 8.524318347042088 12.930087230184034 1.1421022790756394 -0.2152491571184293 -5.309661243025075
Ni 5.6198381571819125 5.477264822521935 8.027930861066833 0.705669601632217 1.1934549225160027 1.5714618517223646
Ni 4.6514249430259715 4.0338232638999525 0.1425955625411768 -0.9689091705869959 -0.5361462286856766 -0.12968027280767344
Ni 0.5245289097354439 5.8986961884458635 12.22157814776095 0.5540336504890587 1.0771065909305448 0.14239257816801928
Ni 2.2132671774953954 8.892532460727727 1.1805672262638511 0.30073473768675946 1.7385974411630187 3.418406608543236
Ni 8.879992231084385 5.814128362099219 10.01400130785261 0.1520208452864027 -0.7609557757990314 0.18355851088336778
Ni 5.327949030564799 6.093356858049827 10.811704394396966 0.5018209730412454 1.7280024392559916 -2.1785157631621965
Ni 5.77068211597151 5.88040449454217 1.5057509404325533 -0.2133308570497939 0.2483791069031787 1.0319842446706098
P 2.323378543987046 8.153603596721515 3.4389690426963955 0.43878086596062493 -0.8555487179852684 1.1318793157960507
P 3.9833381887257593 7.169334493976651 0.9458408007979251 1.9521375860101413 0.3714143635905087 0.4456120299498455
P 3.231656077881377 1.8140822160052248 4.772676182645402 0.42768347049588284 0.4208870163993396 0.348137138230123
P 8.0935790558659 6.365703972445779 6.055944555506045 -0.16613774430375902 1.6133968013932538 0.05505426066166647
P 2.1562248773673716 4.660779176364063 13.022670060026504 0.4597937207668662 -0.5969697877309526 -0.6010305880638874
P 5.437439868706299 4.263520631244509 11.679515144406029 -0.33681785656256186 -1.7031704678139763 0.6981398689140751
P 3.111745920427646 2.4805481873013124 8.952009640008805 0.3822173677432837 -0.5435309511855221 0.23726397082662365
P 6.862191483886432 1.10629090891254 7.875176230655803 0.345915705098772 0.7273622561143023 0.2179914957502568
