# total energy = -381176.18975384854 ev
CRYSTAL
PRIMVEC
9.14709664214889 0.00000000000000 0.00000000000000

0.00000000000000 9.14709664214889 0.00000000000000

0.00000000000000 0.00000000000000 13.38770053849057

PRIMCOORD
 96 1
Ni 6.35113084251047 2.861925208427355 6.708268242560317 2.7420041313062518 0.2760506046765181 0.19804179210120734
Ni 1.524939872002984 1.3441200715689747 3.7554236406498616 -0.7188303073838911 -0.23010370563275853 -1.6368090096696069
Ni 7.815965144468337 0.867211506762811 2.223549354912103 0.7953540507732431 0.05390240644541039 0.2555522276128502
Ni 0.6843034242345543 0.5494404652281325 0.7567557449183715 0.6812857734712138 1.038374721577986 1.3844277235855704
Ni 7.900877639785461 4.8008260723587854 12.57246987622499 -1.0680614500091412 -2.9569514409135462 0.03372258906342579
Ni 1.8877868895877818 2.00388183632536 12.191522584404114 -1.3256451062297232 0.8708578375385131 1.9366178931079874
Ni 8.348692035265419 8.390530853921081 9.02189088454414 -0.23326667674177246 0.5195091343496279 -0.3946905605096299
Ni 8.146696706806079 7.828267989044609 0.9052936129519507 -0.17623909440381905 -0.14308034826366325 0.1646519037868519
Ni 2.944569223852349 6.483736298140368 12.035542638788932 -0.23421875624239663 0.5793690439300538 1.7811219447887905
Ni 0.9839623003079124 2.918984795391507 9.60710747297429 -1.846851682886432 0.7367228713935956 -0.059856567146316264
Ni 8.296105378411154 4.380114523331983 7.556352256168152 0.4897864104742145 0.2685830926548794 0.2023090520179935
Ni 8.793231770255929 1.2615766742037127 10.829217170603105 -0.8934043553804613 0.6572482729060359 -0.27089502861750764
Ni 6.671315802769073 9.049926734823897 10.538114488445467 -0.27284546747565913 -0.30266177950614326 1.40381358431135
Ni 3.827026196083764 1.4558884417380946 2.498974828653924 -0.7254362427361829 -0.25736845488598253 0.03505159228749447
Ni 4.302309321870446 3.6788523824844863 6.828034833768464 -1.1655988195356828 1.0476003539413117 -0.07476845126114219
Ni 8.990818198279756 3.0554045901948665 2.8958398975243393 -0.3275927384198681 0.6472122288262724 0.3845527007446796
Ni 2.901248575589729 8.783325464920535 0.15088043940605725 1.2419901511122287 0.3850625505015627 -0.20391727704537782
Ni 2.586725667965113 2.1537295685547178 7.946805210504762 0.011013063281052001 -0.7591207794728216 -1.1474468312170045
Ni 5.976365158395648 3.0743848150987803 12.4175601408815 -1.1614058645002578 -0.21572146876915752 -0.06580481430995119
Ni 3.638440510857744 3.9831854247871936 9.118590328204004 0.43240478723095205 0.15798271929679245 -0.5080736388191767
Ni 3.9269399293972347 4.8562849174635705 3.4317490631378402 -0.662931182223426 -0.6162119237900162 -0.156124325931815
Ni 5.119648115262843 6.748453266197847 3.031845328863531 0.5806941904993806 0.8483385733900746 0.7258226795413242
Ni 0.401913351340039 6.21088756143731 5.757567528670767 -0.3918618328115832 -0.9419557819266037 0.0421339530555726
Ni 7.889754770636951 1.748650407171669 13.093197606044262 0.6700901618657105 -1.2413818281042688 -1.2410735528352304
P 1.290079026396771 3.9109142166108932 7.670603148283741 -0.6316902219312734 -0.6580820816612408 0.3118339329237146
Ni 4.231803503287618 6.289909326711967 5.387384539821902 -0.033702791569083894 -0.9678035962276428 0.30048636912137927
P 2.0780922289255783 9.116298065861391 11.58052124610329 0.4947895201157608 -0.453191127848684 -1.418551918962789
Ni 8.091100655256204 8.236841341229246 4.951762309052513 0.7572911824632507 1.0189112135367355 -1.4711083529032662
P 5.657122349059987 2.464456431198551 10.160461066016348 -0.7497645350689023 -0.4287507354181326 0.7736552256435708
P 0.6469988212342497 4.07178419992903 11.504399110368173 0.16458531221497463 -0.16224637966915284 -0.18353974183029034
P 0.12701840918589336 8.663123471926642 6.923395142524263 -0.38732049329780394 0.24934147081644797 -0.20309298137186957
Ni 5.532822456906114 3.912450928795885 4.790922511152295 -0.3868001020179596 0.008489525528249895 -0.2739273876859282
Ni 0.8538540019786253 3.4657524790693146 5.373581571445996 1.6643465529682435 0.690193874594121 0.4263076731942787
Ni 2.841545477783538 1.960552040966401 10.241362559588719 3.178670264916719 -1.2590427357191414 -0.20390750685336498
Ni 3.909816565050185 2.2342880460143655 0.2026950813292912 -1.8440864614364691 0.047259704317912155 -0.9610469942300998
Ni 1.428456299816727 1.2338243839104721 6.03153404054648 2.4066492324424615 -1.2745444308991662 -0.6232760297256491
Ni 8.544019130493455 6.029153051369376 10.693371813449849 0.9568887490873521 -1.3120591400151724 -1.2652714902376725
Ni 7.200475325993851 1.4995749738542838 8.748848229398691 0.3776767995604528 0.48098758123566193 1.037069629613317
Ni 3.4523885713176914 0.016601979855712608 4.507290262574911 0.8052152598380391 -0.3252409503582399 -1.60850244941543
Ni 6.250558518260575 4.117483093239851 8.75973327404238 -0.9925322093225747 -0.7512537180199191 -0.1487709708905373
Ni 4.984947974571259 1.6352081183724694 8.16067347001243 -1.2433258392045168 -0.14864627238721495 -0.08380356488021697
Ni 8.738257721257124 5.3164021575198 1.2261014904712553 -0.4406192047209444 1.1716020883069695 1.7950943478084826
Ni 3.2566864451397457 4.1176111525886006 11.34003768037735 -0.6862395179320633 -0.08933426489045905 0.44477719275337596
Ni 5.175308196487091 7.535798730693889 12.350835731925311 -1.9020861778797047 0.16765443805860158 -0.6332673366104062
Ni 0.579206031425639 6.7625946771383045 8.105837542168347 -0.23893184544734977 0.26598113625565806 -0.8124336319633492
Ni 3.647560165907961 6.272639608823489 1.3392922341211262 0.3963193543623046 0.539650128073877 -0.039356390310435446
Ni 7.1959749545949485 3.2782187099223066 1.1242924787962953 0.39140109112508076 1.3279123049973454 1.1631791543505967
Ni 5.710477362006748 5.051429070764823 10.997874991744466 0.516810247361226 0.695798365265092 -1.2073373369250495
Ni 6.7504015977181036 6.290384975721606 4.698774662630836 -0.6299369866855925 0.47393298838172576 0.9091737023995761
Ni 1.5037917852666713 5.322192269502535 9.58860564120892 -0.6542933040427699 -2.167343805705777 0.3818113905541166
Ni 3.2290256258098977 7.702321619549674 7.212222027112698 0.24117641850715238 1.3036212936604645 0.4647729191490124
Ni 6.320707600086172 5.921967376466214 0.8845919045169925 -0.6757699858593071 -0.31787345424957514 -0.07140441988491573
Ni 6.793036213755281 4.749520008992013 2.99763976210296 0.25818015215400053 -0.7194558567830319 -1.179231322717453
Ni 4.741223592612326 6.0078769052843155 8.097831088742614 0.8753415843414795 -0.014189918347136853 -1.1365900910081586
Ni 5.83849097527435 0.06175021796691167 3.36167864634076 0.2591232327935602 -1.2283869585064973 -1.085388114213047
Ni 7.1874864491921375 6.786294803753264 12.190344438395618 0.7310168221477539 2.34132392887209 0.2671638437098496
P 6.781949932992127 2.4059424559164606 3.4897453127671296 0.40188116472079816 0.46076534065151614 -0.4424773409756057
Ni 5.365979419678458 8.229944430589462 5.6774426235775985 0.5408654885382169 0.5411508809891197 0.3443205926975102
P 5.438287216240115 7.12248718260553 10.055796330864279 -0.26282742111802476 1.0499791385861337 -0.04446105852685246
Ni 3.3779677955016707 6.427390184690677 9.898008919012465 0.800902234284982 0.8180820884983782 -0.866842802841849
P 1.6749705461591264 2.404058154070578 1.7764411152695347 1.0812226699814473 -0.21620457905316312 -0.07708630076104143
P 2.582700945575849 8.571103682753932 2.433093781980214 0.7339406806627683 1.4494802331105294 -0.7638755205489876
P 2.351133054651761 5.194050596886185 4.937771825201651 -0.5219691658543462 -1.1435881195925466 -1.155533464879881
Ni 1.4666728683220536 7.150541327077965 1.0505220615299942 -0.4914365444831279 -0.1412576932326277 0.6055588149515442
Ni 7.606944846020465 3.3365131548922546 10.641293735152045 1.114752683418093 0.28081794415817446 -0.3615086744410226
Ni 5.79469467800209 1.34824541201797 1.039311380256627 0.40171712833910816 -0.6450944111523212 -0.21511288865088116
Ni 7.055420672246254 0.646170094305915 6.488134222060273 0.8313854904755038 -1.306765495716401 1.5641424352428157
Ni 9.137940095800023 8.699803328246976 12.22768288565238 -0.3964147422895883 -1.5598021559962492 -0.1357007679701405
Ni 1.6482701719448976 8.110510793688062 5.334797882967637 -1.1432734165656053 -0.02975177734113586 0.8242853890956128
Ni 5.043297302119243 8.214842574533384 1.1978836129743475 0.5712816389362291 0.8269899325109693 0.21210161262838312
Ni 3.2703430599742247 2.521351370428596 4.873685438829699 0.22465296693083245 0.7615124196334498 0.2808835072887872
Ni 9.109401155221606 1.8797465919055936 7.437335726859822 -1.1491077638591953 0.7818472745360598 1.5247317946556775
Ni 1.061401617915881 7.477540874109298 10.366230486425257 1.372547684318533 0.6906186208363654 0.7983658410163734
Ni 3.7887273037113847 8.91239099426715 9.339553990342015 -0.39134478396584865 -0.20301327717386972 0.572423465850156
Ni 1.7933705611741921 4.626409239362241 2.3453511750557303 -0.9151826275978173 -0.38192631886542605 0.3403729209036719
Ni 4.95981175383104 3.6397302514415757 1.6662597663152725 -0.022278351782226147 0.6921504840998596 -0.051767876600910846
Ni 8.446373877072116 1.6652746240395366 5.023024592502595 -0.4918551200777852 0.5548823716425991 -1.4797107498602966
Ni 0.721068348550844 6.020582222099513 12.695408680443585 0.15860595470308816 -0.13928694265950206 -1.2803468965135563
Ni 0.48133027117655025 8.269011679054337 3.021001446153367 -1.1929769544383195 0.7639518823128779 -0.28345975265639567
Ni 7.355262490246396 7.225922548009605 6.789772529781442 0.42607575968913075 -0.5588138454865215 1.7030527112891898
Ni 1.1652028671735266 0.4400228988181963 9.406064357243867 1.424189576864541 0.16632132106947484 -1.2130253884487625
Ni 0.435526186257828 3.4557272614815124 0.3391368291638651 0.8941561459448213 -0.9166350437736277 -0.44389453303810644
Ni 7.901042287519568 4.292119456548537 5.137168463591014 -0.3535212853601718 -0.7250418355112417 -0.030930113919953182
Ni 4.642800836002151 0.7818471448865288 11.628382512988708 -0.3245318401063572 0.6934311505844961 0.10097699133570998
Ni 5.485815528818782 1.4528150173681114 5.038675274339027 -0.838946076431581 0.9949534171695575 0.18213309129075086
Ni 5.971819051515048 8.466241370320935 8.301766516335507 -0.7938604969468521 -0.1969812120471769 -0.18126791507697815
Ni 2.8384812005098943 4.5056492734916525 0.28200406542899953 -1.2544427750532847 -1.6929966126047682 -0.3457922921470303
Ni 2.1643402003082306 6.764277742864724 3.449273985014182 1.0044582713361991 -1.2156150035528097 0.2502542124387045
P 6.800161801803545 9.006130437551638 12.93768599176165 -0.6722614584854164 0.21331517332051003 -0.2330414481048438
Ni 8.944744274019028 5.8677068009818685 3.512129172218873 0.5638133555836419 0.13416016295589797 -0.11936012182858798
P 6.2493145131584384 5.3338273760460435 6.600176090409936 -0.36311844213030364 -1.2427270292782533 0.518183730669985
Ni 2.444378554733929 5.496352983801582 6.982394828621967 0.6923970528930269 0.14696322825783723 1.1142063239963198
P 7.3359529698742705 7.2016278601325965 2.786408610469894 -0.30771425432838617 0.4319648714800561 -0.13154303704802509
P 3.8457137139048223 0.6357451486080883 6.464612463823928 -0.41312922683079173 0.4279734909324759 1.4347285287226517
P 4.669812211491914 5.080343042293147 12.785052968696995 0.08286356956445083 0.3772119441088923 1.773804585191771
Ni 7.140177666925611 6.257903636620981 9.016548980282026 -0.44033072694624814 0.12950620912365438 -0.7416635032283226
