# total energy = -340864.4606026219 ev
CRYSTAL
PRIMVEC
9.24998389886651 0.00000000000000 0.00000000000000
0.00000000000000 9.24998389886651 0.00000000000000
0.00000000000000 0.00000000000000 13.53828643869021
PRIMCOORD
 96 1
Ni 0.5177835645209817 1.2798277495301267 1.6930300729484589 1.0839580666347395 -0.13118179705386437 0.07437918624252352
Ni 8.514415778113193 4.026009170600173 5.489192872714218 -1.3198372412986947 -1.685009994854866 2.441600808816982
Ni 2.2267208344979674 3.0470833919591405 11.008318692793857 1.3306248188325018 -0.9987568500760475 -0.29538967132476224
Ni 3.2771582373918 9.031036619678726 7.769053938769541 1.3880624921246805 -1.3226256026771093 1.955084327343291
Ni 9.095721755935331 7.635796823091015 12.196953627678907 -0.5098561846408961 0.9511312777782845 -0.40860819903198664
Ni 2.946573068698123 4.2353733024508875 13.207166551304118 -1.801105586999569 1.8982673183542471 1.6322219045195567
Ni 6.077979312382593 8.371337029705185 4.188813509322383 -2.97679392956077 0.3356642025740929 -0.40544214259917916
Ni 0.2740788680552729 6.032469392407974 8.300539504196701 0.43575442042947526 0.23275297033014755 0.44273239440920525
Ni 6.456423896919497 2.797444830927635 6.793119604868303 0.3757955233773399 -0.7550175559377256 -0.2594032259278242
Ni 0.15372732968337005 2.9330218425268186 10.220282053490266 -1.188434843593592 -0.6417059542960627 -2.417318282120534
Ni 0.2659435073606231 7.920270822867319 2.250523817642416 1.757803067557192 0.4396025905309719 -1.7959692942142684
Ni 3.7864253418882634 6.860712936011094 4.654963664636389 0.40281421805802886 0.8400850751320306 -0.22289587503040967
Ni 2.5458360233606436 1.8126360626313467 7.548204102115476 -0.6398177361344142 2.1186892779228677 0.5664045133495859
Ni 3.6237828778814105 6.526760773237993 0.7159746410185781 -2.2244490353592012 -2.128480038761044 1.2748671043459077
Ni 2.3756918225449657 7.01818465911026 9.03239266729423 1.3756049830876178 -1.1087442724404841 -1.0349862647217272
Ni 8.466695112025986 2.628845377395649 12.301373919064574 -0.19182512176753416 0.0985915218226689 -0.13530276120077345
Ni 2.748586416841063 8.401371726891686 1.5786049991553646 -0.6031255229197032 1.909540577275221 0.6325664538886396
Ni 6.595904401654716 8.012021411531595 11.770294427923364 0.2117686547689966 -0.5091835840539037 -0.3583408182360022
Ni 6.918802833864874 0.7909050592597153 12.44517786619738 -1.479695066131013 2.627891116809216 0.7510002072482163
Ni 1.9769065237755032 4.3069681765573 8.80034665032771 0.6716238249014176 0.2547004211355162 0.13443835631794912
Ni 3.0369731597371366 0.2509058088031561 12.974659885147611 2.026599304664142 0.024495156927886844 -0.32214251393857424
Ni 6.2134915740956345 3.9658472763898236 11.382828334250028 -0.5477133646979858 -1.0283926706646096 -0.2906917516284606
Ni 1.2568137899982461 5.9098978579397485 10.809373742621883 -0.3146922283081161 0.004739057346882161 -0.39989730152154995
Ni 7.7500803721329685 1.8234862935521248 4.25108994981448 -0.9011174077540028 -1.2037511622356882 1.1557820905555773
P 1.9446240805414752 3.26968425053418 1.7585689827037772 -0.5323366251315993 0.01582565417834694 0.20635211173911558
P 7.330547359846622 7.289699431674282 2.1580027053330406 -0.49509599561258605 -0.09837580626743703 -1.927729332369106
P 2.186020906065382 3.784667844978675 6.292405960331297 0.041247436685561224 -0.09632226617251798 0.4834126457373869
P 7.640227565299925 1.6329181286502767 2.0605402517125997 -0.011410041609154544 0.5958305319201868 -0.5216436641941274
P 0.8002475428317408 4.192860377206305 11.911593479460821 -0.5995750865642835 0.8225038717151576 2.326463981041122
P 5.148892446104008 4.885693408917464 1.7547246894636446 -0.943846056970781 0.8490487120832216 0.24600237914088605
P 0.9372823518675099 9.094602507903437 0.0028804449349789057 0.13186391072255355 -0.9142171783607546 1.8170525972471288
P 8.168013137233215 7.2639567269406715 10.13458465418196 -1.1596582856815318 -0.4049533758882187 0.2004581148521838
Ni 7.456254638800903 8.840792204207592 5.7947383354381214 0.7629103284222409 1.0403393015035245 2.8579984219864003
Ni 8.924643306762453 3.4435654447786677 0.8881344132900422 -0.4032700746485249 -0.8936920618242092 0.25598622982647523
Ni 6.326406125544855 7.951138018589941 8.074423651802485 2.8535936080504856 -0.521433090845218 -3.409779786106173
Ni 5.1863456302457225 6.835682480025054 2.632276196362841 0.29933734311860066 0.032421353753499006 -0.6069297271571419
Ni 3.4040032643454476 6.174262393076862 6.9577859653163046 -0.2627675144143668 0.8765194066996647 0.5899275361721905
Ni 1.5189490790553022 7.522012773170734 4.449804575391459 -0.7106025201574601 2.5483956923860496 -0.8678316491176795
Ni 7.996259439247703 6.481380353035659 6.597504648840815 -0.5351080172291495 -0.15377253787018677 -1.0444690074011818
Ni 6.985060467356377 0.9486875818123686 8.750714937600918 -1.7064414252557643 0.5031330069844496 -1.8568453037640347
Ni 5.016710178535452 0.5795355309353224 10.999992782434273 0.20802744255900946 0.8172009714450056 -0.4961190375604617
Ni 5.449341167790102 3.1705706748170988 0.6365579806661218 0.7244504817841458 -0.6087482684231192 -0.006467095781582411
Ni 2.8563672273175373 -0.4141226967999329 10.462252378005722 1.7965480495358734 1.134573317688446 -0.8954054449708901
Ni 3.9869742392398293 4.650540322414466 5.2059047208527 0.956100705968418 -0.5372163218214038 1.226944569633016
Ni 1.0351934296990826 5.884460402669383 5.740301256161164 1.7602319887136586 -1.8104096380093142 3.1914910708304713
Ni 8.160529900391861 5.064347594769046 10.04401436344223 -0.12385672414736087 -0.5037752685541388 0.1647562905752001
Ni 5.689720495103195 0.4698843737476957 2.173734152670608 1.2540619946750984 0.15567926797459639 1.0143945566133048
Ni 7.3276428649539325 6.448246911298041 13.407614623832975 1.9207593288091758 0.20486190034683427 0.9006150141962876
Ni 5.835213489265954 5.3252433860056545 7.136058126839643 0.5994475598474837 1.3993326657218612 -0.9020183223017174
Ni 2.2673005131420023 4.529023286091993 3.7373523281790466 -1.4169490932520437 1.0655553957578359 -0.840707796317694
Ni -0.031948518821206306 3.3901375387271644 3.3281173227845176 1.5170313406876261 0.476264978949012 -0.9352943107460279
Ni 7.096032522221316 4.42810596354665 2.8198760414842305 -0.5892191972512562 -0.5995797145499738 -0.41009326821794534
Ni 3.9789637533255977 4.906931371572286 11.190273272841972 -1.0197313954451859 0.8480714357716168 -0.5252506648190954
Ni 6.02235916018597 3.9049176335294957 8.927606076552669 3.0805402561115014 0.02898995947444685 1.3884005921903897
Ni 5.278086968926264 5.7548311306115965 13.096098296608337 -0.4409405926161051 -1.484907720680204 -1.1289593139357783
Ni 8.563320442118439 8.367738786032396 8.232658498559763 0.6288586660197493 0.3366605050490912 -0.9535622558172804
P 4.833505000686407 1.7528904176890578 8.245710225609395 -0.33170058994065454 -0.32206975171910984 -0.7863737016515038
P 3.947486058676487 0.3024023182508586 3.5886209147107766 0.25965108027257217 0.26542192131807835 -0.5648842200503175
P 0.2391463044812593 0.6047389616172011 3.7473978105149075 0.8504844160884837 -1.3419703257523081 0.11945782374871686
P 4.525767291817386 5.670822778333247 9.048408089132451 -1.219734167927506 -0.20010947326351342 -0.5553775661114628
P 6.3191171383619285 3.433418212621725 4.663641999376265 -1.8403619613970306 0.5243795750680518 0.3251836147577432
P 4.315200662081164 7.812989511512517 11.637794885912708 2.4561596804677635 -0.6742607483036323 0.530922261282576
P 1.8653887198702186 7.996712688450703 6.739602898972946 -1.1186039388433833 -2.00394942847511 -0.8170999270907668
P 5.428167955021423 7.298856915571613 6.192113936686419 0.2318137463453298 -0.6751040701405341 -0.7656403257588943
Ni 5.916715095952207 6.188655367768022 10.638439593195265 0.5763713947543105 -0.5602428646235642 -0.4344107619173873
Ni 0.34256389763008604 3.000648473611054 7.6951622937018085 -0.7224370508985429 -0.40633560094772603 -0.5062327289556959
Ni 0.7988988952032247 8.27784744409879 10.043066240109425 -1.0042752087911155 -1.7038808636174398 -1.5702336357422184
Ni 6.284929198478556 5.715046950568744 4.645797855753696 0.18202073408260264 0.5271656224536212 0.6258306778267028
Ni 4.889069652980623 7.883381887733421 9.393892206627577 -4.024224076472805 0.4384324814822707 2.6845633726902802
Ni 2.846423494802758 0.3757667142457148 5.416154076146824 -0.6146669479003994 -1.6986401840437906 0.15368229214922566
Ni 4.133234982052567 3.881653924436779 7.675436703387606 -1.8397839774063733 -0.8582784582116056 -0.8623950514831407
Ni 2.4243929869080487 7.396962243061614 12.346619289504382 -0.3496893132085913 -0.4375518786495303 -0.5483576831502041
Ni 2.3051514465843073 2.106609795703166 3.716584264697946 0.24767153931319283 -0.6078087873279855 -0.9872830451084933
Ni 3.961610783839341 2.529787301580976 12.428024696359792 2.2489652753330107 -1.9072121862523606 -1.1239351212483095
Ni 8.17221262984876 7.741505637210921 4.014209891348217 1.8187667517247583 -1.6230430662337658 1.4134917308310624
Ni 5.1104587636864185 0.1610986417215354 6.413614047197031 1.0027528586093182 0.6913053624907449 0.23976076910654837
Ni 4.364188575940021 3.4267674743164913 3.2911978627042955 1.7151901179826718 0.7528048645571228 0.16296963098842257
Ni 1.7764408762775494 2.0656601177097444 13.23621982521637 -1.598593160721518 1.983194969536578 1.1419163883170784
Ni 4.20149061203076 2.202300877438416 5.5720745769736855 0.5469014103196517 1.316351082522307 -0.22966584676439158
Ni 4.261005007379682 3.013561450904665 9.970189318257386 -0.4983039610269225 -1.804288355602925 -0.13292629054879687
Ni 5.106425770778099 8.187123603629061 0.5045218628405731 1.2899193706933398 -0.6075861297942182 -1.3691581990210098
Ni 1.1010348139225246 0.5656559303414372 11.563754316106849 -0.24709432665348413 1.9931726495745798 1.803892919936719
Ni 1.0165732124411746 6.140222452933245 -0.09116321469712461 -0.3692582364794544 -2.1185057011571518 0.937987798417791
Ni 0.9498345797954687 1.7787996221298925 5.455171432538071 -1.8956681901685033 0.851928861844494 1.596531907317115
Ni 8.050353344128103 9.086425522281981 0.5782664331669245 -0.5138200543846506 -0.9509944950901041 1.1138561397457527
Ni 3.7704043700598 1.847823000758064 1.852904016823523 -1.6389376259768353 -1.1482662417945062 -1.321325395808447
Ni 8.269004459648436 0.5072968579609767 10.57046331272586 0.5062874934530313 -1.3591920889472333 0.3467628835904157
Ni 8.81708449589561 5.519271044824272 1.5830449913480102 -0.24725887725580642 1.964318958567682 1.585684937300282
P 2.56391974156194 6.636299080624057 2.763868314969125 0.15147268609241654 -0.8260789906609257 -0.23777227792160985
P 7.069781068382299 4.173842410647806 13.217672682829965 1.9641397526773396 0.9733170698467043 1.7737716750713066
P 8.211839560168123 1.2696620174057147 6.862475982910922 0.6657923058213049 0.43102950414998026 0.41596412517642556
P 4.930759329672818 0.9992202429549175 0.21480127228995877 0.7804763623304622 0.9095323712905755 -1.7050597144168893
P 1.400530787283947 1.0905915822860726 9.544221092286826 0.4084197371702643 1.4782789025097767 -2.013149349806823
P -0.35006285944379 5.568998957381905 4.30916874768778 -1.1744174462685775 1.8020157575186642 -3.435956701611856
P 7.191686604021627 2.2604370252108708 10.441918138761777 -0.7180628330902472 1.2364946752152963 0.3196176906341915
P 7.901909605153982 4.5293932854413805 7.726070189352862 0.11748681606527507 0.3491190425274181 0.4195497856451549
