# total energy = -381172.605446964 ev
CRYSTAL
PRIMVEC
9.19357613430193 0.00000000000000 0.00000000000000
0.00000000000000 9.19357613430193 0.00000000000000
0.00000000000000 0.00000000000000 13.45572797346360
PRIMCOORD
 96 1
Ni 8.220877352663637 0.15754020052327203 9.055247705586446 0.8191205570652216 -0.8171107257240443 -1.378558152178671
Ni 0.8207353602235019 3.4161122292751083 1.859689442522902 -1.0715123846722192 -0.5869908221413697 0.33649646866740107
Ni 6.615715741627087 3.8176968264691302 6.116112913590277 -0.8632980229133842 -1.262531208488374 -2.269118096131802
Ni 7.938469082326282 1.8379981190957924 5.492655147824521 0.22603004978401717 0.2316826200841042 0.2674538641464426
Ni 4.546103860092042 1.7105659609101662 2.602405357972529 0.17846232730738296 0.2520110472288111 -1.0840010040575332
Ni 7.984124381189988 4.475552357176199 9.963441555155585 0.629296010667484 0.3346334473167334 -0.48994324776705306
Ni 0.6328214230135788 6.837538345530326 12.53524885318486 2.3130495074074293 0.16493112559016757 1.2905012113387389
Ni 8.73233437771109 4.712480006595561 0.2875410438684874 -0.7495488195136705 -0.07584445793414035 -1.3268697226654438
Ni 3.6222965602489947 8.886124518547188 1.6171224535298396 0.09063241487659231 1.2298296044902948 -0.8726894914306131
Ni 7.332033222691446 1.7861095756429626 10.308903967107259 0.14705630219227578 0.28591489906510753 1.3927514129599174
Ni 8.832912100137376 1.1128731921370665 1.4431404615269359 0.9664727932313615 0.47204502733039344 -0.8744823216649777
Ni 2.5506565568762696 2.6743745103214733 7.840760674997733 -1.0746671282511169 -0.546498261343962 -0.9586707806884393
Ni 1.6881060545219198 3.9593698340184056 5.773422364829782 3.4087667714606265 -0.11136553365888562 1.3416211699430056
Ni 0.3111823247843187 5.643017004136601 2.179451212514553 -0.6376844918414953 1.9258218309337478 0.679166927355998
Ni 5.024675463465014 2.31864747066514 11.846570939277944 0.7416470481680905 0.7062601840283643 -0.8333323297892293
Ni 7.249107166358256 7.623855714945117 10.555251354588593 -0.19846808100534852 -0.08026135605491339 -1.5158211224296088
Ni 6.792351919047218 0.21611431250886198 6.828781464304454 -0.5901558501329126 0.6375875612523149 1.0140240606477633
Ni 5.363311645169752 5.630320675556098 6.585690441474253 -1.8511492818205215 0.18722490399136144 0.010254330738156531
Ni 3.378243889359763 6.419828215874173 7.89113871389895 -0.4172712740236233 1.837550202979848 -0.5238265307780592
Ni 3.623693983814698 3.7341180262335394 2.1251576295565386 1.473752732504649 -0.31161230383121175 -0.5159736103925437
Ni 5.5924431420646625 6.019926043104649 9.619499760689218 0.8838143976991811 -1.6678535376802373 -0.16676715035764184
Ni 3.1660469596229164 5.927971895050928 12.478263391147651 -0.5487351210942808 1.0402930216466213 -0.33585934930403455
Ni 3.066912628642784 1.1661499655795096 11.651543932247067 -1.4384658842778968 -0.39655846695630415 -0.7795890746295026
Ni 2.198570173351637 4.811770628369225 0.8241038865029344 -0.49240867858841003 0.9736811380543425 -1.2826722022126233
P 7.112665303604278 4.782957960902682 7.92924516743503 -0.4436582486575843 0.45671302495901345 1.058123364959823
Ni 5.50754046687209 6.6488310027038215 12.056547620389017 -0.5267853562960669 -1.149071254194305 -0.709218752436056
P 4.565640209283619 7.078428426244543 0.8669919189635034 0.2742400338303406 -1.0188471930680194 -0.6175895208638331
Ni 3.790998681503323 4.372906080129629 8.672202873935827 0.6783243768500447 -0.2513096502864124 0.8616550879933225
P 1.668569705330342 6.832923170333069 4.098951303007171 -0.8809530169909862 0.636420280417091 -0.5368810499691721
P 8.658399638794071 8.790860683101013 12.952901063311646 -0.4873104381298962 0.1877344966379283 0.2844601688964521
P 0.44558597171910885 1.7679246821366377 7.212351249149819 -0.290232552603855 0.054182399579674426 -0.5742504917565658
Ni 0.8403976614075146 2.6779048435400927 13.13622188990693 0.9639659676491076 -1.4337152569667888 0.7943844877711222
Ni 8.922246079005404 3.9478043152969913 6.76936154331857 -0.991105504178377 -1.2636154426914883 2.371666802830006
Ni 0.8966384437814234 0.5871992210237978 5.135835911328677 0.6295068411267094 2.688019192449364 -0.24201614079962835
Ni 5.985827069386267 6.662685721871684 3.3599762536686275 0.40183617041547576 -0.06681834317613009 2.722895692611575
Ni 2.9084245704246174 9.283213457033124 3.9775666791736475 -0.12374385271858043 -0.9812021290217359 -2.02451208311781
Ni 8.165881380492333 7.843867184358596 1.5071626867035515 -0.34258124140890034 0.10422275196651727 -0.5884450380893931
Ni 7.030612636999653 1.673865205158271 12.893547336073611 1.455010161789823 -1.0965726700749567 0.18212949174632503
Ni 0.4370580105378819 3.0523683912681605 4.191298016759942 -1.2406642332119535 -1.0085290989714633 -0.9038096098741853
Ni 3.069771830806822 3.359654478505472 12.51805226910823 -0.5345755417644471 1.5271319194567377 -0.5809199333569415
Ni 7.6619355071105355 6.805507926432228 12.582841238530763 -0.14306929252006972 -1.0954313573816616 1.0886809260317056
Ni 2.152464389259514 8.254029388044732 6.472407196891373 -0.3944936140074754 -0.3436654756120146 0.25313101976586727
Ni 8.73766665184338 8.232350935624147 5.737481917820543 -0.6912138312182031 -0.12333581864688437 2.347001695983158
Ni 2.5050840001973755 6.180050557866863 10.124157216860397 0.12090072684283047 -0.27820133247093376 0.28478515633603857
Ni 5.161301197740794 1.7007564152219716 4.747530515439274 1.1824894246434345 0.3046600408830947 0.8912271452234846
Ni 2.2421109497146072 7.242680856671237 0.7796851236233547 -0.2465068295811303 -0.7022199525207198 0.7673922754529946
Ni 2.9928399860844124 1.8323900376807984 0.6951805302754851 -0.12912002942882925 -0.22594803159317217 0.9108174086505861
Ni 0.8509307415340042 8.615015153224634 2.6060781916205453 1.4388152971975154 -0.22522169495010888 1.0256156221401045
Ni 4.827914547983537 1.961504620290923 7.066289228375104 0.7984856544236895 1.9308894752646426 -0.05260528490054166
Ni 6.74060127923574 3.3571722129611303 1.6359610102961746 -0.20612611177123855 0.3739412437774205 -2.3456834913923665
Ni 1.6913605804578342 0.8475962314861052 9.148858536051613 -0.04986988824724959 -1.029769753517794 0.0009073423056177923
Ni 2.133939333437854 4.795461224385292 3.3174559642516646 -0.1342709775021494 0.7852830396904863 1.5869751168666155
Ni -0.004679530229888449 6.3518049463831225 10.456513266737948 0.919278652044062 0.8723241376713945 -1.3886880415238214
Ni 6.814444082391859 5.83804952731313 1.6145795103833032 0.5001831803275063 -0.12488002320555266 -2.9286916747369043
Ni 0.03451728143048365 5.228818820546887 5.031554097095667 1.5616410089772008 0.42919810736819636 -3.7603090787175555
Ni 2.8378270996283237 2.5001930177174136 4.229901842762499 0.16787246760667862 0.16587523467099174 0.1835878214594064
P 3.3922824800494285 0.7191610541490431 5.8586909443507444 -0.37740246285314355 2.1006041382863825 0.620210503426448
Ni 5.937073535380181 3.409198660055312 9.733214183990725 -1.0893080180927435 1.4797498306283483 -1.1416461653748273
P 8.452481921526799 2.995901446922434 11.914172223626455 -0.7387100770269536 1.2018341477186334 -1.60069760865903
Ni 3.129189913077488 5.942764358979986 5.411059401951576 0.47816965217089263 0.04345858540426709 -0.017980238627504516
P 2.2504771039566474 3.14183108020145 10.249295577811528 0.8996346525608894 -0.022904415401999265 -0.30487267111453303
P 6.84019528902038 2.607537212146053 3.49948509340628 0.037372012890554994 -1.4690437570647539 2.651426480926995
P 5.867441390073353 0.44303935114213616 9.098009786054579 0.4453094111077621 -0.5520968384776621 -1.1458553183601685
Ni 8.457547581952474 7.099509296219268 3.88359178309531 -0.313466326320815 -0.11162855751228518 -1.9676611355670373
Ni 3.7871925410019993 9.325044228243327 7.837006018522514 0.08729332320103031 -1.6049026478793136 1.7437563596561387
Ni 1.2247406260020617 4.940397951446572 8.546176413534386 0.22455757900354872 -0.39508805305836475 0.6105464979741226
Ni 4.836207153616855 4.373990922108266 4.080355456649616 0.2242323344536461 -0.15950969746428012 0.7572623861078442
Ni 1.9001742741935048 8.302654211985557 10.949410300374598 -0.10263612420568777 -0.11129122877752445 -0.18624248547343408
Ni 4.912881578208741 4.836648445269182 0.2811174922542967 0.08691382837442452 -0.23437533642491895 0.1283096177123919
Ni 5.657358982837241 7.467656857173399 7.8626524183836075 0.3094500060725703 1.7226036368379234 0.3208716176459506
Ni 1.533506878989888 0.16979799552427455 13.399066230324435 -0.10745360019898913 -0.47116082495322725 -0.3644451313615272
Ni 7.150607192128344 2.4176806723082804 7.873928339458182 1.1528093810804985 -0.6133757398928017 0.9751947464853914
Ni 7.817794202566919 0.3816657952370943 3.6067134487761834 0.42707720437045155 -0.7094702063252297 1.0456673985846572
Ni 0.28754196322609643 2.806716038139242 9.19100188884888 -0.23286789864145702 -0.3991858772768222 0.22971598327603662
Ni 8.13216853696974 6.809599067792347 8.226603111852583 0.6537163484933773 0.26187071363171033 0.5437296974598893
Ni 4.26324510452627 1.8435602326303357 9.522578323473986 -1.0858763667033748 0.03824413108286316 0.33537803879224176
Ni 4.426274789332973 8.085428396127396 5.609208547422667 0.9585653654588265 -1.428375075700798 -0.030457030938276577
Ni 6.2304773227213595 8.407359850076322 0.07204270095766574 -0.28407244653973013 0.0816723774698271 0.3756039761918241
Ni 4.331525794147844 7.87275340043386 9.974112538923427 -0.5820036533394235 0.6898696584854829 -0.017225619849667105
Ni 4.043261215841062 8.34047658402045 12.407620871828517 -2.0662092057462798 0.27238549712010507 1.085040501065641
Ni 0.19824567802003842 0.8642549913614646 11.218013496854978 -0.18726295631814846 0.090449866552141 0.6164204402563964
Ni 4.360402816647018 4.610992120136349 11.0670807194677 0.11226259155185828 -0.2123795488801181 -0.5694746676344773
Ni 5.791851807460105 0.05944014685328246 11.265686785670473 0.02514256070389863 0.9394520416681434 0.024757923670970263
Ni 1.0402991024813897 6.336929740269253 6.719776910033932 -0.6123334146712164 0.03864779427918505 0.7565800153288389
Ni 1.0727983939600845 4.556354697432563 11.738467355464257 0.03805978298619897 0.06370576568907738 -0.9762422139132995
Ni 3.8268352411027435 7.110339328853469 3.0478975552155183 -2.294449632918055 -1.8669520531807333 0.2564801387437583
Ni 6.670077357048169 4.328381591125011 11.867508389465659 -0.007184947784213433 0.1672507748622797 1.3511710184149697
Ni 7.450685515710974 4.719816480315504 3.48121194156949 0.45537527998419636 -0.6469240081618923 1.0925391234355313
P 5.219496534391471 2.161878611175832 0.4888022148460964 -0.665120476565261 0.3905102038796952 1.1492828559844788
Ni 7.574357501275728 6.112928258832648 6.017805085100651 -1.5576370300241305 0.6690650630353058 0.41932969921454877
P 1.5815433140609434 1.6380470327110304 2.5662359909186447 0.6771478400434402 -1.9993199001228987 0.7419856624544319
Ni 6.63855258463503 0.7459869898225038 1.7602517235317952 -1.6528480654103406 0.8575742330557296 -0.9101370947541099
P 1.0685141875020727 7.910842386175369 8.654845402277617 -0.19940653365921787 -0.7546043796597068 0.36370696764392196
P 6.569214633763087 8.0164214139947 5.291827913638367 0.2542731037901105 -0.9101849172729098 -1.5544303501613745
P 3.9429684942735705 3.912225175828095 6.289476177922314 0.013312657948506106 0.25416460323670426 -0.01665277806533261
Ni 5.28450431092495 8.81821157196922 3.349521318938904 1.414568765945325 0.7885799652742032 1.123141935923053
