# total energy = -340896.6620549595 ev
CRYSTAL
PRIMVEC
9.04384272065724 0.00000000000000 0.00000000000000
0.00000000000000 9.04384272065724 0.00000000000000
0.00000000000000 0.00000000000000 13.23657798731983
PRIMCOORD
 96 1
Ni 6.263955411539511 2.090493296236714 11.443154339124913 1.5163538550046272 -0.07556009392450212 0.5027805087410373
Ni 4.6739031540491505 0.24329203143997796 6.03812975360872 -0.07671580479550014 0.3686198315645071 -0.30583914879286034
Ni 2.773050196503541 1.4948929440415637 4.965172771294666 -0.30927208573380927 -0.4063942220998033 -1.0506764217634745
Ni 3.4158503640274573 4.422782772322034 4.9076864892184515 0.3804096251105835 -1.4398036292527139 0.5070385126864428
Ni 5.0390573490509185 4.364648951104693 2.8790087625838914 0.5789867208899706 0.36185088827178974 -0.5723159937380143
Ni 7.258217396136904 5.935492086587332 2.7258485724062256 0.01600228896552728 0.10048411085969146 -0.29581081802258086
Ni 5.398830457614553 4.569763304746462 11.670796905064817 -1.1306274456668206 -0.08980014878328405 -0.21354168750901936
Ni 5.6802296248792645 8.082681233043633 12.347979953967714 -1.6445973953657742 -0.33543974526811265 0.7926104265898349
Ni 2.003364915152728 6.494781410128526 0.2382437584151616 -0.8369632416735974 0.05311873420185046 0.3087498946817521
Ni 2.6040479069751576 1.4690818168240323 0.4207249911828619 0.7774499167993126 -0.18956589341971222 -0.4425845559774314
Ni 0.5765920034965497 -0.04558368062877475 4.733770679922273 0.20455285374684773 -0.2804888429535298 -0.2843609243144264
Ni 8.62580016574217 2.472794617098482 1.317886853676629 0.38281566344891493 0.04049564612120123 0.7393600519061266
Ni 6.839351819024092 0.7024189877213267 4.7327650046081216 -0.3613369247498487 -0.13321451121317704 -0.14890569669618872
Ni 0.9617041506860007 7.438081340811838 2.6386324660475338 -0.6265660133308305 0.2516539209997085 -0.10927754078160534
Ni 7.581706607574842 3.670118003032676 3.7661636130712823 0.4677556559264202 0.49896473453937285 0.5095571653432386
Ni 7.733851174211328 4.1396381434059615 12.512974012387895 0.26836454888617 -1.4812675528244552 0.24872672005058458
Ni 8.079199353583666 -0.2245161095001333 6.8192600179636615 -1.040746821354588 -0.07050453377846568 -0.5208846745409158
Ni 7.000187518546369 0.577850002023515 0.49261359284349066 0.1510559102699721 0.43318306015787333 -0.5483723384382233
Ni 1.8532913885067173 6.522039552186564 9.304427516332748 0.09618136971927951 0.20865299195815035 -1.049514026024257
Ni 0.3145068668154961 4.901699465315856 1.2408342178039433 -0.5470657038116579 -0.22107733376443214 0.5573292905211951
Ni 6.5513506465495706 1.826114641033458 6.9160852072475905 -1.11572250353053 0.1823999717988923 0.3638818026588895
Ni 3.6337527113222015 4.5682439391639305 0.5304946325993952 -0.3656934019463315 -0.6821308950803284 0.03606332138146047
Ni 5.89004677675268 5.552295425293001 4.928957607373895 0.27087111735810765 -0.06053688104279253 -0.2908745570632281
Ni 5.0539344703798745 3.020697742613444 9.418606031091448 0.022951980810483052 -0.5342029889163769 -0.36139271768844855
P 0.2317041557203484 5.737621850990846 12.42410378718965 0.2646372206332539 0.2583264479238777 -0.1795874420507617
P 3.950766531348875 6.161172138649796 12.406168038241573 0.7689560203956887 0.8517108322964171 0.37073456391466475
P 2.2891322584672182 8.526761043752268 1.3560473481736066 0.9096113041576269 -0.2820811271413142 -0.7655945601226234
P 6.328076256659446 7.750871686272784 5.747520336884184 0.22238911059732025 -0.4147541640287244 0.558368787529303
P 4.647287124826588 1.2309845686614722 12.713401846714975 -0.3107820946204325 -1.9174775727341107 -1.2070486020400373
P 3.912719084886312 6.15866699420717 8.228730249664485 0.55874288303927 -0.030904402888340322 -0.3442277758733878
P 4.745331424113644 1.1097156811842899 3.6721175966654003 0.5523979146578487 -1.7868855867454452 1.165547397472457
P 0.32802922050002753 5.576551011556988 3.4457728221605772 -0.6086289692364356 -0.9266296930924945 1.0673106878860457
Ni 1.4913568015250762 1.1028604483773914 2.5721846401872086 -0.8363101814706307 0.1846913389362303 0.5827107067087771
Ni 1.9764775706475701 6.3918263042265036 4.798921618731795 -0.9875380985420928 1.0645709203573794 -0.1841190113725281
Ni 6.095522884104575 5.629475579348506 9.316115778706937 -0.865739028254709 0.8288534680822692 -0.6160301467965132
Ni 8.7449166186441 2.537801758808228 9.964932814814533 -0.8920722668325991 -0.46950092075230115 1.047266624750977
Ni 2.2154158961861747 5.271438888593478 6.974737240654688 0.10091759885268427 0.21169255011542248 0.4056905111645594
Ni 0.41990381026087453 0.1804608382966433 9.22281045302254 0.6594095422234129 0.09257771152842122 0.21275313016945296
Ni 1.4055669091685585 1.0177307565418543 11.469547889815749 -0.6386419706587582 1.2135488650524002 -0.37216641126518485
Ni 3.9415598994261534 6.940181621879122 1.655339758325454 1.1569028344235819 -0.357682615826713 -0.9941075242294944
Ni 5.698823765579771 7.821404615904713 7.973475927414897 -0.5535453979987305 0.2599853236835394 -0.03552390393822269
Ni 5.26266636112291 2.8002902508760728 4.98317454029484 -0.7560251712666334 -0.264479354899151 -0.4938757500522398
Ni 0.7538151460875603 7.325910559144339 7.020495467448598 0.22470130367026467 0.009533650522048099 -0.33372301968732204
Ni 5.126203817820411 4.346425607957066 7.2318708734283845 -0.11898036989166605 0.8485951694855708 -0.09341871937247782
Ni 8.011126349180596 7.479701105161901 8.879427500680466 0.1739785805044165 -1.074905469514168 0.8152721298534088
Ni 4.655435627147188 0.5135320011315601 10.488293664250234 -0.44451776844440216 -0.34555292244271457 -0.27705256357847124
Ni 8.22296932183072 7.009095703658235 4.818816264020206 0.19697658406148658 -0.10825372750278131 -0.3552477811329753
Ni 7.276938150635954 6.077118664101886 6.930341016579404 -0.28757891703109184 -0.1043857599069428 0.13144019292157363
Ni 2.407416677835856 5.221625402709049 2.537439100713826 -0.3124538258959006 -0.4801884823731343 0.3255263428091426
Ni 2.4306050906549697 5.065347799934368 11.283944722529657 -0.1632622225281769 0.6118533897110043 0.4783046350868601
Ni 1.0677974700233728 3.3583857871738503 3.709339340284599 0.012629001617920185 0.1432515837342049 -0.17767197019560368
Ni 3.5516888821799872 2.570974574026835 2.7948766066040283 -0.5536819235765947 0.7840478817318045 -0.554415973529142
Ni 1.1319725781998276 3.1732583260165743 8.046820587758786 -0.8960459067683665 1.0409375972091557 0.11095081471897021
Ni 3.5696861292587845 2.54286631075 6.965233066305388 -0.1287294788586299 0.43649104148518375 0.39102493873258465
Ni 4.097819414515329 6.862178478133079 6.015349218097772 0.021139353081776495 0.18888223708912633 0.30955490708155076
Ni 0.7177419704980132 7.5816342568328166 11.204962130613445 -0.4037650120070724 -0.8315366713413873 0.6970193821563866
P 0.08155104325810975 5.599323407609456 8.10000471383732 0.5712204466809905 -0.5014525339582332 0.35801531657578345
P 8.453795320419736 1.6110430165204546 7.856955057383127 -0.11952287265869739 0.8173326119268634 1.4687516797456317
P 1.7394927151436492 3.167063293730657 10.401382335392322 0.06516152429899745 0.2975054321161844 0.12466225076779175
P 3.980746870075615 6.098109423131981 3.7784207331546455 0.6047707718326101 1.5338982916462938 -0.30565917157157035
P 6.8642766496518135 3.9034129706933056 10.262107156993592 1.3459635060721011 -0.33710273479283237 0.42072092313512055
P 6.274093559265808 7.76603821056984 10.183389549670048 0.0015799428926101824 0.41684678489169497 0.07064131646664608
P 2.2948750986154773 8.43108623126654 5.959385014756917 1.2867291458908163 0.1602216359296402 -0.9647951484186221
P 6.8502044303278895 3.932968248810647 1.5851731043250277 1.145170376478002 0.4310999523765995 0.21094564464706897
Ni 5.259039780178891 2.8529706349132558 0.5855707305818915 -0.19455074822881332 0.6092007825795056 0.0388640240550492
Ni 1.2601690492259336 1.125768502071157 6.944265821266451 1.9865150350487464 -1.6471258182145827 0.10220186488174657
Ni 6.880356602066939 0.8773748389341188 9.266822313780816 -0.5676394141979514 -0.4108332317077634 -0.11037540183147443
Ni 2.7097071218603777 1.6345660515214355 9.244836732047872 0.2596739630907076 -0.8860327455067386 -0.1996253345382433
Ni 6.458316636147767 1.9764956583330766 2.5103437478253454 0.005659512278622512 -0.7759262810659346 0.6248688281340659
Ni 4.111584143185644 7.021567162814849 10.35996515311993 0.20999305092581252 0.061143661388855984 -0.3926617030050592
Ni 8.134520539704772 7.04186154595295 0.6239645562219004 0.061412084558894235 0.0850171255723439 -0.2679709129921772
Ni 7.586038608253608 3.935075464172135 8.094511483749049 0.6294834440879417 -0.4974236153044982 0.37209159216319143
Ni 2.991838840388096 8.33737393265825 12.314676907413462 1.0950822015723591 0.258537021272787 0.3991758499744932
Ni 0.1322273117411914 4.999834203030444 10.372910509636812 -0.7214044958689705 -0.47549956153789713 -0.870503796633204
Ni 8.760001748356379 2.2040116104744345 5.634109644375227 -0.6589732260169425 0.9287703935845812 -0.40046011600355547
Ni 3.6029674705904298 2.844514641939047 11.56512955072112 0.10449940266667165 -0.4405816666147896 0.21930918612041586
Ni 1.1905947669258394 3.2857275544949274 12.653798401050246 -0.579717428408408 0.42915002773908023 -0.45438591948773355
Ni 3.246992775983124 8.460370194101287 7.979816565569141 -0.5268802300027184 -0.35445382447677015 0.8321817611245539
Ni 5.599350539137714 7.823141033713321 3.662772593948556 -0.3863977243732184 -0.07359140023390552 -0.30294794328799435
Ni 3.208257997471321 8.369135908407364 3.3760818742889676 -0.43060784323152934 0.6535212017634358 1.6810219567413953
Ni 3.0462827737621456 4.278922365647447 8.989568844034153 0.8450771290299832 -0.15197739364297697 0.3499839616308747
Ni 7.259157955783232 6.268459245230587 11.524955896827288 0.245224620434597 0.24886144585623593 -0.4579625810953984
Ni 0.4562645800499721 8.900913862293432 0.21971835091957953 0.04520333600951569 0.6234495791890359 0.12605630290184094
Ni 4.804803734058452 0.3187954570490466 1.5594804514475629 -0.8539677466513936 0.0344754080690503 -0.2394136701797748
Ni 6.058832014054988 5.564757840606861 0.46192873876627905 -0.9035938943189535 1.1865170577455888 0.4031232646580154
Ni 7.754489223374049 8.753671058429163 11.472843466115002 0.7408209527223694 1.5230086413169837 -0.21315345093166516
Ni 0.0862457020312774 4.648082982988866 5.869455755572275 -1.0528096660563935 0.8479511081436686 -0.38521321714681395
Ni 7.856955961767402 8.605379168805525 2.6449857655816316 0.05154521906714348 0.09786107141454758 0.10914770007196042
P 8.524988450572648 1.5010518009564688 3.559818392430807 0.1051817734456769 0.43354764258614364 -1.0113287732037872
P 1.9331575638599126 3.262322089449738 1.4963688991788802 -0.432794566470203 0.05632027185828365 0.20968451854645823
P 4.706994574682979 1.1607862612114095 8.193348928045555 0.9743383120223672 -0.38263800022047 0.2172582171286581
P 8.46032497488752 1.8187439091896294 12.47579206167681 -0.3960013089012535 -1.1178914861573908 -0.7421265589076703
P 6.162890468772898 7.629874114078196 1.4101060138463717 0.5690046699765943 -0.34706473110155067 0.19519738067387674
P 1.783310133282731 3.336653433037996 5.908159785018717 0.17192504040949744 -0.9818125089122252 -0.3326009902677369
P 6.86604019898868 3.8079099912198893 5.955652620852685 1.0136345385188286 1.015930790752173 -0.07381097244387932
P 2.3654261159329133 8.541384937484134 10.192575380754436 0.5464573808036975 0.4974711807129819 -0.8663180406866307
