# total energy = -340859.1589699272 ev
CRYSTAL
PRIMVEC
9.35385376463019 0.00000000000000 0.00000000000000

0.00000000000000 9.35385376463019 0.00000000000000

0.00000000000000 0.00000000000000 13.69031048656509

PRIMCOORD
 96 1
Ni 0.22859976870167467 1.393630679479298 8.066536228991444 1.1232254967757944 -0.02088147143469952 0.689967874626244
Ni 0.5458815546260309 8.711936240481588 5.390641853520871 -0.8560701377063772 1.5440538920230569 -0.18216754407311206
Ni 7.781536463343743 5.429902784126807 5.417324656905546 1.14943352262973 -0.31971256434084294 0.07808414589793648
Ni 6.239506893133933 7.51075174933444 9.868523427422941 1.1339868490573568 0.5333961767443652 0.013312143727873848
Ni 3.3290926948839457 3.745423374211042 6.095405162844743 0.41715763126389444 0.8222619309076806 -2.2255288986869415
Ni 8.286457492126162 1.1606261810174596 10.33829267357912 0.7759807884529539 1.2605753703135838 -0.23929539943435563
Ni 2.7047697221888267 1.7513501108191651 12.332382773907858 0.8472959910581731 1.0714805029930192 -1.4518536184387125
Ni 3.302116180489568 5.854595808762007 0.7350585710508183 -1.1480042463823712 0.3944383352895078 -0.7650975658815468
Ni 5.06285756053618 2.5032222340974086 11.648345733861053 -0.7978179389327035 0.5362562719009796 -0.21919271514720962
Ni 6.552627149497243 6.770403573952824 6.972693758036931 1.8373260027841838 0.8261908336484417 1.3726232747514746
Ni 1.3875132590861208 5.242348661338435 6.496271115664134 -0.9206968725478273 1.1646760506110976 -0.8551589387460176
Ni 4.552623542788433 2.028242891367834 7.019980295213732 -0.9141624138634191 -0.8731260647473995 0.6680299369025721
Ni 7.2042259599087295 0.11186835005235662 0.4491131307827047 0.15297009657354946 -0.18680041485943313 -0.9554219347338385
Ni 2.04112314806723 8.941947505723522 3.742588221120565 1.8846163032297154 -0.6452453349078888 -0.1821570025501508
Ni 8.84245056272318 6.697022590796135 10.61257853507033 -0.05036456849548101 -0.2194724511711575 1.7145689394589052
Ni 1.9418600514121906 9.293296962617283 13.386125273569482 -0.38649311230050215 -1.2451387240435394 0.8488463662644284
Ni 4.046935497993415 1.0355464478407552 3.5838907373428226 -0.1637278493106858 1.1983706146500652 1.5777937074776633
Ni 8.234637142006589 1.3766534348101596 2.041814397863951 2.401959797386592 0.5533669634393373 -0.7297670089010528
Ni 9.300368476099305 3.7838209441101123 7.120769005425541 -0.047095667936222115 0.20156626031469801 1.0627073847860795
Ni 7.5777253426297735 6.674302079886307 0.2448633143249424 1.1946216891305943 0.15245664727224065 0.9747949399438115
Ni 5.646220007387686 2.954583095951184 4.901787939431665 -1.2910005195726606 0.03972354384186707 -0.22061247831287167
Ni 5.162101949483595 8.694697087905707 6.875219118230783 -0.7155012430106581 0.10995014136859774 0.34375906376708537
Ni 7.880836975414032 0.14825390599642346 6.715891184706099 0.1425913244423867 -1.7211424789113647 -0.9948963386793769
Ni 1.0074661786965384 6.73488699102791 4.1268211510911055 0.3455434093610178 -1.1265702448783115 -0.05048335346153241
P 2.7563375182554712 8.590223894677274 5.987703954665721 -0.0017164684704744633 -1.2505791783328204 -1.8454609731864928
P 4.640643307161211 6.955282494550906 3.0547048763861833 0.5670213209979783 0.4061533097335909 -1.0993579461295775
P 1.4826419523561691 0.5406181410859074 10.955547874333744 -1.9060755015447561 1.100820132497401 0.15878130393868783
P 5.436254050865289 5.075616217136017 6.264740784563099 -0.6238925802637255 -0.7636855160253686 -0.6234554927263068
P 7.428587497448098 4.400576649071163 0.7078425979988486 1.8841846150089354 2.099126782409907 2.4722429591828714
P 8.823368700946295 7.260302313512852 6.438949764117607 -2.3857209669302266 -2.090477077154709 -0.26284850416394734
P 6.762406028943395 1.488375864743046 12.456088425959551 1.5100644224514896 -0.5305682203772668 -0.7285899578738162
P 5.565907818556158 5.039622587666681 10.811785688937936 -0.8423769564900009 -0.3315620074802612 -2.460289129255105
Ni 2.981335117854069 9.12910876665178 7.955042033091576 0.04601606171879817 1.3616762888216678 1.3406935159224136
Ni 5.5373598567213325 8.9058883992775 12.509164998646103 0.2651640396710014 1.112373127442323 0.29661325931921817
Ni 3.3799589519146753 6.1130240818854 6.282251198899532 0.6641378009370175 1.8987185469590524 -0.3476738254404593
Ni 8.671003776199411 6.240573232468524 2.481081662123937 -0.7359487122317325 0.563177778882172 0.011939688860379438
Ni 7.567679303635473 7.399945997075149 4.175955074395817 1.7418660846119616 1.2713081833500557 2.222447945768773
Ni 6.678604852639919 8.273979451140692 2.3900677291458745 -0.7711813101817815 0.4599744693191046 -0.6505158392782088
Ni 6.096233914292505 0.617760308860481 10.28309371146258 -1.6676738175692634 -0.0010261272716692005 -0.025578362689736595
Ni 6.469284312030564 5.408772428365053 3.3799187303432827 1.4700822256315973 1.0889213241772862 1.5208499431027678
Ni 3.3635429384742688 9.166776735953501 11.305964752002426 2.480274571238096 -2.8078516259286808 -0.17513403426509838
Ni 7.6170863594715 3.8501210599309674 10.566195580171787 0.5084533907560985 0.5293389759558561 1.1553804842417845
Ni 4.779192589827479 6.919513357573064 11.808331243308736 -1.0757122816861797 -0.7931734981821565 -2.414691128910332
Ni 0.45269846294892 6.2478973000034745 8.625155861738925 0.13872052863307077 0.49608175656462306 -1.5084222588623764
Ni 0.7173638857942845 2.4477632348448894 11.333947741066998 -0.5761752195831045 1.4803388703625988 -0.28616763850586197
Ni 1.3963620047924596 1.653190768913965 3.0334575974517763 0.1759434175402712 1.0715617498529157 0.6795824176268619
Ni 0.8369529067832288 4.3589052303378235 9.554741853595107 -0.8355835877172512 -2.1484428550362162 0.20190230349787808
Ni 4.016647719349519 8.859708423006683 1.9423950918502482 -0.16801850626623965 -1.5216169031757796 -0.9914803710192923
Ni 2.617516973828649 6.330089613451253 12.179407042507039 -1.9648846012631642 -0.2132418968804134 -0.8252019873726111
Ni 8.531313323368055 8.640931136193197 8.920716128340597 -1.081481322959473 -0.809859957698902 0.7586626088894804
Ni 5.162522872905144 4.814774649729078 1.8188531322402692 1.1902477284326145 -0.9593472379301736 -1.4186303376092084
Ni 5.448432768528771 4.605388632143039 8.523997674301535 0.5869429996225698 2.37498583990091 -0.8092313229759677
Ni 5.366792332455912 6.9078771634306895 5.062225240018475 -0.16335452513166704 0.8130717797679804 -0.8347004137813496
Ni 2.1991378005166813 1.4133766648768469 5.454302311795924 0.43382686438945933 0.02549351628541416 -0.12208806228271234
Ni 0.9534102575158495 8.109529347268447 7.563923731329877 1.4611828662594384 1.1963684966183719 0.5395711952068256
Ni 3.1784675869461303 1.549297514621888 9.720886875778122 0.14827474798040916 1.0829041714489285 -0.8426440941084584
P 9.293194070225349 3.028609495020915 4.091541220667641 -2.5365629614171796 -0.25108673564232886 -0.5540945856339812
P 4.017180889016815 7.746899142677177 13.506572978338385 -4.305344382362747 2.333557397552794 -0.36613151792501464
P 4.350991870012704 3.8688007059939262 13.538129139559217 -1.6466185395608608 -0.13642376217909408 0.12781596590542504
P 8.17483795458521 2.992681342528264 8.756034984279193 0.016202320791475322 -0.7548992851923064 -0.49547446199792733
P 5.559369474741432 1.050839998823698 2.0759438042685163 1.5145970202145207 -0.20677737220199227 -0.2786882994096813
P 0.5397398142129421 4.756827525362516 11.65116592078543 0.18363512975757407 0.027812651336894038 0.9024618375970394
P 2.3372755136152135 2.436501194855004 7.365195494777454 -1.4377781141822528 -0.8927338116759981 2.2939513531253977
P 9.372561519821845 7.924556888132242 13.50419055177242 -0.0831366207201794 0.2353050473280399 -0.03224189075284125
Ni 1.6993520374771596 4.062350649075916 4.211003029244739 -0.2202790062328529 1.7568895546039873 -0.26563635132172964
Ni 6.832634763365373 3.1069386668442562 2.87625205335708 1.2133891995460844 1.2442354955029797 0.9216296687747418
Ni 9.104012376873655 1.9511297205400782 5.895102672695729 -0.31590861721372043 -0.8531681335682337 -1.5116351093727192
Ni 1.4031809642215516 8.032678084347433 10.119384432812263 0.21234586742870526 -0.9224539644482501 -1.0528348628673738
Ni 5.404114209166579 6.8747177516664495 0.9137040834684524 1.969832175076427 0.40718355077031815 0.8818760430258877
Ni 6.5752447680151365 1.5022382760927226 7.9574384904382605 0.5686565426085561 0.3460707426193975 1.8917770826442128
Ni 6.233829103869929 4.484555548597072 12.71297331320393 -0.5513936417630504 -2.423145173214956 0.8669443614167199
Ni 1.8742129806423786 7.809279993750721 1.7429138700659441 -1.1203016382607802 -0.8215258240726044 -0.789551070938221
Ni 8.753392520577247 2.905063793869411 13.412041060941558 -0.2995893112284066 -0.4075249932701368 -0.4738630543757387
Ni 7.426454818778917 5.824831845931596 8.972341918300877 0.8881503060703736 -0.9776326665029228 -0.02439411257364831
Ni 6.979546391339747 3.622448258142082 6.706595324787538 0.21005887116674146 -0.6000962491750762 0.9567861620712167
Ni 2.9705594782624174 4.480224714282024 8.245838381946694 -0.22386492381189832 0.34795330435409105 0.7827661868059035
Ni 6.200538738152319 2.6999431336217325 0.796430141298027 -0.9505046999378792 -1.9929031979632776 -2.362701366106602
Ni 7.77062051594491 8.664278355308442 11.709555482437311 0.6603248549488305 -0.6174306266884657 0.6992439006115312
Ni 2.0109195541076446 3.6990376131563543 13.208192524812336 -0.31092196263240646 1.4522891633142343 0.49120488808829593
Ni 3.1983912955661102 3.931462172681837 1.9442434133635385 -3.087434669238489 -0.9483642565561088 0.5446583799217458
Ni 6.855158843345145 6.327283457307594 11.850168225254551 3.0906102387529932 2.0782802779782013 -1.0847024009999318
Ni 7.098817381299076 0.9759062759341842 3.906666976996464 -0.775189145789594 -0.8818590737450233 1.4845691063938626
Ni 9.253122160493895 4.029107052627366 1.8951225854541647 0.019855601273346447 -1.9239079017404868 1.763939519472233
Ni 2.8447969137574223 4.057570829777883 10.699018433534228 0.763676260053988 -0.14941246112927814 1.1375851079315764
Ni 3.6319424197614625 1.9999661912935611 0.6772377237107197 0.3048844981890749 -1.292209452279097 1.3634655195116065
Ni 4.056916060011029 5.084109516397492 4.122371522832643 0.5305381384702799 1.3757021707871147 -0.1272544369750002
Ni 4.455511832510199 6.752808974932081 8.255202524998086 -0.8488751626198349 -0.7111591639918785 0.4664392511078419
Ni 0.5534516285162424 5.70187543757026 0.5226409694442452 -0.3790461691041536 1.5314182055369174 -4.212906024625667
P 2.5888661196018883 6.129505572302491 9.8234004366329 -0.12023532534468968 -0.2550012402053866 -0.2485840238251332
P 1.6180109247262904 5.599048522612773 2.2108207639281163 0.6959909408918723 0.30799656145549537 2.714912931516414
P 4.553661820561587 8.557036421351597 9.284699835578492 -0.12977720339685392 1.9757945633074487 1.01979618724485
P 9.22223573520602 9.265497309087433 3.412282129148105 -0.8730936688475673 -0.6682636501799329 -0.5617454173110196
P 5.002927419161431 2.832552719117256 9.18242012106902 -0.893999565762299 -4.14553026628417 1.5039099728143197
P 1.1043440426294675 2.271620813707399 1.0962089959689993 0.1724937684287739 -0.0895162989942781 -2.713282337891527
P 3.5651278419809356 3.1363004139607438 3.8392013709906085 0.7043272286717096 -3.22152824062251 1.032003013723687
P 6.012021168421291 0.9285514556245534 5.7938490759494545 0.8019039360766189 0.4624283301762359 -0.051376554699763134
