# total energy = -340869.7916928642 ev
CRYSTAL
PRIMVEC
9.20949402510917 0.00000000000000 0.00000000000000

0.00000000000000 9.20949402510917 0.00000000000000

0.00000000000000 0.00000000000000 13.47902541567071

PRIMCOORD
 96 1
Ni 2.876253828095938 8.987075257252616 4.0288938037808775 -0.22277888983657118 -0.1277020660353801 0.16321877088475115
Ni 0.40383169577762396 1.3247764650888934 12.127577089247056 2.2782252006393926 -0.3781956481784003 1.1083758333574718
Ni 4.714496407197207 2.4726846028899208 7.340070578522642 1.4264099815546274 -1.032322858956951 1.7208169772511461
Ni 1.3007488959197167 7.657224361112662 12.95289784315112 0.48623905944258833 -0.5694764674066902 -0.5568250971912668
Ni 4.095793408211208 3.8493565652069908 1.0919788823144767 -1.0904264479679027 -1.2030124842974508 -0.7073256491784012
Ni 3.9505596919222397 5.405005828878519 2.768119636391528 1.016700321928346 -1.8879232561157617 0.3769748883974217
Ni 7.663910453568325 8.03115743546149 5.531792008255729 -0.17723102600344318 -0.8918539801742059 0.4181256516041186
Ni 4.142421075019772 1.5997443197014323 1.740196466840291 -0.6923569436837109 -0.8959829147409151 0.8839594079174777
Ni 7.001296588427233 8.631082276710442 8.121637948614579 2.332429197485622 1.3565307400649862 -1.144497004560061
Ni 6.764225800557187 2.1948249672428397 12.486955479688268 -0.5281963777109807 -0.26976271478527736 2.251892733392451
Ni 6.972995814162426 4.244222818828159 2.2513878358987425 1.1465857687682897 1.5636297572724553 0.26497660625054364
Ni 6.028506974103361 0.5723028066728276 6.237041224668841 -0.6069027305739483 0.22249221183408777 -0.825951721054442
Ni 5.571255609883495 7.131693810300125 6.840308191196253 0.048277861169781375 -0.08996264250307733 1.1534092194480265
Ni 5.3109584787997015 0.29662490009288994 9.374607991008158 -0.8920342145058121 0.612750704714293 0.24690072258543927
Ni 4.401686742804619 4.948896441882485 7.5166322296689465 1.135180612255142 1.422284646532344 -1.3332072348476973
Ni 7.342692521390585 4.704973790669445 13.435460579967602 0.2944980127484283 0.23064569417915762 -0.5779911897459207
Ni 9.014657691005658 3.0525235382906666 8.882205831079242 -0.2937207682627716 -0.2982219985672348 -0.306544145279685
Ni 6.76489809360025 2.96593587814172 5.840879195278373 -0.4867393961177746 0.5158291143948793 0.16117628653342564
Ni 5.550561877448408 0.05693769505114449 0.6856983821512322 0.3109916395280773 0.81603446194073 0.69386258169496
Ni 8.269195220174296 3.7870359210644766 11.054188490997317 0.10741811897536338 0.29195339194970366 0.6635657304836314
Ni 0.8858335744253029 4.215535245826247 0.9361155683501291 -0.19942864514640493 -1.3954171327175389 1.0076513243522
Ni 2.4872540219875208 8.32357728071243 8.653938398275816 0.8873352663682459 -0.28479724052089656 0.3093240220176673
Ni 8.871597415239465 6.8825033286674735 2.643398225510956 -0.14203699460081345 -0.4792713698755036 -0.29185157626451674
Ni 6.311339736370356 6.626912248885119 3.2904858051548014 0.7902462972330326 -0.1986038352522644 -0.03577124406233839
P 7.68126113977558 9.194786179077688 1.5309742670923887 0.5199989295018529 -1.2195989279012223 0.8838195399055037
P 8.63074152544204 2.6291354825549176 13.357632990264696 0.07542228279505721 2.078179747844595 1.998653213073177
P 5.120404843813333 5.644913140820664 0.875255549914871 2.13082334218224 0.7167970790039462 -0.01819646840336866
P 1.6364165237764274 1.3167642055345876 2.6883912071805667 0.8912698255359619 -0.9512840013060649 0.7544711965159523
P 3.3953469427838088 1.5225503431678789 8.872446530562348 -0.18227450196462155 -0.9362487042394972 -0.05076308948548031
P 6.241651497235377 4.6939039791932675 4.382987786713743 -1.0769014168982745 -0.18453270187117896 0.4737087881860616
P 8.976907976163014 2.5423360040499383 5.201501803794144 -0.9892252564365285 1.4632425770019444 -1.5889633509412378
P 4.376839528692531 7.26656684613094 8.846203157199186 -1.6307329786788558 -0.3534960885491912 -0.5111880160784422
Ni 8.205649713364284 1.4178199803499874 10.481451917169307 -1.8924260290821213 -1.3700318598752148 -1.9065647824763488
Ni 0.155282194909317 8.85564657208078 4.107786931909567 0.9009420585184033 0.7279662082468882 -0.15121634710723636
Ni 5.510951844870168 0.27105658262091387 3.2283880307608084 0.09127673332881053 0.6746741816919671 1.1632539734525902
Ni 2.5677265782927208 3.3887345262780713 8.092321367190186 -0.5110154950563199 -0.4329069236783512 1.353699184153462
Ni 0.37951586945436694 5.259956302464362 12.553905736334173 1.8081640365082474 -0.6775579309976654 -3.168762261774388
Ni 0.7753730646020215 6.579750431439601 5.668482998150934 0.5919584505592902 0.5462691760522914 -0.45271907330827194
Ni 3.3614652153122098 8.284243532946407 10.917807861041169 1.0391560798287007 -1.0788551981905354 -2.686183939012838
Ni 2.8806559661039364 7.107574146193542 6.538513081317399 0.4986682863448767 0.08820400794075778 0.4019688393385981
Ni 2.550808738291273 3.264664226604959 2.9567991394016895 -0.3443871842693875 0.4518412986890089 0.14297570436499893
Ni 3.742517228322506 6.091840662557339 11.053191102825213 -0.5123604391199885 -2.1166771325888454 -0.0585051953247444
Ni 6.358731791159388 6.903970658576769 9.324708191073567 0.7947755525619539 -2.5542678348961108 0.8158611695876594
Ni 5.388244550270661 3.034647910940198 3.329291848929489 -1.4510159530287654 -1.2714552504508811 1.1865700224707112
Ni 8.43984713918727 1.0070489310388353 6.409977098129479 -1.4058943780997788 -2.5161149779754735 1.3424572926910556
Ni 0.813382487168149 0.3112587856466738 0.8111915486072646 -1.29924964695533 -1.0603057173231223 1.327054070762108
Ni 3.513624470894096 0.38438584974438633 6.650793387103819 -0.6462946021080095 -0.05470356219046708 0.3370114606306067
Ni 0.4285619493192072 8.003869705508146 7.5551555419857985 -1.0599293078203103 -1.2379272938967647 -1.061788986736868
Ni 6.836474278952048 7.257532332771429 0.6207115895708197 -0.03286101239407888 -1.1475224216499464 0.5884800050923865
Ni 8.102963858156802 5.6539200256989535 4.8469768165542195 -0.5181847591112495 -0.2483179146479401 -0.8954118727287933
Ni 8.102641525875882 6.550344517925924 11.230670019548079 -0.7451535186594522 -0.8290491290328431 1.0688055272640176
Ni 7.412482064956711 1.4965519423382176 4.000911677999494 1.0386560002638305 -0.07590719285127573 0.42562170287084766
Ni 5.76252758538163 6.9463159107959624 11.742953634564163 1.9930638919108579 -1.292589204216019 -1.0873007578547274
Ni 3.8196191099186536 1.7488183948802234 11.045104246371608 0.48672911170512945 0.3461049382914427 -0.9171487501852527
Ni 4.363633114668537 7.398630986370877 13.280882911329439 -2.1047695825179815 -0.4603421370711685 1.053748890041211
Ni 2.098705481072392 2.1400745269550834 0.6453165939975309 0.7437221855295644 0.9874931042367704 -0.7764605563028498
P 5.543378472330755 7.919234458032203 4.882399292328617 -0.13398044284492408 0.2789071002887068 -0.7911788363496309
P 1.3866366345443788 9.094411906799092 6.004595444555315 0.3239068049278486 -0.5571359435634663 -0.3203070033917323
P 2.6169513223361287 5.507443027755007 13.067578143006337 0.37464495471266446 -0.37908087899683107 -0.8875275848847102
P 2.4760184396240117 6.688008030360135 3.400610168456551 -0.30932222224545436 2.117837214335217 3.653931485191565
P 2.1778242417977265 4.879935752753012 6.6624664204200075 0.7986196088983923 1.8448858174093128 -0.22984402421346867
P 1.3326137442621282 8.889961145758186 11.005880091581098 -0.7900046135358717 -0.28211609414430766 -1.207382074120056
P 7.811685990129694 6.408932741539298 7.294592256532903 0.46894350558693426 0.1742367192618096 -0.27746008342953504
P 1.4283924791641747 4.347820413915959 10.201519224481222 0.01881816114776759 -0.5598119477337326 -0.3569755624573594
Ni 1.0812682410941807 4.268084617110005 5.016165347011814 -0.34986234845134584 -0.6541197545793831 -1.76534102780545
Ni 2.8888247870518318 0.24971358087711648 12.579057784689075 -0.8784518478356872 2.1630001840251007 3.497828499415989
Ni 2.5093936449398786 3.542487024277078 11.872082709148977 0.46696889835906674 1.4837746355170252 1.5354874905102847
Ni 4.351854172174334 5.8972072218438925 5.029037456413024 0.5288761773868246 0.4360446979763845 0.07960932429321128
Ni 5.192008657646353 4.16962591952945 12.462181020576729 -0.6287864180209171 0.38202787744029687 -0.7871090371556315
Ni 3.8863050540942035 3.5776028239099147 5.650798007320896 -1.0636214119599166 0.6267040815705917 -2.089046772466086
Ni 1.9010144884370714 6.175591798634187 1.5572452689367713 -0.5794844864619956 0.8220981516363068 -1.7449789192093303
Ni 5.9717488641801575 2.677687933555263 10.56605953616403 0.2687710402959694 -0.20197506571734244 -2.2544628081124722
Ni 2.5688409270353314 5.646534011719007 8.762430839286736 -0.05879084488596327 1.0282633441755968 0.020054861768346106
Ni 7.643456167970493 9.227083873625908 12.77920771215313 0.6974353866478827 -0.4177741818019708 -0.24919440371562243
Ni 1.5875693689763837 2.11594565335476 10.315066756606347 0.09389385923668346 0.45609338909714353 -0.7266135508737357
Ni 8.594981061247363 4.306902633226556 6.82459219012795 0.08316490285495354 0.6589793966645295 0.5963637787158375
Ni 1.9595039831835037 1.9132815340995257 5.058718733789544 1.3611463844601268 -1.106243360395501 -2.2207661871909754
Ni 5.239041542179502 0.09373238539288935 11.874818849739304 1.466594781303629 0.5531358212651377 0.0671297037689618
Ni 6.9821776794217865 1.9582330730473037 1.747973884304212 -2.2178248451744644 -0.2501727084684917 -1.5311284422106406
Ni 4.2977207679671965 3.9788420471995654 9.541087088407275 0.2778532051028957 -0.1461301908335806 1.831459002480446
Ni 1.3709436572104279 6.5952223809237775 10.535731752326921 0.8643961410735695 1.299283071296427 1.9315813591253441
Ni 9.08707194028785 2.4815533453621006 2.196555431116695 0.42932897651910573 0.23002914364108124 0.41061905881442823
Ni 9.10260835622821 5.5090823176408295 9.29373390077587 -2.098360079447212 -0.19606435665986233 -2.320454284511933
Ni 6.589972969491646 3.9213655967645966 8.412124721129372 0.24316465258177478 0.25740984964687924 0.25300015061495784
Ni 0.9351319944186351 0.7666314131434616 8.658346061980058 -0.7733968297758615 0.20550390480620734 0.024745068155163835
Ni 8.9019242781272 8.023218851857107 9.707593814287613 -0.12940953564479002 1.6294955067273291 0.3077026843641604
Ni 4.42878107338941 7.6389527255313485 2.376513543554526 -0.46386094885770435 -0.17210116097604553 -0.17641855740447682
Ni 0.9703398889888778 2.289047297702728 6.942951682732528 0.28831039588047763 1.2168357633337883 1.331328529767746
P 6.9900333775825025 8.538729473479892 10.794205403650079 0.25201927475892727 0.3253445658156397 -0.7622271863122873
P 7.1496707420817405 1.7465252309388186 8.323931846221441 -0.3998808464613178 0.03688993104781389 -0.22452286911087138
P 4.4745522572800995 2.071261189725459 13.151740943453389 0.1547644694698109 0.2091510146404914 -0.40158060276124385
P 9.205073183585919 4.59795026391015 2.9859812622174693 0.08787824917022284 0.787341979102044 0.04664726754489386
P 6.384453907176831 4.860476092479163 10.721850095127825 -0.2101185207600833 0.5392786036670713 -0.6064026510090783
P 8.8946395685784 6.570817222511237 0.3989156680189016 -1.4134907023897978 0.8746491862601452 1.7507088797145718
P 4.341235625891443 1.5481251072854734 4.960254510512744 0.5926523913025212 -0.04601400483626914 -0.420187933449786
P 3.1004129057416896 8.591269635269908 1.1386774622248428 -1.7741395999336862 1.2908146288140996 -0.6183387403250319
