# total energy = -340874.3000501807 ev
CRYSTAL
PRIMVEC
9.22476123038658 0.00000000000000 0.00000000000000

0.00000000000000 9.22476123038658 0.00000000000000

0.00000000000000 0.00000000000000 13.50137051382854

PRIMCOORD
 96 1
Ni 0.05542882161429794 7.139725195151137 2.1402644813683676 -0.5036855370538099 -1.2994157402195492 1.4122100359051613
Ni 3.2921972905057584 5.209397825354023 10.95730675805762 0.1512579989784492 -0.2605702496527319 -0.3066171646094655
Ni 6.318370922364368 3.576430627430509 8.158311316139484 0.12245444448319555 -0.39103548025554585 0.4528725681670008
Ni 6.163210441802434 2.282611768856548 10.242841636303387 1.3203139238247972 -1.1646642235365554 -0.43338232065287297
Ni 1.6276998593741172 3.3155082616341773 1.2471148159439363 0.536680761032908 -0.4112101554312079 -0.04355191644902177
Ni 9.11655458531167 0.10212271700718716 7.3266668224212745 0.5419502369619635 -0.7381079246665805 -1.727506987676812
Ni 7.419253903949455 5.315611723879 7.0403975807367125 1.140403808327294 -0.7642388174256773 0.4616086624884179
Ni 0.44305328018816575 1.3298507751658106 5.180718965780956 1.1635789608921767 0.22400787714766582 -0.7901861334190585
Ni 7.0464351868323005 7.9539764019430965 8.311483860698974 0.5600929693092611 -0.5416273064049059 -0.04930604532397961
Ni 6.201447076280984 8.529389320849859 12.76622059057697 -0.37800127277940704 -1.8931778196464815 0.1672021810125314
Ni 9.029675785910227 0.054068169362045546 2.7889505996301533 -0.21463646323509486 -0.019533956267869586 2.064899485795921
Ni 8.57032881031085 1.515194673825167 8.897578130404943 -1.3005506251549408 1.1040751490995888 1.8648609749796592
Ni 4.0145606526557795 2.4667564485817155 8.540494088180445 0.5337039377927713 -1.5451980329298292 -0.10374735499199551
Ni 9.183120460920167 3.265002694982775 12.757836205274785 1.2554318784394316 -2.171119727808441 -1.2540532529243498
Ni 8.068686305378748 4.190578317911561 0.8205406488637275 -2.036724308913286 0.3700023137343305 1.7149535764918336
Ni 6.9953115611917385 7.968459276763682 3.5169715077212342 0.4666901907763833 0.2412034150903459 -0.8050283406382135
Ni 7.1110177388188704 7.235044650897062 5.892902804131922 0.7586003881929774 0.10595618971785624 -0.2574347893475437
Ni 5.326450818091859 5.541479997752897 13.194038255444323 -0.7632741395195629 0.6080926371169915 -1.1381510077373753
Ni 5.286692098042992 8.415823287782205 5.1286442672779735 -1.4368072656285513 -0.08582753728878123 0.8529927843326343
Ni 3.7401055624251818 7.608739720312279 9.355693600406518 -0.6104881339323616 -0.39714879224213534 0.3625561418689304
Ni 9.261198838296872 6.965856899215861 7.35303487935577 -0.0789943164170317 -1.286278431506643 -0.6646525357899069
Ni 4.172894451012796 0.7037459494347951 10.355834811710942 1.0922020518110866 0.4329971693993124 -1.0690212428192492
Ni 4.069346508426131 1.5300004152818794 1.8123703504781215 1.1540350259574834 1.5848729829219481 0.32552942813293617
Ni 0.8647567734433625 4.8395587060502745 11.332064519943748 1.577291056809632 0.31056046552792965 0.005625316606577409
P 6.425064508463019 5.959020356354253 8.851619448466323 -0.9415796295341075 -0.3601472753171217 -0.3115595962164054
P 4.431492177029009 3.2968373453049646 10.571923916414582 -1.7229108836656974 0.5582363757164966 0.8839460381810389
P 5.198844698733165 0.6966355036311602 3.706099403356007 0.5906387033066021 1.024788755363435 -1.1164516683870709
P 3.7798827319961124 6.684289518229423 5.085182728150774 0.9638160723348047 0.15365683822792894 0.15867666004002348
P 3.098846299270435 3.782640935544746 7.140064666357123 -0.5379835390047315 0.002232231764628414 -0.18598588937793775
P 5.399575498794263 7.350354163799808 0.9328364323372463 0.3128058099186807 -0.6690810038749058 0.4372721426255824
P 2.535084253547366 5.940395563830202 12.774564386930612 -0.6911989188198677 -0.4594939301382603 1.5996974495292902
P 0.22142931886519296 5.945644452857534 5.2187249812337 -0.29931317474888447 -0.015574714509805434 0.7834752970577862
Ni 2.3206915823975507 2.395818036243947 11.157519126548708 1.8110745252868228 0.0580789064206032 1.6557408135771035
Ni 5.158661639676816 3.199516116415048 4.058916993603104 -0.5757617861947698 0.042420116837423714 -0.5692111295604454
Ni 1.5081930802017123 2.2496147986442985 7.336023497536254 -0.1695413706686693 0.1061845036785784 -1.7646812827342642
Ni 4.282014149262922 7.440683023827301 2.74781277780697 -0.15213885892150572 0.4129559344777211 0.9675955939818948
Ni 0.3591033424144513 3.7493118739353366 5.68745261632674 0.8504790167718451 2.2098636813458588 -0.29892159573742066
Ni 4.483713549232403 1.6792939478273214 5.799337897934325 -1.507873842558074 -0.9103201572991935 0.2511695251641223
Ni 6.5681682263558425 3.4143700256164746 12.279590461748702 -0.24656776472605277 0.31981360869508146 1.0511430769872478
Ni 4.861209220192895 6.991999871981172 7.210258640479592 0.21805628754992126 0.33410997071309556 0.11189029581410408
Ni 1.3134122510063952 7.8900672575118795 0.2820378437990822 0.940855092663257 -0.4302504598921106 -1.020201907323701
Ni 8.595355586991262 1.598457366901981 1.2451545542245894 0.5176875077598568 2.276623146259595 -1.1484323350587253
Ni 6.511749587882788 0.6993116068066071 6.975212651854739 -0.22129202087839955 -0.3941971658129792 -0.12105447881187538
Ni 5.624770365112808 5.176871317954418 10.739368088767021 1.1267149979862918 -0.48300126923158104 0.12978208849286038
Ni 1.881915823900025 0.5774580484276054 1.3603847341824573 -1.6058871232797698 2.2252787303493484 1.6425564536763455
Ni 8.806879357460057 8.415657242083624 10.209979347602207 0.32831984639387973 2.8132853953497423 0.6677165194272113
Ni 9.113289019906263 3.8248442172671506 3.014275535079253 0.9681725495312876 -0.2424002636119245 0.46235633928771985
Ni 1.7371424242603706 0.8658951089547384 9.090810122222951 0.967096028637657 -0.8559822059782614 1.4298678581962405
Ni 7.409346510600852 1.0653953258941389 12.077623543709286 1.420820660392308 0.9110950877920052 -0.6019741829240794
Ni 2.132681727799883 5.819339024804385 8.929306695975264 -1.467770289668969 1.2169812877727169 -0.8486692172566158
Ni 5.6952659889210295 6.057107240409844 3.9780841025821765 -0.0692320948239453 -0.9153350940152817 1.2040087867724492
Ni 2.30360732496588 5.425450953489639 6.029495685688205 -0.19832332789736812 -0.10356789199133777 -0.11152931293025954
Ni 5.491417219631042 4.694812980693718 1.8093455513356569 -0.08030352214675847 -0.6478519192928003 1.0589512601777569
Ni 7.258401745830642 4.294181609064419 4.769872093784579 0.5305815901137055 -0.38962574439221287 0.6523955727994248
Ni 8.321804523341822 3.5470958873480507 10.316356524397454 -0.07020500026017586 -0.09350150889427124 -0.38629025226107666
Ni 3.9958897363265664 0.06792929528905874 7.680443787815722 0.28076240832989063 0.701707017440043 -0.12485765460804947
P 1.0354240773004575 1.883336437098987 2.979604270739655 -0.26275928688425065 0.4487467189240852 0.3222052488557096
P 4.5974917518038 8.007959703503646 11.309139143826476 0.06618636601908602 0.14448648458257052 0.3881206206015961
P 1.1188251417927548 8.02597566179957 8.925890766965033 1.5765811752268009 -1.6944271744037076 -1.098827270437088
P 2.1996627176548293 7.890980508854069 2.415638357797774 -0.765021975448605 -0.3887032325779435 0.08595840643969066
P 8.072569929773312 5.072456247830723 12.089545624867327 -0.9138155720469617 0.9362191365531426 0.3503189763727902
P 7.51764520511911 5.342400429916566 2.925841440967776 -0.25283071491662906 1.0464726680947718 -2.0466965896346494
P 6.146688894793728 0.4228667356213596 9.143843273397183 -0.7601001126669554 0.661297760385061 -0.21371832229619966
P 8.29258048039175 8.869515484868828 0.39390098598019 0.10265746436192642 -1.0489548110866773 -0.07148001031785753
Ni 4.873173735251684 4.803886555138682 6.385256897180683 0.4477136496738806 -0.7886987502402546 -1.5592424268380372
Ni 8.73714938881751 7.279471100028232 12.333744421388348 0.38054512224718334 0.1428710604663346 -0.5376891476927642
Ni 2.2615424146589582 7.757488991956819 6.724235500927244 1.0264028939280903 -0.7823062164503496 1.5650621188436078
Ni 2.983140121643305 0.8781714209364162 3.8539529507043193 -0.945291788278372 -0.7327713429450154 0.6630234848269162
Ni 0.5977838868859982 0.8487472006719454 12.792845095868161 0.35233652102345125 -0.16612360323637199 -0.4261276959729886
Ni 7.387391579344169 6.4752195341951975 0.5259608199652395 -0.291328356771195 0.29187703018581346 1.0055281073616102
Ni 2.3237080792550864 3.266174239633867 4.3995163878630255 0.14617672780079988 -1.4078471309507754 1.2869119513255836
Ni 1.2592813532693306 8.087661638822023 4.625299793935427 -0.46165905611037916 -0.3602033253660377 -1.0158361741558377
Ni 8.86058591618964 6.085408807256694 9.74068531218179 0.22314141538231247 -0.9566681484361136 -1.413833173330881
Ni 1.9527435391054073 3.50640546643493 9.21977504888169 -1.1238569597122063 0.9141503296785611 0.0858686749393618
Ni 1.7110086762560925 7.061886661561268 11.103729544969836 -0.28107274048145786 0.815006277786532 -0.7700471965773383
Ni 3.7009833508875376 8.66550066988026 0.669475039723996 1.1258328524916545 -1.0181535094351046 -0.790049093620562
Ni 2.9915715532267533 5.591099987345206 1.5066451653005057 0.17343710617864969 -0.09024057875481233 -0.5745759934167847
Ni 3.6002581851767324 3.790205239591166 12.967539930391926 0.07758535188464703 -0.3401538629143303 0.06305167704484625
Ni 4.241019311235738 4.845222709324058 8.722721862563118 0.8246247747129024 0.9537517461202671 -0.00597678640872519
Ni 7.31595502991066 1.4990421172577504 4.4657944509273175 -0.7030347351125311 -0.7317423874598687 0.32010620023483577
Ni 7.083675547119371 7.099818878925755 10.70018683875877 -2.401795503894586 -0.281054999869645 0.6590778699156068
Ni 7.080732848350093 2.812694212050983 2.6109219364693472 -0.24035160861301183 0.6690889742947057 2.419455897288827
Ni 8.178396388334935 2.4383903084076404 6.742651813851967 0.18966102423667983 0.13837137282376813 1.0832864944890117
Ni 4.981380182159619 1.3078035962988057 12.982026495116921 0.00023654149083830232 1.1574823610761356 -0.3908940695816752
Ni 2.6739999299315618 9.08451699024677 11.890183779343408 0.3293691135940005 0.11726827229656578 0.6577907756730671
Ni 0.6056516855703783 5.707055233520206 0.4622666124660728 0.7575670618324565 -2.0562212412956327 -0.9137872899121876
Ni 6.492008599273838 0.3875608077227455 1.661978148893742 -0.9582838296626658 -0.5417329787448348 0.15863937904418485
Ni 1.619840362974666 5.285889543833189 3.5660361666994036 -0.09889285511317161 1.8622752165303542 -0.32043401588789977
P 6.2553565797532755 2.7627882548666753 6.063735231211494 -0.692393196238285 1.242560164683086 0.14528429789351752
P 2.8072792773250703 1.70788148226617 13.275937528840574 -0.1731987649155985 0.015315547311147818 -0.21144700976351974
P 2.2937552801834693 0.5612695152921633 6.135535236229672 0.9945309849201582 0.4339412784801365 -0.4190831304213815
P 6.297707457652195 2.481331571012623 0.8654052741439275 -1.1168589311278185 0.031608885154532654 -3.46215624282536
P 0.44550891157494266 1.660327839145078 10.833674665751609 -2.6049918436135395 -0.15359590308300644 -0.9484606729246569
P 8.369275143613624 8.814351413896155 5.097469187369587 -0.32913822853011704 -0.19119545860333523 -0.3092306909729126
P 3.427487635804291 3.6634939220525977 2.701057076515165 1.0007700238513346 1.365723719418164 -1.5589796600949537
P 0.0029685281001682693 4.063728628957509 8.205768099269738 -0.7402036308533446 -0.0673158516378389 0.21778914993146364
