# total energy = -381165.15411222266 ev
CRYSTAL
PRIMVEC
9.23242735389896 0.00000000000000 0.00000000000000

0.00000000000000 9.23242735389896 0.00000000000000

0.00000000000000 0.00000000000000 13.51259066049874

PRIMCOORD
 96 1
Ni 8.616227332329908 7.338607123580184 9.457867400082657 -0.9798003635782028 0.0803559726512487 0.28006949602792414
Ni 6.984238869501383 4.380620533356364 8.643085386362701 -0.6067541208112259 -0.7194409443846964 -0.6986029245934227
Ni 9.133335581058606 8.873904376108126 12.610665590641677 -0.93928157752855 -0.020526659198442068 -1.0580760566616552
Ni 7.57703455659962 2.2431382152449664 1.1507334219754395 -0.7585322539592033 -0.3135339463339568 -0.4166105005111728
Ni 7.967335417428145 6.710275824102787 12.88143052325042 -0.9189590639211141 -0.20657656904509583 -0.09579570424508663
Ni 8.156590943060882 6.9912278169087685 6.985631119526527 0.5430740661537615 1.7198875234583413 -1.3434538522763702
Ni 3.075635410319335 0.08254528531036494 6.678611368457996 0.86186180468749 -0.03250080084118274 -0.8941448330909118
Ni 3.44729600058576 2.6784286939284274 11.55175142712154 -0.9326648435429807 -0.11754492299672015 -0.7993436315486104
Ni 2.60437539517726 6.251396493865999 12.948561348070204 1.7178129003174996 -0.38316044838284335 -0.27103566796043
Ni 0.9501829448787735 8.305934685811023 7.431951579012633 -1.1545849849236824 -0.5265601276591384 0.5689121102627879
Ni 0.8346465041317522 6.635816298553833 11.683796370985 -1.01683684750621 1.5359364051222453 -0.45076452068506245
Ni 2.8767227658119294 5.341522326240386 5.622048704151413 0.42337970091420635 1.65883719311424 0.7743890184858019
Ni 8.092988751925512 3.9447576441851115 12.89090299358064 -2.4387016328923163 -0.39598639650291806 0.7254077034910926
Ni 5.0570158489537675 5.983452991016432 4.698530855576482 -0.6808332593148275 -1.5720156673433054 -2.0014269191635727
Ni 5.6319929515127 3.5397956889273567 0.8088187889769846 0.2903143136843839 0.032976454926020624 0.43871298883716703
Ni 4.622667077846995 8.011346397997501 12.965236034876648 0.7402730506386993 1.026871863144709 -1.1486264533474024
Ni 4.756121813347322 0.35324374444310747 5.090328292857764 -0.06231788420261526 0.4780950901792153 2.8680259814257316
Ni 1.035961426202436 0.28078488587325495 5.459032659927565 -0.42151667956353855 0.31335988264993775 -1.45894266407501
Ni 0.4577345092612051 8.458509778089017 1.275543835867399 -1.064160315182522 -0.3200779181000617 -2.8409581786746623
Ni 3.1693168493454036 7.67905287740755 4.835034138545659 -0.08211409299293601 0.20973131262399364 -1.342234120936656
Ni 2.4061459502843143 4.537377915166122 1.3485455611579307 1.3351970115842167 -0.006536001346304872 -0.7017301573684948
Ni 2.8041004932802402 0.7502944328139562 3.8339546688750334 0.1373717279146602 0.9183088319316249 -0.08974435584468415
Ni 5.967730167456622 7.351477127128261 10.83396252407234 -1.2345771464776094 -2.166759136846901 -1.3030991026084073
Ni 0.3773588443481129 3.663325565163564 1.650225276321005 -1.5364403413418573 -0.14428542431535796 -0.1853253729758034
P 0.4089078946526247 2.868468975875071 11.199626652857791 -0.3247961495113374 -1.7353308545966049 -1.6141344508902264
Ni 0.9776863455744135 5.338410998266425 3.0343064498580956 0.7921501991239648 0.635384382953409 1.6076102766184637
P 2.389167516622253 2.644878053402091 0.09858570436662702 -1.4254545596198935 1.4551232903289197 0.7555361474453569
Ni 0.520613801345057 5.726099082191 8.05047711753708 -1.7434974495677973 -1.5353836179425686 -0.4604922894957876
P 7.019700622462764 5.086522686356676 1.005953268001349 1.0861674155812326 1.4154807362366333 0.5093447922221163
P 5.4093437366164085 2.433686280688844 4.801469649378489 -1.3800151963401717 -1.5159255092179569 0.2710138135835591
P 1.2947278963929008 7.73167771257544 9.89051371160961 1.9020465828910211 0.5551631361078116 0.05327531438437276
Ni 4.645120340851962 6.233771790298368 0.8295271232369109 0.7427505656449144 -1.2665002204384512 1.3973439174266062
Ni 6.664335266243941 6.557543780562012 8.568252870753959 0.18621857421403412 1.4132675306353983 0.5511925814958377
Ni 9.198959673755688 0.9105952201916858 9.281798550251727 0.0929968013437108 -0.07174791926726352 -0.2944406771479316
Ni 5.572397633791869 3.755280540299037 3.174053084510514 -2.0249648543845122 1.3344735031546306 -0.042456369391997845
Ni 5.125077302437573 8.497747593784375 8.076529180673353 0.36836349257932693 0.27369573129109637 0.7198983436370892
Ni 0.3117846067580317 1.8177356661167356 0.10904419792420368 1.430542258555446 -0.1848214367561914 -1.438736107220148
Ni 5.801888077259986 7.7510842745970026 5.770848656938154 1.490578802923052 0.6577781772675768 1.2199930780158472
Ni 0.5326538096858372 5.923839208441157 0.5874648836200012 0.16417727814327854 0.1745136270722801 -0.11635141690925123
Ni 3.6311228590117035 4.969418579467285 10.733644816358785 2.041943648330696 -0.39324200098856144 1.0146606657904977
Ni 6.650255814729724 2.14806267970831 9.387993621135086 0.7921568839921842 0.17742771539528154 1.8390468421300328
Ni 4.8472181727511074 3.771289569102742 6.684124050752513 -1.2993368073524976 0.3559448071999999 -0.6154922720151723
Ni 0.9452620611692146 4.374748709642893 12.478201494582317 2.97937737401723 -0.1455367802239558 0.5579988057843938
Ni 2.2901866643705056 7.022017961695596 1.661859057863998 0.6413159179464956 -0.477918455392035 -0.07703847824224151
Ni 1.3374371047238944 8.264490320009504 3.262831181438746 0.26659023059456666 -0.058703170268163414 1.727242935382148
Ni 7.5254806829895315 0.6462782147550918 4.873531513577777 -1.5503268695159622 -1.313071640440087 -0.2535030583933054
Ni 2.096268762990438 0.7078917410667476 1.5011409647758143 -0.4062006180317585 0.3296118257324259 0.31869492170960595
Ni 0.8296933069269147 7.18781388975612 5.2832740196513095 -0.014304075327497947 1.835016123704085 -0.04897951522249629
Ni 6.5589378770726 5.479057794573031 6.420575183260825 0.23798490815304818 0.28077526384569707 -0.003742497761567748
Ni 7.105857633302547 9.20688109631254 9.979102543779783 -0.22766552850491112 0.26414536859849996 -1.241708358205752
Ni 3.929644160821982 4.213051979269132 13.121333298140001 -0.6545828102587308 0.7808054635351068 -0.9791154216960364
Ni 7.6670230247367135 1.65731301069967 11.703497447434959 2.370161421929073 -0.40994980066154557 -0.6858044872771737
Ni 9.061691945812495 3.423864100295215 9.121187553319324 0.9984172073484417 -0.5578059730472974 -0.4938466965865172
Ni 2.526102877185439 4.197024485610981 7.936565583981206 -0.703032421119686 0.7439170751491898 -0.03673052265181416
Ni 4.323231765741695 1.2244875900846 9.371143518211417 2.3619359486954874 -0.7472319984550357 0.5334401426084232
Ni 8.638902173588214 6.640395582456161 2.381121456297899 -1.9084535148586295 1.3060394161836537 -0.6693270584474408
P 6.88920949610084 8.67487171004683 11.996464521028221 1.510390695442657 0.7627079826034477 2.6208036138348154
Ni 5.279074188507822 0.7866295733905794 3.1621487928499037 1.5334858866992236 1.3270108762289985 -3.08223718419795
P 3.961219061922717 7.238869212296197 6.734836850242636 -0.43438993598178094 -1.0043212315377026 0.5290540977255856
Ni 3.736418691483598 2.356503189109271 1.9427999717573123 0.46387766102825273 1.1276819898852515 1.4567497701887493
P 7.324583066629302 9.001034898961084 7.770158469238558 0.24318830673085856 0.13056807472926543 -0.3531765004262433
P 3.9385349882371887 0.5872506913084407 11.447002154341213 0.0073718669840389175 -1.6447398344809094 -0.6320442628365824
P 6.361760928883012 3.789846747819841 10.90812014925112 -0.11545127369248502 0.016574616529229518 -0.09503491481966214
Ni 3.4735807208880383 7.233652890915519 10.581655983209414 -0.7032000570458019 1.507179644704527 0.5715248652952867
Ni 2.2557035486947035 3.2146296021531247 5.687489994789492 0.007621263990683648 -1.7960253442631842 2.0228431800558195
Ni 7.399291867713262 2.4789898010693427 3.4826949730420282 1.3180235851287236 -0.9828016122983719 -0.6560966758000958
Ni 8.347794510837552 8.850527870380915 2.993741011128152 -0.7739269912477187 2.1105345100262167 0.1167036580423474
Ni 4.598413491533653 3.5172501016501654 9.145131853320713 0.8982285162419821 0.8666062613510107 0.2512281463161996
Ni 2.6008393755510664 9.083462009203002 8.857773479265084 -0.37699648566397653 -0.630341935433495 1.4526876843042338
Ni 8.431781901280061 1.4310446843321833 6.642262379240538 0.7324756660814675 0.8439532998381853 1.6582782352869763
Ni 5.668045579816317 2.094763877353181 12.44723039422193 -0.177156721122082 0.9269400252440616 -0.835595157681477
Ni 4.1040908731899295 8.414960418880781 1.959650074680982 -0.10133668866797386 0.5628327368379274 -0.39296586450903936
Ni 2.295947698957306 8.638043557856527 12.75810191392766 0.12910177459638408 -1.0902032762135032 1.3897311380763548
Ni 6.226856702308763 7.673633442627978 2.812131781721038 -1.0178130953765503 -0.37257650221940997 -0.2704921367521342
Ni 1.568395504120379 5.016365471893377 10.215450834188726 -1.4484350796754668 -0.6726648645714222 -1.1330964760326034
Ni 6.141733723317893 1.9502763913220418 7.283664949179461 -0.5859412978309329 -1.5353517362633688 -0.9937110601220243
Ni 1.4627580718412545 1.5422308053719924 7.34872771030142 -1.7213718213133513 0.7950200644725921 0.47620301536282506
Ni 0.4916904533426063 5.154196377897139 5.385402206343185 -1.2657893104143556 -3.4761160474395614 0.663339216295122
Ni 2.6601946501641143 3.9020392034268956 3.6885051639273163 1.0029616321860146 -0.034610648095333936 -1.414304199430029
Ni 7.664659523367769 4.833849618133019 3.3612977874942036 -0.1304102089951625 0.14468548796725403 0.24899385766904214
Ni 2.5207296045419803 6.492455168643831 8.262611521069736 0.7314001736291017 1.7661383268957647 0.24293865261389774
Ni 7.6342571405242845 7.286711650162865 4.465087086771717 1.2064055691393998 -1.2929417024594314 1.5456826858757315
Ni 1.7046015029329924 0.6898155718079381 11.05943409197053 -1.111943753214388 0.26522651747782067 -0.35584916216240003
Ni 2.2952644993428457 2.269072103312792 9.472690985231 -2.126825790987073 1.4593944069004479 0.8689649913911744
Ni 5.935601320722542 5.524352082526307 12.33804863313211 -0.253716202845376 -0.9576572518222604 -0.19283325131707435
Ni 3.858997627715894 1.2226226397856674 13.497469769123866 0.29028063223297107 -2.5421270857685188 -0.19729771484633116
Ni 7.014844365743762 3.4485608431152337 5.536756771742374 1.9212961751492525 0.7581959536657071 0.5436762185141346
Ni 4.6104618090589335 5.992140705032746 8.816802736980074 -0.21564947788064148 -0.8667438153701396 -0.17431488079791269
P 0.0635652614264789 1.7030412227324006 2.3856342667242263 -0.26394945053760993 -2.3404371553917627 -0.992453019345207
Ni 8.233912521048792 5.082072656435462 10.705417593368905 -0.29763270172266804 0.415365058139846 -0.05673319102598617
P 3.3755415762129792 2.287897022419341 7.64469439949925 2.08362457300925 -0.34460701358967744 -1.4185981988196923
Ni 0.6777801796807692 2.3721152235424117 4.174011737516334 -0.05379056345789445 0.5541686334050263 1.3208679965560541
P 3.6859819415674244 5.697238514693662 2.7525013807767618 0.7173223553797969 0.1634889938270023 1.4645844357418198
P 5.7736737796682185 1.1184531634349106 0.9805207007317016 -0.3980569058787015 -0.3805957729794606 0.9613791807585378
P 8.691905538272225 3.841077486477144 6.92271674421923 0.23661476727839892 0.37308789463818975 0.5883347377637738
Ni 7.0368544722420525 8.523746108842756 0.7441354806138685 0.03565991529545472 0.4632518545187957 -0.30773070938861835
