# total energy = -340892.6025514608 ev
CRYSTAL
PRIMVEC
9.06856206730532 0.00000000000000 0.00000000000000

0.00000000000000 9.06856206730532 0.00000000000000

0.00000000000000 0.00000000000000 13.27275724980528

PRIMCOORD
 96 1
Ni 6.430127513587531 1.9790232621110762 11.347517282967539 0.5190720468122092 0.18891411876832626 0.5422356294128662
Ni 4.397626940135299 0.22270484385025635 5.92164053459237 0.546086370617524 -0.40080027295179366 0.5363832843971472
Ni 2.5973631762702563 1.4960044332211382 4.936987839167931 0.1801695398064768 0.8178715151494689 0.6256936380282063
Ni 3.622464379711476 4.604644078221766 5.155231857268023 -0.6414239042792695 -0.9986830594153188 0.12247835574259552
Ni 4.791447391146383 4.661377003395629 2.1767324279471514 1.351869587143891 -0.26744640794727487 -0.16456422916905206
Ni 7.218385077839848 6.212228100851346 2.5202042215788727 0.8007495107572016 -1.572476409029808 -0.16147222050728965
Ni 5.043072786734485 4.765864977157338 11.602381062120154 -0.11911920946237549 -0.33411922668447624 -0.5093692177021486
Ni 5.397816803190873 7.767504656664615 12.326542935541855 0.7987252812383212 1.2072643175952693 -0.02595117264812305
Ni 1.7997740615058058 6.641016927736856 0.442947573061014 0.2123620653786214 0.5186213324280359 -0.11861964411813765
Ni 2.8208578918888376 1.630627239200357 0.7038818477557295 0.32130433430799504 0.056899284290205236 -1.055810657666246
Ni 0.5503492758601842 9.202051443801471 4.754063150299719 0.2947337829083182 -1.1555002976491002 0.9086129448000998
Ni 8.639927546770291 2.3978094648810537 1.3258491867981488 -0.4065230343681837 -0.2164148952917563 0.20891781558376277
Ni 6.6851898942525025 0.6408045564610811 5.054279715911252 0.16188025457898575 0.8487458361308221 -1.1875035900285742
Ni 0.9150451324837392 7.483377534122688 2.7045635569884063 -0.66588229443195 1.0895355607225172 -0.2746629803003721
Ni 8.003840456369863 3.834541775510062 3.744245194747807 -1.4040925490043497 -0.391173548495307 -0.9144205526208122
Ni 7.66542892045026 3.832437869077783 12.645380886791498 0.032805219455478984 0.8163805324262392 -0.20522879676794978
Ni 8.044630849181889 8.693368583862615 6.902510732719811 -0.6826050065032696 0.30763429302007017 0.07887501723034802
Ni 6.964945969810127 0.8660576662918131 0.35300103879999145 -0.2210793906469612 -1.0019637870491196 0.11645991746265749
Ni 1.6057340359391272 6.398650534163222 9.468811362858666 0.8977117245065636 0.6554541571200906 -0.30951711186507985
Ni 0.12566215966139682 4.872502200162365 1.3888085867840918 -0.6991657390754281 0.7656292700153008 -0.13880331815486419
Ni 6.4491261514134965 2.272781197718003 7.0721100762794435 -0.6792111503303722 -1.6697242723403891 0.4002202320786075
Ni 3.2323620392057126 4.206398168853131 0.24790547137034064 0.38133136559390457 -0.06765600858607704 1.1888703884691139
Ni 6.147895720547096 5.600671471223824 4.617287467652297 -0.6663335230367556 0.6748526162513603 0.11608787883521944
Ni 5.368951569682496 2.8730383988342356 9.149177191847153 -0.11202913538481352 -0.3651701824530098 0.6610007979699326
P 0.36574871669591513 5.696943327624994 12.349398432874926 -1.5684611172228278 -0.808168428929092 0.5638609209921257
P 3.7829416565459826 6.266240457362779 12.790425284460262 1.0038743738082712 0.0799764778246429 -0.5740514883718824
P 2.3975374080148106 8.562953590747954 1.4497039820114719 -0.18184461351605458 0.9952920314558987 -0.46171690593150805
P 6.198189966553209 7.731302956329886 5.752824714807517 0.14656213616467662 -0.484642661489746 0.209552106733652
P 4.90361643709835 0.9473745567556094 12.773104330642797 -0.7871324341943993 -0.04801278043385279 -0.6674385831754763
P 4.145720419118746 6.080108218041562 8.329823527783267 -0.6504119667104927 -1.138078502628227 0.781621274568183
P 4.7216738735172745 1.2883887700289367 3.844865426727761 -0.4129255954604179 -0.8644994994206532 -0.22660931932625492
P 0.09812093623540241 5.7513365637491685 3.5607355836171717 0.67397201341862 -0.44901308521159444 0.06492961079384947
Ni 1.5290139996586158 1.2328347579421266 2.70157727945328 -0.9897163371403342 -0.5006992007319764 -0.42034117119819864
Ni 2.042494129005556 6.428059881404085 4.795181825063677 -0.2702689649977345 0.020209642178655514 -0.1612891579622061
Ni 6.184061146632992 5.377249304102906 8.966875513202638 -0.8460451493702075 0.6818478166222709 1.4403260774150872
Ni 8.850064270256345 2.389965158571049 10.0740626211829 -0.26562401002655545 -0.7589605997458735 1.019748107615734
Ni 2.364010933531472 5.055850390885695 7.381458684034533 -0.17369473071541056 0.9638032168189983 -1.0737554150701247
Ni 0.25221847955651217 -0.193322702296018 9.265592138624953 0.5977742859101189 0.5087917479321237 0.45340272963885786
Ni 1.44392368046003 1.0529779636689136 11.376094136197699 0.02330550749515986 -0.009361900830874199 -0.04063371436096228
Ni 4.13229894705076 7.093728621727329 1.5851121254779117 -0.17178877194194928 -0.5385913477920595 -0.4670061793549054
Ni 5.617520859806469 7.6089227093316 7.852747327708296 1.0709387715569363 1.181867217678403 1.0170854731819063
Ni 5.397091318214225 3.0611747904034416 4.934651777543124 -0.33955890964280877 -0.6753930621358627 -0.9214430066852324
Ni 0.7888152808281154 7.2416187342169955 6.937404746384131 0.41135979363519476 -0.62543704193271 -0.009990021333176342
Ni 5.283888456170534 4.276081000860159 7.052638966362436 -0.4642538134207488 1.9436814848229882 0.09022926590090267
Ni 8.015049199259073 7.023773732854059 8.892190462281624 -0.6214536318049297 0.5940109622129448 0.8290403872820948
Ni 4.729255191523245 0.46023497319831175 10.426706358631893 -0.3410653189850062 -0.9823940924473081 0.8084319670031238
Ni 8.01410606878943 7.4026763990328215 4.608009421657192 0.4635760706274339 -0.47336734568624284 0.28197185525695956
Ni 7.394659790040862 5.984824834921073 6.788510744058028 -0.02222153040236173 0.2667385832469729 0.3461401624047522
Ni 2.4533362712812394 5.549152969319617 2.516701035997885 -0.5960197651128575 -1.4169449794869855 0.24951142073540902
Ni 2.290872979323159 5.250643107115646 11.611485898577085 0.29088252748302806 -0.22038544990373013 -1.6820321431734646
Ni 1.2597321134513462 3.3300395227491393 3.8932053975780287 -0.6832146150628104 0.7609017826326444 0.8351732396527101
Ni 3.3807055798057846 3.0214454193697633 3.07154197071974 1.0569517132492248 -0.5929310988852047 -0.5699948018040054
Ni 1.3429905830838962 3.233105661306777 8.36122705185369 -0.7331930038634664 -0.6672668334843025 -0.5312158812635948
Ni 3.6749350806475327 2.6066947267823894 7.1381156063110875 -0.33968360814613113 -0.40524725297955366 -0.24272962192688516
Ni 4.00979174018156 6.681553400807055 6.300963075201366 0.36232988479073724 0.3536187301699845 -1.4769277877985207
Ni 0.7238553560190658 7.682958451198513 11.49988907890045 0.9180434940853802 -0.5267866418476476 -0.3003508719847795
P 0.19385049261652929 5.417731365799857 8.178899074378771 1.0721993834369148 0.4311488033366639 -1.1865494536454209
P 8.53797877042685 1.4722901430469613 8.032499833516116 -0.3887171165350144 0.6441837264125938 0.37669335260126097
P 2.0188251816424194 2.9993816075174604 10.439568300411638 0.035678170127899846 0.1631156696479836 0.7230032078146581
P 4.22400024809905 6.091489263612725 3.7350732509305358 -1.313505899764028 0.3413357990375735 -0.515582545601712
P 6.890955570754253 3.8802473290388773 10.438878182827603 -0.07662684462611964 0.8912436002837166 0.0496423456174758
P 6.259819915319445 7.830440478388816 10.236441575512446 0.435021913138825 -0.5020827113430643 -0.33757221823008315
P 2.4039851557447687 8.325239369587074 5.7285091789589435 -0.4091704992933598 0.6671997276917929 1.0366991336477758
P 6.963721713912033 4.05176104608064 1.5490101793274724 -0.56808447215517 0.29053440011498993 0.17605963140316133
Ni 5.39978468119003 2.8896792104860953 0.3024565004769349 -0.13156283454236697 0.8925250380993016 0.5244759914366
Ni 1.3401611916749696 0.780147549069615 7.2115673327718 0.6291065203644972 0.3185663665515417 -0.8861908683511577
Ni 6.788761943231194 0.79702867761999 9.263986096257899 1.385272330974053 -0.8320755745639927 -0.7788611953245426
Ni 2.9394112056353063 1.34831382910005 9.1400451497036 -0.3622985173321696 0.5012347615204722 0.1842678782455665
Ni 6.409550945937355 2.004932144339613 2.5787109575206393 0.18181247472653853 0.7984941390641216 0.43953677029004307
Ni 3.972637840814982 7.102089836083197 10.405735308525665 0.4677944795841557 -1.2250717780903353 -0.3837988532977907
Ni 8.142852446457802 7.156065918345797 0.09570597811938583 -0.1327483702100359 0.23141599668627888 0.5610751307168724
Ni 7.940904634645661 3.8052412510156963 8.355015086741144 -0.8744121305486746 -0.886375473558138 -1.1628731930744038
Ni 3.1057014308452047 8.58929776396248 12.354680870361141 -0.2111950416537137 -0.09705425924253608 0.5486831848104228
Ni -0.12934580963032635 4.87787078898956 10.350149556471127 0.7120145700136382 -0.6886177883562528 0.13145639087148972
Ni 8.430180771459186 2.211786048306334 5.978607428671201 1.9627909519589293 0.7630239711819697 -1.3941755470009538
Ni 3.9418682092429047 2.5737667774047845 11.566358919317146 -1.0633475894732396 0.15889417536746828 -0.1667013301167129
Ni 1.2197306855514247 3.2579807274435906 12.588812102593602 -0.8423453319211172 -0.10100193103637443 -0.1472923294624818
Ni 3.1030624792426478 8.194733690850331 8.043264216857128 0.6160885108382744 -0.2451595715246165 -0.8278350541200841
Ni 5.5478743020482755 7.848223928878896 3.4971459185577656 0.20599241440685168 0.45925327488236395 1.0547073972997383
Ni 3.1017112634736415 8.598892302778646 3.5907452696762108 0.7451573753141941 -0.47127061105821416 -0.04216583473477255
Ni 3.5276797675124327 4.256229918186631 9.471293428335025 -0.05288399248322506 0.8121749789853238 0.012473706986978517
Ni 7.232758748939684 6.1091094799830605 11.31870192655131 -0.6361192042369045 0.6782112483109481 -0.055835876022697385
Ni 0.35354243196381485 0.009501132625424551 0.4070659929722316 0.9867343716938748 0.9676896963575979 0.1187821378379309
Ni 4.768123049147154 0.29875652709603084 1.6411494919304133 -0.05934311784500748 0.796433399880351 0.1416191903371045
Ni 6.012520223904605 5.914761123301306 0.23199739954489465 0.18880716087681676 -1.8013017621707752 1.3961478402359762
Ni 7.834303685889466 8.890881868754995 11.411678267446057 -0.30313743359098116 0.21840364358701095 0.22367260529543417
Ni 0.18921555047197028 4.948433271530771 5.572646893432137 0.4708731185094793 -0.4693541107617916 1.2481500000660375
Ni 7.845739142833878 9.015719696111676 2.7538185457654714 -0.23949980213567787 -1.5495599094429506 -1.5112522721120036
P 8.560124199339027 1.5808226955534812 3.6975647707816206 -0.3518410694442715 2.633995687045057 0.26359695229419766
P 1.5094168367269156 3.2668225755964864 1.6726591181786716 2.8234510230288343 -0.09461685344563706 -0.5361158896683735
P 4.965618196915118 0.849964595797322 8.16792248668209 -1.4560558294455181 0.5596841639066168 -1.0421701840646762
P 8.550221329407783 1.8156168396833534 12.297395669748806 0.054161316533751884 -1.5245273919543552 0.6949324177203708
P 6.403737997561964 7.789205726028594 1.4041380843406612 -0.15415717490311517 1.2029613193445412 -1.0002064380383806
P 1.8119440719890738 3.2645735721688776 6.094359463551588 0.3946363102329268 -0.33972114625228594 -0.2818957506033855
P 7.0862470579056485 4.091327182994572 5.802398010118085 0.8259386084283195 -1.0665802374779243 0.7096542973115778
P 2.3581707794694564 8.468767503654645 9.994505938643696 -1.3288060204562082 0.8014159406966068 2.038335105043831
