# total energy = -340870.66770799254 ev
CRYSTAL
PRIMVEC
9.19902667365426 0.00000000000000 0.00000000000000

0.00000000000000 9.19902667365426 0.00000000000000

0.00000000000000 0.00000000000000 13.46370538875953

PRIMCOORD
 96 1
Ni 4.217523727495591 5.342371503000107 6.6970891550835505 1.3174196329961376 -1.102717863740746 -0.7881048254099975
Ni 1.7571980640737395 1.4014901029094458 8.396370147586731 -0.041789939452592545 1.4568559567493102 1.5200127919134532
Ni 0.2789292054215176 0.5814171180050751 0.877538384268114 -0.6061509400095884 -0.74826043971955 -0.19530819522012816
Ni 7.042241233206672 7.866474017946527 9.85272600493841 -0.41026296102659016 -0.24536320289499033 -0.015291893162063985
Ni 0.7518070083914862 1.7756513114642323 4.827613291558206 0.8607600869828789 0.4972570078196468 -1.512986481194291
Ni 3.594639237313615 4.770817581332064 12.30671537882757 -1.719075569080007 -1.3363974596502208 -0.9068509678036705
Ni 6.036833619276512 3.1823940585710715 11.074045812363948 -0.3579713507117254 -0.7266865702035163 -0.6892366528871743
Ni 3.7471039044372567 5.356050455577208 4.010299094735794 1.1540070009330252 1.165564623863638 1.2906187107532094
Ni 6.7641730566763565 4.712008204179812 1.772267909475088 0.37179822929248874 1.6800205120600742 -0.6437389255656913
Ni 7.171754328924892 1.0476495441480786 10.342602689190974 -0.5175584383811603 0.8445117434448165 1.6740838348606653
Ni 5.78345563018193 1.3853642092526495 6.4010626387946505 -0.7272244449848572 -0.0076338623961739495 -0.21495116626203625
Ni 0.9493763428157587 6.111658501766176 6.813415446148594 -0.38453136058844095 -1.1636738345988282 0.730175300083065
Ni 3.561909100616021 0.35452128673090694 5.283359747262316 0.15736488320713543 -0.7194124051396061 -1.3065729200896208
Ni 5.449144604925057 7.86928892009084 13.441866984043997 0.04481947030753572 -0.7986201231190245 -0.6335797256445024
Ni 6.770115627869904 0.13117352002229865 1.600457689379259 -0.04765873952854372 -1.097809370695535 -0.7480928037934341
Ni 2.759468809928049 6.709806809379342 11.120347273027242 0.24309960367179423 0.3559646046943418 1.9649753612047578
Ni 5.024876298396185 6.991674183901818 11.174552537358489 0.9029310639239739 -1.3226878233736123 -1.4882018180504433
Ni 5.203070642963103 3.880094232216097 3.0568402239081207 -1.162851595807849 -1.8891812968925785 -0.15163697958442274
Ni 2.7267018771239937 6.455600907889374 0.11139837250717291 -0.46812820877449063 1.6273897732382363 0.7603060580301745
Ni 0.46800875818243726 7.307283588049582 11.465193023564073 -0.8144920571542745 -1.8299654486540546 -1.0987514228938302
Ni 8.521352722696866 6.409743760211604 2.975102272916983 -2.0433631543860424 -0.5572588422945758 -0.9404671131962191
Ni 0.6005547729757535 3.93154438807603 9.94427931732818 3.29012244475214 0.6119351507915333 -1.5835390946018728
Ni 6.288840953405399 6.206850029182338 8.0052900892809 0.467331166794492 -0.4787952015700335 0.07671631901613239
Ni 9.240330244903312 -0.037230300517847544 9.967262165424094 0.5443508759836561 -0.6541580640164864 -0.6022665173535175
P 6.05771540969347 3.5208170487250285 4.957066593603425 0.04104637641834866 -0.4830331509107811 0.7334495999589626
P 5.922038966142933 2.084940984327216 8.710640173459293 0.4711135166550596 0.5676070182981192 -0.11598014961276155
P 9.18877889975061 2.0106128492747835 9.409056951277659 -1.0963965495084087 0.33111874929525553 -0.03899309343374575
P 4.1097571306961775 1.7715485455937636 2.187380424813651 -1.2063176374112838 1.878930565698848 -0.7924530750763643
P 1.6101516236265678 8.064317483363938 7.761705383921074 -0.026217281825316137 -0.3699696607241822 1.019350100846367
P 7.56654895417802 0.09775989564718063 6.064806939311283 -0.019273760627947452 -1.1852325346062105 -1.1013991449293226
P 2.308008180724055 4.768894984769446 5.665998778745855 1.7538679941688438 0.555279864191334 1.390786575924063
P 1.6131965014362653 8.106743394114163 1.3138822530350207 0.2964875323746313 -0.5839314664897556 0.19730465682486667
Ni 6.389837066615878 5.717057056071971 4.195936371737231 0.4936497500843627 -0.33399195707799256 0.7253015169305315
Ni 2.1205228192755845 3.7927954696359496 3.746491249264671 1.0204649311771006 -2.4196834399186002 -1.118299777339403
Ni 0.06291582263336788 3.5128690897293224 7.222348975309592 0.6404214311566842 0.5647199265583113 0.4829138517240974
Ni 4.814365773329369 4.617322623227498 9.194687434545681 -0.39262930710522703 -0.523570448903195 0.06443004544961162
Ni 2.9566039502960746 7.161083458051027 6.224338298680875 0.3994080205899573 1.5269542562282927 -1.4903309485783043
Ni 3.8400140732527985 6.778578732356073 8.501750516882108 0.6921250301785629 1.0154006292803157 0.6067453790604777
Ni 6.259532854608734 3.8828355421474865 7.121061252955406 -0.3059296516241376 0.06873458636223646 -1.4097870282859655
Ni 8.407404380011904 4.479199238597263 0.20024165165604618 0.3099580560572404 -1.1261089889711766 -0.23080767367831864
Ni 5.639260887985532 1.3277599045870134 13.264792161016176 -0.5113481958053904 -0.488761568754126 -0.08569743946882015
Ni 7.513286590074854 3.6049329480962475 9.004229867597774 0.07839962025582627 -1.1124361194697745 0.20481922003435693
Ni 5.617238418268264 7.313566523227901 2.2762678592902783 1.7201739443505084 -1.238277478147332 -0.714963368229317
Ni 2.110201511413105 0.5366169384854147 2.6479738476414143 1.4814745266289389 1.0840349426192621 1.0315052481516622
Ni 2.522299505729802 8.831856667073083 10.115335217241544 0.06586986321993171 -0.2496741715655184 -0.5222090497792943
Ni 1.0262710062938885 2.5405687725879864 1.8221505511997569 -0.5715328357150866 1.443092584416631 0.5707393932795138
Ni 8.92157477365308 7.375531166509235 5.011204705040377 -0.37539983060081794 0.3730858377556607 2.207866962630804
Ni 4.093447256507074 2.5931228116417677 7.703757035660021 1.0155140149297286 -0.3638260097202895 -1.329901567513232
Ni 2.907094789051991 1.9348312680171165 0.07701885033743787 0.12083362105032094 0.2996016525235808 -0.23992017750254807
Ni 2.6275731663164414 4.121936641934967 7.964576117383801 -2.5500849071630145 1.5973086375821393 0.4106141737184219
Ni 0.48014871360678085 0.46418380291575384 6.76048976641955 -0.5621753057595866 -0.3670943960589162 -0.8365364385488236
Ni 1.9501568463583732 2.1304761660734473 11.113710175324233 -0.5346958693923952 0.4533675055255482 0.27258347206352407
Ni 1.0476127480416169 5.14094041720269 12.24707073005864 0.8366559948458236 -0.7926597917705316 -0.5334224019966104
Ni 6.8136270237607475 8.322892922496221 3.988017212467972 1.3438803982908274 1.147927627508165 1.3119503823514505
Ni 0.2865377203351151 6.406358518417136 0.722621256648806 0.4940588125973233 0.9884305284493752 0.21694042877792316
Ni 3.491959702232518 7.1434213269494595 2.515693684717283 -1.792427342499281 0.49251615070055177 -0.7732613326392618
P 4.605879034117939 5.6611637703568 0.9638758485669524 -0.09212596870298327 -0.11813396273097075 0.42285056788361364
P 7.988453110866733 5.5593857398840125 6.627912474935742 0.22900610169320562 0.11571275488398781 0.4441704124073125
P 1.7541255891841958 8.427743427858553 4.538224792874979 -0.002901489917511132 0.4675947048685238 0.4751185240493946
P 2.774711597029767 4.667549308547581 10.190839907798086 -0.48519622000037077 -0.15140172364516505 -0.0993728800733837
P 4.945442703572206 7.362109786677367 4.3610561397756795 -1.5367997815638048 -0.0491782614968637 1.2957202936458332
P 7.891035419009646 1.1791404305886084 3.0859487038272317 1.5603850250829128 -1.466580897346558 3.39110277852196
P 3.333672051261327 8.472423100129552 12.513329196220104 -0.21571555523188654 -0.08573574890592331 -0.3856672739650971
P 6.9819876088758015 2.91557629159139 13.069272369721814 -0.44473348399963414 1.7780325072301895 -1.020869622814687
Ni 0.11383151504694625 8.635107885822904 3.0822598941544563 -1.0114827822831483 0.551253002420128 -0.5197559602531113
Ni 1.6812417013103804 6.441048047783811 3.6400336739526296 -0.9847975596824783 -0.125208610189565 0.5512185496377668
Ni 1.1600892464681147 0.0361558542091688 12.148758892814534 2.130397567498731 0.9358085313782851 1.0221626305944977
Ni 7.901117552180125 2.340968293087034 5.763610570064527 -0.6579442705317959 -0.5838916143907557 -0.19683800160109324
Ni 8.728100845877984 1.8050973956601282 12.368123480998676 -0.3020799388607443 0.09717381553953588 -0.5827420741673447
Ni 8.13814887097914 4.150297240990246 11.212870162822275 -1.3193795849359857 1.2119627515122031 2.6661033662128792
Ni 5.5094534234156205 8.077821654435347 6.7431486813468595 -0.12406935437879923 0.4127972974126697 -0.6136192233621754
Ni 7.543707771091982 6.809294282224894 12.439116968903026 -0.302741226593827 -0.7885295716522419 -0.722311323953956
Ni 2.7080094550415 4.381110017797251 1.6317472585088812 0.732752573891938 0.6578080020642477 -1.096501450517389
Ni 5.708851524331034 5.207660957244187 12.494507067862333 2.904901514295842 -0.10964186609955956 0.37400397869455587
Ni 3.8213492482501517 2.703373145627339 4.845142956676513 1.1444237281199645 0.07809700141374291 0.6159866951530876
Ni 8.522051848719636 5.842136220961567 9.128553792402245 -0.024630139843854357 0.24646234949644005 0.007899714463050912
Ni 4.921902394463396 3.491738925593748 0.5522396453863488 -0.3007941301697852 -0.4708569205595633 0.7465342010570627
Ni 7.929754122033866 3.558625048114323 3.682081504708962 -0.6318946246325956 -0.5549844444381022 -1.236687507952393
Ni 8.493360084706202 7.732784564144917 7.657913686522176 -0.23643016207141862 -0.6716693334273722 -0.3822158250813869
Ni 3.9458396754363623 1.5647360292263373 9.806128335618098 1.1728087070205608 -0.25230029633445583 -0.2395532810814326
Ni 0.4508010589956697 4.626862013827667 4.747867849731964 -3.8992586926422974 1.2192615991664615 2.7567612350107686
Ni 1.6862551708157734 6.336142348261786 9.280679935346441 -1.8775707092368439 0.3272515530303654 -1.6203526638857968
Ni 5.051093524250076 -0.003752282956421727 11.475061739317074 -0.0643246302199989 1.2386451458993957 -1.5121652708445763
Ni 7.561507887592781 0.6176309260819209 8.136655868959462 -0.3993473425553509 1.134807030965807 -0.08402210864892627
Ni 3.539583063020445 0.28534000706979 7.598295714930428 -0.33500214351006175 -1.2394347316802268 -0.7944053137067286
Ni 7.698876952040552 2.3038686187471247 1.5074776079614405 -0.05629738904014821 2.606114644364073 -2.10607801691676
Ni 5.69152055818762 1.353609169376288 3.4526191450090975 0.4981448097412388 0.40796748012419415 1.7117744074329038
Ni 3.86624969715992 9.158670485638403 1.1584334216773426 0.4535181721707996 -1.088217613242042 -0.6840221985657704
P 6.616942635696876 5.455390743996913 10.136662240546688 -0.15628733387224053 0.8724321240041684 1.3089910426128102
P 4.849634841372813 8.745643389633551 8.953714332841965 1.8492060420512217 -1.8919740291463671 2.281102522187188
P 2.359200763838757 1.9678925696728649 6.3815137873342636 -0.3998841888954275 0.14994570792492884 -0.48256803834890444
P 0.5110629624504947 4.737038755600315 2.547535195443829 -0.034358937095844054 -1.2355744773938722 -1.5175748718959219
P 7.408684458431138 7.265593599428589 1.0402047719082352 0.7592387931079246 -0.2895815492834174 0.8900246402749511
P 8.098077911042457 8.82226208231322 12.180937087915204 0.29786101568339024 1.0421413877092698 -1.436640401033384
P 4.08395386103998 2.7275113914661486 11.580200174212466 -1.5201256633422335 -0.8299757546121705 2.119435669170589
P 1.0796621567696711 3.1382295317905355 13.187672121385967 0.29960833739180015 0.14086534289021546 -0.35764790593403567
