# total energy = -340895.4966610497 ev
CRYSTAL
PRIMVEC
9.04291041063028 0.00000000000000 0.00000000000000
0.00000000000000 9.04291041063028 0.00000000000000
0.00000000000000 0.00000000000000 13.23521345735591
PRIMCOORD
 96 1
Ni 6.449340356200516 1.9783717531833935 11.394247890290249 0.44983018179625117 -0.004315853766534503 -0.39162529132074486
Ni 4.5582055590953034 0.4945395851248252 6.041107211679585 0.12658312193958846 -0.43628895277670665 -0.5032466497441784
Ni 2.621720566620331 1.63159422735297 4.697468186958392 0.6212086056736592 -0.24946077000313163 1.1211814697625724
Ni 3.3662595467945797 4.333932339680462 4.965309244114404 0.16690316171487385 -0.2331761739104952 -0.6993961099186793
Ni 4.951843446322756 4.625213524736365 2.778229833089442 0.9212959395844068 -0.7473417845600226 -0.3570717217155915
Ni 7.149840363004729 6.067277394212005 2.6757628074117092 -0.44590539282054825 0.195465803843915 0.08706140969588233
Ni 5.310412927240352 4.530932141501047 11.564334182348226 -0.837286686451287 -0.36587543605015055 -0.06657023172106599
Ni 5.514267255100872 7.731805901033902 12.399581691881306 -0.3093440766223253 0.18347135048620014 0.14722213834617873
Ni 1.9471465837692792 6.327025950902136 0.4658346748232836 0.018427610577568265 0.014686912588213417 -0.336778261573878
Ni 2.768640730961806 1.7174295323279982 0.3434117546007876 -0.8529876421263116 -0.3485071199750321 -0.32087650274195706
Ni 0.6806345413628786 0.1810028934239533 4.4637614034738125 -0.8878304608371096 -0.7388702567539016 0.90788969348083
Ni 8.764008902126884 2.3448176090096755 1.2613829036598947 -1.0165619965782686 0.6225214109478118 0.4432638414326431
Ni 6.93866127776644 0.6750424056068148 4.771294506998017 -1.2263822693716426 0.08942785304552986 -0.6261263546902508
Ni 0.960384207149486 7.240631182847679 2.578126504439166 -0.9675590843170047 0.3003380164689731 0.009885120324195877
Ni 7.492756566118724 3.7781821987354234 3.8985912628245503 -0.12279768675522724 0.48151311472182884 -0.39768820968537316
Ni 7.651143140775026 3.825992065718459 12.600015991050132 -0.08761034022081685 0.09193750684126102 0.033071842853304334
Ni 7.940624786672688 8.807224970655716 6.874806574961956 0.6137284952465302 0.18875651014453942 0.3372374605984837
Ni 6.820389053391346 0.5856695141056351 0.3176069056462216 0.2184398961415851 0.07446069021273628 0.6615594986868801
Ni 1.7498935804590927 6.6482210833724285 9.263286067980367 1.1872907026868198 -0.10826092659163289 -0.4627430332031773
Ni -0.07489609633319386 4.994290867472438 1.528640693098788 0.5991038033548198 -0.8025294854757599 -0.5516073004357532
Ni 6.499040191445222 1.9431496173977072 6.971410177573337 -0.19402521474264647 0.17315248505869532 0.09274611878548544
Ni 3.5805674790115196 4.035814714405309 0.5296957076650082 -0.5246066034771933 1.3378316209935863 -0.031125517760210913
Ni 5.7448072113833595 5.797066190255114 4.898616876044309 1.2655386278561302 -0.1577423211512122 -0.23765375006587458
Ni 5.304706850813967 3.0673642312299347 9.246318855303942 0.1487159492828858 -0.8115208903410928 -0.4858806476619052
P 9.271967261909575 5.693561038470013 12.392024531707722 -0.025598674404710753 -1.6383820105836817 0.5633428437051266
P 3.9521316220918963 5.967959109915678 12.701794851250767 0.1561955454893826 0.2027602806227992 0.007386522272058247
P 2.318213366780795 8.398440208603867 1.2783021889115043 0.210043958768406 0.7598142059954205 0.5930249441505916
P 6.28110605218077 7.898177365523006 5.80691030245442 -0.25502515146478655 -1.2573368087716281 -0.20468243734617653
P 4.806388233456834 0.9449027446424013 12.663214178563718 -0.9434729899020784 -1.352647088739864 -1.3364483674928145
P 4.0046980599153095 6.315541454766622 8.286752127249454 -0.376411559694784 0.20574661694463278 0.338493701603088
P 4.7413244935395005 1.1804072587031536 3.763962222221176 -0.46113866483053484 -0.4815555379239901 0.3062613239319435
P 0.09607640093838889 5.495087242263532 3.767205009870149 -0.33238656026408564 0.36485522231575224 -0.4043213987311746
Ni 1.3937295136927148 1.183291947102546 2.489199428417892 0.3115392845014312 -0.41607699660520603 -0.6314503380063254
Ni 1.8558584038574684 6.445234874904829 4.778110148523479 -0.029664359833652135 -0.16967481092274003 0.07023045418147258
Ni 6.2211425136968455 5.675891191659941 9.200696468332858 -0.7463637369174695 -0.37209364904572045 -0.378792915442767
Ni 8.559512527632018 2.0763155151075963 10.055546294616292 0.5961205523567799 1.9537537814573251 1.0409093150743816
Ni 2.4514425648630844 5.158175531617237 7.005253269531727 -1.2017246187239627 0.39473786880779754 1.039576198085255
Ni 0.7774045335245697 0.21335571375783008 9.176555514881391 0.2685730653525503 -0.4020624274936689 0.2397772241667806
Ni 1.3904469372382335 1.0652638813067108 11.467055074334228 0.7293108952002407 0.8297674952561065 -0.9763288600898347
Ni 4.191325643572561 6.714623174020514 1.6188120735832476 0.2682192815575574 1.0251991034279762 -0.24387993348124448
Ni 5.814609436320384 7.784661711988289 8.031736629832812 -1.066709306856621 0.7840018589852176 -0.512333442536795
Ni 5.285761953645543 2.927551794417998 5.0189653526341385 -0.4191579495233749 -0.4199668185779154 -0.6281171598680343
Ni 0.724586702793623 7.30089313737292 6.720880867977818 0.1444602593303254 0.022973578077037853 0.6939715964689984
Ni 4.8946470384037655 4.689436273991807 7.228147445119273 1.1334137501627062 -0.28687392054426725 -0.5797441678812855
Ni 8.400565292534454 7.437142667509746 9.30709444713666 -1.2931144805918697 -1.1022787193207984 -0.6586364115028142
Ni 4.829628513038147 0.3369804367649006 10.541014032085096 -0.5262472244044099 -0.8069900923502747 -0.738462994013154
Ni 8.152843806600412 7.353432446465304 4.651277905217773 -0.11298275754733444 -0.4858870754198084 0.31967682600690106
Ni 7.297022771746149 6.042716849720626 6.907656755364693 0.35727715285817824 1.2116614182217005 0.4342719223466779
Ni 2.409383988858148 5.194446645002703 2.6261181339200945 -0.4053950914113277 -0.4138684189896614 0.04134385305410944
Ni 2.224782017117711 5.199194172932738 11.421657855830684 1.0694030516387 0.1737446101167395 1.16358538865008
Ni 1.0797687094967598 3.399872044539226 3.8347049098338655 -0.6441726706690003 0.2647187246034667 -0.008742522079320428
Ni 3.429071602036525 2.716960498351999 2.766106907483719 1.053862789911256 0.12773806147963807 -0.25175445113331485
Ni 1.0988673361410137 3.3797696548469074 8.224798244199052 0.4718105427220842 -0.38046438960791895 0.23570228276645855
Ni 3.56203855571887 2.7808124882833805 7.141548918511301 0.05226409951103902 -0.39824408218884316 -0.2945046976166476
Ni 3.982452500471718 6.826013743624644 6.1093477260003874 0.08197833874602009 1.4601852782328595 0.0459821231570692
Ni 0.7370831005965088 7.455897663560968 11.361887835628098 0.4175276130088035 0.349524762606269 -0.13747842869585353
P 0.3088253354122088 5.531331226917969 8.038327102890735 -0.5524614209059323 0.3345542573393658 0.22479437760470317
P 8.617224381440554 1.6283930370915751 7.918601682823533 -0.9782993535526441 0.32453749653331204 -0.644913919710399
P 1.9661366954894184 3.1342184673951676 10.500619351583257 -0.9858290862707859 0.5180240651636692 0.010135802882421253
P 3.8991311245720226 6.225383638647677 3.8888104509976444 -0.29545883399980083 0.27349929900957415 -0.7768266813930169
P 6.957967891348581 3.8862811489747284 10.3061280530918 1.533944571503197 0.1951037925188059 -0.07168338457791525
P 6.282263544704665 7.635254747302509 10.188626284677923 0.9698990453040908 0.4493717541025938 0.8937069742225447
P 2.414836863794931 8.533396602561655 5.742415361597657 -0.2715737998520872 -0.27569347844741554 0.3307423397924433
P 6.856090463425207 3.934452732371481 1.4819331568865546 0.19753579899906626 0.5616726550915553 1.1547503068569531
Ni 5.444211828674245 2.6633812545701785 0.30304239424790935 0.06559244118882897 1.9641029859021335 0.263989559746926
Ni 1.4349290132150734 0.9696351044302965 7.012320303964722 0.16217233189810779 1.0370068946961817 -0.9002627730631915
Ni 7.018166545501422 0.669561497647969 9.0938354925195 -1.5242875080294072 -0.9088543713869445 0.39299620352634246
Ni 3.0407509460907116 1.6801908275358397 9.292509137044558 -1.0799515165785079 -0.7019075634866234 0.34882773653924437
Ni 6.299897219873365 1.960991279504295 2.384244698104821 0.09991743972294405 0.10451457217532323 0.9593071287208575
Ni 4.071633682273628 6.574991595415435 10.550159127314894 0.5068485081628239 1.2586966652336322 -0.2023702442732321
Ni 8.05348030775237 7.133056721408263 13.507197139488062 0.462376651002694 0.3816229286923944 0.37117473677587687
Ni 7.690127127263369 3.8214163530849397 7.991157473959977 0.4593813158197959 -0.06518517844808128 1.2075252845661397
Ni 2.809116797656731 8.289183765840667 12.31291715202783 1.3356132731860288 -0.06675586536931084 0.7257522313147049
Ni 0.3185672627246401 4.709176947270408 10.283390559325554 -1.6722251843853717 -0.46012616440562043 -0.9749049831591147
Ni 8.613607217303384 2.257137550324691 5.572302845099686 0.5175679514628571 0.126676195874027 0.6219395703024126
Ni 3.8296906160487145 2.6644392750803005 11.526362097527256 -0.02149030866329202 -0.20029844934586793 -0.18577377336713166
Ni 0.961098597066577 3.3340125285117153 12.636941811144425 1.146846221518528 0.6953882743108669 -0.3197465029025719
Ni 3.1502696332538562 8.474265011829278 7.89369298628395 0.36446261486302395 -0.2966891068624761 0.6859685236588638
Ni 5.333834065028523 8.014921338050145 3.5592931281387585 0.9121916632902936 0.029758719319671334 0.16050445727738163
Ni 2.9102346211112997 8.371031147354467 3.6312132026780963 0.5293019520703336 0.451387498981042 -0.9018779400691114
Ni 3.4801188309223274 4.48423455249019 9.45506449336895 -0.43062069874733583 -0.29889614181612395 -0.5313377515534398
Ni 7.332082135145662 5.895199853296517 11.319667391528023 0.42546717957085434 1.2325837701966642 0.25048252639942664
Ni 0.47711932264021767 0.10246883425980138 0.22422348340795534 0.36537664203686104 -0.9434786463290333 1.0881623345240743
Ni 4.348961656670401 0.5365547551601155 1.535443674549769 0.39641808472369794 -1.5670619228824558 1.1554108232590874
Ni 6.135858826252735 5.615086662514124 0.3516308558114707 -0.8361494875230503 0.23447175279346713 0.4729104606544823
Ni 7.839778250528406 8.753862756722125 11.602769264178752 -0.35272989980712804 0.027211784528101527 -1.5461843081024984
Ni 0.10050109696918126 4.731657622382915 5.890146674996892 0.012441825307778572 0.029844079944626022 -0.03146438915686839
Ni 8.03439072401846 8.68483822207459 2.4710141357182733 -0.07048550761507215 0.3708047550309679 -0.02018187426451363
P 8.210230115636604 1.6684531299107255 3.328471033053572 2.0029086459154217 -0.06995483192258274 0.8705297647751331
P 1.727801750491331 3.334726918428806 1.6284075057481238 -0.3614749929896097 -0.2304829433490482 -1.0320760330534677
P 4.762132230238568 1.1793944527447462 8.178568173652925 1.5764639329226462 -0.7846724026896809 -0.27270174280894327
P 8.533089143609995 1.6921726837402131 12.392315713420764 -1.0802253390651848 -0.1266437999741948 -0.5235030860003693
P 6.301959003431552 7.8184912395811645 1.4340880225531816 -0.7834177043469733 -1.0549020298090477 0.2955267111232588
P 1.7577066549953786 3.1914962615072437 6.056976615040381 -0.409468747260069 -0.4038660563613109 -0.6386031470010227
P 6.728513084307244 4.137411812108053 6.070674815627842 0.691645519438983 -0.7464848358763659 -0.5946930758816339
P 2.6160777905663464 8.565345204803203 10.155379120511132 -0.3748257032649029 0.10466678148247135 0.16337946483233154
