# total energy = -381168.6456067913 ev
CRYSTAL
PRIMVEC
9.23312659083539 0.00000000000000 0.00000000000000
0.00000000000000 9.23312659083539 0.00000000000000
0.00000000000000 0.00000000000000 13.51361406442354
PRIMCOORD
 96 1
Ni 8.542562775476778 3.0819346259318654 1.9176631898744056 -0.38455295785499577 0.5658681812301416 -1.0717694949883478
Ni 1.2591861328816836 1.2430466272445366 2.2902198560408116 0.13953582544551454 -0.751961285609905 2.4733297644891468
Ni 8.33208441706465 8.695315625168403 5.319134174666754 0.9175272165705941 -1.1703242500358102 0.0850466932586987
Ni 6.4430236073748866 1.5971278066947348 10.449010486233654 -0.14096535880318947 -0.9477392213776 -0.7879572440885397
Ni 6.125237849354679 1.1325168663851055 6.098613204929463 -1.165052974334542 -0.262627903512709 -2.3420685203475986
Ni 1.258447482738107 4.827420313963944 7.7395438884509655 0.27840444962067534 1.9480305058203036 -0.35979349152212875
Ni 2.00872213294916 4.282813563104978 12.45630887103107 -0.08000810239352672 1.1661696044374885 -0.8978968439341763
Ni 4.795104370182472 5.17431812076786 8.259845356335546 -0.7373648758529688 -0.6109619882449866 0.7796741781441412
Ni 1.8106161644419376 6.849447382624275 13.168531035783099 2.088772435758777 -0.4462573768433282 2.221766860541348
Ni 4.0491600564381365 4.818925837312814 2.942495021765529 -0.4698827295717521 0.15744047364007724 -2.2835023898779316
Ni 1.245428773957571 7.815804899211844 7.711652459029517 2.48527716665901 -0.4536912074135541 -0.34431493627055537
Ni 5.139601564019764 7.6994121028377736 10.760621129053563 -1.1183504280716803 -0.9760172423866867 0.808470276440227
Ni 5.188712565440808 3.063948494935777 7.825774829524767 -0.9798422725597318 -1.0999079050957767 -0.3388567413694616
Ni 0.7189651172502031 6.207828168533329 9.66439599084773 0.08926844464953013 -1.1316530587178575 -0.6194173181011913
Ni 5.734445757768728 8.263399186838829 4.412654408655538 0.02049374907797761 -0.8498388120846848 -0.08358476400119152
Ni -0.05822871413081632 6.278950944232953 1.2624758959586375 0.8347173830622141 1.3510612323099827 -0.31395355036987865
Ni 2.7751639881777432 8.576143657629126 11.643383762267215 0.37342625181421496 1.71173944042991 0.1830664017382976
Ni 8.160015866118501 0.7785280182028544 1.1398230396177567 -2.2670306174751538 1.5238478493888272 2.269994070978852
Ni 0.13844611972322607 4.231043421167058 5.687772301821487 -0.2473342105784321 -0.32254360603173476 -0.4906402738340775
Ni 7.25111609757439 8.410879921130675 11.148597116967128 0.8858393985490098 0.9713982555574369 0.6797757645845905
Ni 2.1718160846508545 8.645465973603782 5.086118677061427 0.6147276259350057 -0.8526770528644284 2.084965917528493
Ni 7.600220621682242 3.5284948033578436 3.8704473474505154 0.0850117262557052 0.6950943972195319 2.3954770178757263
Ni 6.813170427447874 6.17004621368939 9.96391216087925 0.7661270355873258 0.675037735678973 -0.037643521384386786
Ni 0.3714856234582199 5.643277863797797 3.6892306144761706 -1.182500223276712 -0.21147169235386806 -1.2170882456642265
P 0.7004471581507397 2.5563850487771735 7.008822230853062 -0.722933016698355 -0.14319964745034694 0.4529674418736521
Ni 4.739160854933345 7.6084011720223526 1.9580147239053112 -0.9634797720413084 -0.2783427431448045 1.0582503774559902
P 7.798871344670352 5.164761834535339 2.388355990803708 -0.9795213988852034 -0.1978564155632786 0.1408951676868864
Ni 3.588657857552151 6.845320174947042 4.279410232568449 0.6046347604753781 0.12141186215129413 0.4683660358169095
P 8.091986187895102 8.488151959275573 13.22097704260239 -0.3514937134071817 -0.8255660555802491 -1.0120733646792957
P 3.8035311843185595 1.0844769076722478 5.897624654236934 0.6008282422450942 0.48814116156130777 -1.3353566770905325
P 7.334389668135848 9.196646710740579 9.175663506786929 -1.3536881284098685 1.0605394306004832 -1.0997536389060993
Ni 2.666693214593532 6.415776650203707 10.95824420502942 0.5933810419384298 -0.7734456807359261 0.2701460662666251
Ni 6.040745506056321 3.4143548899216825 2.0953944174837487 -1.0762948936625272 -0.06729579703318087 -0.199694754323598
Ni 5.99513385969047 5.641708232242697 1.0463533271369048 -1.6611159618460876 -1.6830065912715917 -0.5698119963692381
Ni 7.439711945483065 6.501635496267683 12.760554248606839 -0.7679013538789291 -0.4156743618501486 -0.13650269504614557
Ni 2.9490699313560396 6.299005295631055 6.554751828092271 -0.5144553739758043 -0.623075740789385 0.9145416515797088
Ni 7.495092239997714 6.322318940787689 5.360634309670922 0.5372327768816361 -0.3539025799589905 0.4057131368723787
Ni 8.490220179677587 3.8328555950185477 8.399076291836323 -0.48163421368072534 0.3598266587529093 0.1519748225398157
Ni 0.6334672864439006 0.34987272025717103 12.155401268791588 0.17822989958160274 0.870601755663649 -1.8220490220204555
Ni 4.173982697575773 4.009115985529494 13.29193731527043 -0.29561027197600054 2.155010738061721 1.089721194370762
Ni 3.228178121233221 2.446935563752723 1.1634977000320637 -0.5804180540198585 0.46008348409314315 0.07418943882922062
Ni 3.0965229662675013 9.265442738487938 3.0694551317561403 0.17559940393729112 -0.6279610939061443 0.3353574699669515
Ni 8.686257927782796 0.22470660680277124 7.510812561678382 1.1059931920579082 0.36550519719492536 -0.29314921203001776
Ni 7.144334986193611 7.219538803936494 1.958852168505591 0.7195144779351093 3.149285898217331 1.1284504926201597
Ni 8.955302009453748 1.9939121975704506 10.070359033070062 -2.0077649455664583 -0.20332592331828206 0.30743760362823186
Ni 9.239312989658917 8.353542203735548 9.480489648038086 -0.027499490971849415 0.3526157428267669 2.010038057871351
Ni 4.7685960631548685 2.288375077307229 12.05269842951603 0.16437242487322015 0.2692811471631685 -0.278123685155463
Ni 4.444236318856831 7.005607256103145 13.145071507223108 -0.2556640706003661 0.46775745569863314 -0.8967385619600168
Ni 0.3357404963851933 7.226657544695214 11.746492859121743 -1.8037682214333965 0.1072772225221249 -1.4774628343663845
Ni 3.535345783439516 8.488345854938263 9.298650602317778 -2.2891642161493992 0.24219766068281512 -0.27214278498167965
Ni 2.4858162606852323 3.0176905296942977 7.973599959446057 2.060541980158174 -1.3310343955660948 0.014977447245438725
Ni 2.3625540179759006 4.6106357299510305 4.345221190423078 -4.028604464928687 1.8744763865822363 -1.6789445053870762
Ni 5.181446094653374 0.45558278892976534 8.149344218169178 0.16976865618812698 0.9169106660325175 0.4720108316583484
Ni 7.857954123029678 1.6659700000760664 12.402024548666953 -0.31217100454815916 0.5882030972819159 0.23211276564298733
Ni 2.3067582327554894 2.204362856602195 11.463315630266132 1.608730506265836 -1.7894620892233697 2.548094616205863
Ni 0.7474336170963215 8.362461404219234 3.492202151865891 -2.664103819284348 0.8139845213902369 -0.7246682542219068
P 5.271515246535735 5.6900159516326 11.601424740861352 0.3482816342277873 -1.431561700958896 0.09739287352887742
Ni 3.8594654664408914 4.314834046829019 10.481132534352438 -0.46792843405885864 0.002922830073749805 0.24630319821075644
P 0.20421091194388183 3.196323833791484 11.97903562063518 0.8726807496798649 -2.9579379731965316 -2.1486418584208997
Ni 8.86225979074349 4.520261884884444 13.321329127796016 -0.8277419801856455 1.052351238362736 2.1280388374585675
P 6.27476833779495 2.1029923575231124 0.4255114182720859 -0.33853201104019115 -0.344422151272381 -0.07239840836706886
P 2.9917546765279672 6.127389167897846 8.867809823259787 -1.1688054993984387 0.4640949192453814 -0.3297997733735159
P 3.257087041227447 5.9566132547029556 1.0786083322815323 2.718891970768821 0.8149486850757192 -0.20566022787841354
Ni 5.317616248621705 7.388357294250908 8.51053675187666 0.4252002990627129 -0.3621969587572988 -0.9880258368117887
Ni 6.596552039717265 8.220686742286517 6.841227129838948 0.8105004194963784 -1.0471154438850934 -0.1072229722454218
Ni 5.904390689552096 8.94200630686937 0.20336054096608935 0.7679059818646194 -0.09665188159779484 -1.1804520824984315
Ni 0.8531750784000178 6.627944670819268 5.664650705702183 -0.33793191556234703 0.37275108012406133 -0.274466805129166
Ni 8.520837228128833 1.7992040197236805 5.607217887101071 -0.6862821982445407 0.3810125488019051 -0.3974704372476123
Ni 0.6537210733807687 8.782891832816194 0.7054782889411753 0.6115875376441273 -3.108300714054221 2.092145465996068
Ni 6.916406018139487 3.6461433049759937 6.306236680536669 -0.23418918855604184 1.4333069657847766 -0.9525060466386239
Ni 8.604766350692717 6.638036478405882 7.5366237676329835 -0.49949746711439136 -0.11549601088749141 0.15018199230545104
Ni 1.6014673762882468 1.6539484689893584 5.031010759787222 0.4142386578448865 0.7726563520654113 0.11285625927179918
Ni 1.6465158019196198 0.9074991032093527 9.757139979562517 1.1257546909555516 -1.1467091817200314 -0.8096534981150507
Ni 7.120993641656593 1.9119035653798677 7.783423400230129 2.0307842892797674 0.17409325170540985 3.30441443589478
Ni 4.13395709292072 8.230104531617117 6.449616059906306 0.8904105628594602 -0.011963600119779394 0.0026623773235115436
Ni 5.231886666332855 1.3836117495671476 3.927934641499717 0.9174765658383166 -0.3472331383586149 0.6365174681165876
Ni 0.8503340452852866 2.3272927067469165 0.5249318809721261 0.9010395033282158 0.407129300493615 -4.10714318186554
Ni 3.5228071972523045 3.9348816461000538 5.830489665999944 1.8875293631114527 -2.536557047879909 3.0953456965554498
Ni 4.084642962710193 2.041231972393321 9.5438141248469 -0.9482354442877282 -0.6704272334901551 1.1110024723470415
Ni 1.4656757805184988 3.487148861571148 9.98688510365716 -0.7857682068570209 2.5350267272783116 -1.0345972568134247
Ni 8.46532766983906 4.874675456899251 11.08321826944649 0.11086365432180263 0.1195382992776651 -1.08563031213084
Ni 6.443679159377311 4.085917134207862 12.677594604356402 0.8676588709852412 -0.401502955445773 0.03546656833772602
Ni 5.110424883348491 5.5280299751462705 5.947679281216397 1.7090842621952502 0.9432251355573305 -0.5273738818096853
Ni 5.926208568167987 5.755137194915665 3.67956814728551 1.2203455762592597 0.28462806193288404 -0.2590730962819151
Ni 6.260429291882771 3.9309575672123036 10.234198098104091 -0.09651381335803377 -0.559612687238733 -0.7484951814381755
Ni 4.761902046228707 0.8709276112882 1.8015270744252287 0.8950771150971939 0.6210918775901367 -1.2203689732980274
Ni 2.403752229733881 0.5442734349816771 7.371338794942905 -0.4483913924671955 1.0104414855028276 0.7869372874644577
Ni 2.0590519071071047 6.92969248759707 2.5480050628982984 0.8593236116466684 -0.7578835646316109 -1.0178079531702278
P 0.7549512289325715 2.9825307828600556 3.4353907226980622 0.7545619564575456 1.0320341240719386 1.7105729309256346
Ni 3.3432967461096212 2.649214905571152 3.651095030875995 -0.28482243733187723 -0.8592030269084041 -0.4901430224826849
P 5.42484055008863 3.534265507604535 4.380248903544156 -0.27009541553434774 0.8664357972114175 0.6971253116066317
Ni 1.7425495537113618 4.688083197505029 1.1764277707953705 -1.1053236767947092 -1.7709568313303305 1.7785575264957239
P 6.815709537316417 5.63343535063464 7.804058515303618 -0.20391342039063592 -0.7819200367555244 -1.0882842048139194
P 7.400295727196464 0.1407202388527623 3.62827074143948 -0.3668966782258133 0.5054786243984908 -1.4143471368528222
P 4.95793056120712 0.28784365113765353 11.72301948087156 -0.615237732802205 -0.6577138996885447 0.13101930333407114
Ni 2.644506010905852 0.2213448253368186 0.5510754794913374 2.3591241902783047 0.14422166095695807 -0.7288298417987641
