# total energy = -340862.1979734684 ev
CRYSTAL
PRIMVEC
9.26541747778274 0.00000000000000 0.00000000000000
0.00000000000000 9.26541747778274 0.00000000000000
0.00000000000000 0.00000000000000 13.56087504149008
PRIMCOORD
 96 1
Ni 7.1887129065367406 2.88100735125872 5.868401149211319 0.2777549889621345 -0.0454380777281411 -0.5174625362332442
Ni 5.120597666846519 5.056017709046437 10.472521298457968 -3.5022988764825165 1.2207456399111558 0.9959558902921428
Ni 9.083101573952707 0.1168406169070533 2.004378434854242 -0.10323159169784157 1.492959387340087 -0.2564006916560745
Ni 5.283335454335853 4.157587265998688 1.63617353542986 0.6577069577100092 -0.014373495112852666 1.3598058112718323
Ni 8.036711683830422 4.091737946043856 2.5159082196757425 0.022127170916342538 -0.39988187490258226 1.9305907130773008
Ni 3.830295669251183 7.254098955632175 1.2458363339685976 -0.8462192130542265 -1.3397933727056472 1.1400227708387913
Ni 6.2398693285693 7.522990627843968 1.2763668101446453 -0.6290607547282263 -0.15545506777893225 0.8033944045792164
Ni 3.7570154847116055 0.20868962403302155 11.056099893874764 -0.38561302368839395 -0.11929018782260101 -0.423996765672915
Ni 2.313917492269616 9.200651921816357 1.5434989796324445 1.40414962749453 2.608542537079275 0.697803825730895
Ni 9.218636096578189 8.311218198858118 8.632825462160811 0.291784213361691 -0.003087380676072102 -0.5160440586191628
Ni 8.90180515583589 8.737353266166785 11.729817100404635 1.7197864791041029 1.140843466967874 2.069300185966778
Ni 7.364894814365804 1.6826646192538879 8.247710249826683 1.0034213454312526 -0.31041545530963316 -0.9083218959222421
Ni 8.223011427228737 4.969738144192153 0.5783751371240395 -0.18743727711248365 1.1394131622792505 -1.5752994803009
Ni 4.281447362967341 4.682028409671612 12.880606931775697 1.3478735786106206 0.5452597609511706 0.07168132769538622
Ni 8.328720571926176 7.551722686543833 0.45441034094116367 0.40971660160481693 1.3176770004225822 1.0317237919203714
Ni 6.985772473868848 5.764979636017588 11.852720079777768 -2.9670278513129418 -1.7028454803743898 0.2009949611922603
Ni 4.209010331391868 8.829414451346356 13.485950918708733 3.7545690909099854 2.1610039795306784 -1.5746806157699784
Ni 1.1173166586961205 6.883639780205963 10.343584679412032 -0.7131378849848041 0.32291718732106967 2.081264557417506
Ni 6.948052960496661 5.065940970854743 9.30842818108843 1.68582657721889 -1.582931542924861 0.46190613912417866
Ni 3.685523525689305 3.3462517445177657 9.117355821296595 1.3600896610608384 0.43390605436682694 -0.28864721039460606
Ni 1.333451045439668 4.413924297920795 2.9909591304865253 -1.20927723426024 -0.744413298059318 1.3173152462077895
Ni 0.9837278736801104 3.4176603147853752 5.596179486062172 -0.5984605133438661 -0.2776953393687927 -2.2276328324038213
Ni 2.1898813523743934 3.8530607992820007 12.71219407625874 0.039129104790977774 -0.03812586033744401 -1.729358439063254
Ni 7.019294753254888 2.094808906608734 1.864729140455587 0.06442644590518581 -1.4095872535703335 -0.14472174052182818
P 1.6231157829868679 8.85556145865078 10.7084123342714 0.7484836114739497 0.41031746841360944 0.5213281898362376
P 5.80943510768542 1.1481149054289002 11.48344317158474 0.1934181772862669 -0.8835480314116719 0.6456338285955591
P 4.927849193085384 5.496995974690215 8.424218300340762 -0.20832414786382186 -0.2769263224132521 -0.5479373077833337
P 2.3474212408212805 6.9668802882225975 7.46895008209519 -0.29089358322662157 -0.3147958437655159 0.407545304985111
P 6.244187012978889 2.8720754890895264 3.7627767211190792 -0.16856923656338713 0.6979750612014366 0.38452493283053774
P 1.5023132736902427 5.668711951434681 0.1400551196714876 -0.3416844406262438 0.4762505807713089 -0.19883497742646403
P 5.762070295020569 9.164053523923915 4.949623850018809 -2.044816856113433 0.18705341141050366 1.560913643892873
P 8.679898414184244 6.333209141320811 2.332483535230851 -1.398632811441359 -1.1123008794434908 0.8947505849957106
Ni 5.391036663728702 0.3555594580462539 7.2173819603997265 1.4229418205003685 1.7179818217951959 -0.9482441860384767
Ni 7.767023185740465 1.1028718733000904 10.42395939389243 -1.237521573817914 -0.06121256695357845 -0.040806492493400695
Ni 4.346444264540882 2.86343085485316 5.460977591913738 0.6726178133835707 0.16853761199450326 1.3966420062635754
Ni 2.3074224348208565 6.521158128978584 3.4484085282653396 -0.28832402272723245 -1.6025043228504658 0.30726533971642567
Ni 4.038406204709957 3.149028074254845 3.3104399805445808 -0.4602868583532009 -0.18474918875735927 -1.683744497878881
Ni 3.485223736919981 6.022725011352264 5.742447067958188 0.28672016857522237 -0.2902302386110098 0.800468489181673
Ni 1.0931617160871083 8.090775393122168 6.02963979219964 0.47551344549496816 1.099110863115778 0.1701368381608231
Ni 4.916684365373892 9.15653927058448 2.6080546466934442 0.779162014394413 0.3434255916870666 -0.40762089541805274
Ni 9.002177420233062 3.6084259892682877 12.457575779225 0.12299309059548497 3.528493018379381 -0.10255487734579113
Ni 2.1598336044338384 1.7967126394204902 2.9871491909388364 -1.793211528963473 0.663552874967825 0.6345431179990362
Ni 7.950923186087098 8.39310595596531 6.342597788557372 -0.2519894499622563 0.8584880031192506 -1.0348350838558436
Ni 7.644228611748427 1.9014396498960042 12.762736000477345 -0.5389320189609299 -1.4336244970251957 0.5707152249097978
Ni 2.8649411178547974 6.61129210738306 12.114784066063754 0.6741568757359163 -1.528222324307439 -0.5876330837110589
Ni 4.041028317774149 7.596632163653877 4.248025150086931 2.1166997582966642 -0.5904067898014542 -0.6035682668840766
Ni 5.331237661197607 1.4887950300130086 9.504573356790672 -0.8008006757101112 -0.010003133959298902 -1.023556939838863
Ni 4.53727479694411 8.214885656354896 8.780341095752044 0.056093500559458234 -1.0188572203703485 0.5714006810125966
Ni 1.08856606916188 3.17258076474664 0.9663450244937781 -0.9507690093428594 -0.8234348681698593 0.9663159559385229
Ni 0.9885644214522256 5.829392816308288 5.261592299820867 -0.3816794929619427 -0.9202983515578279 1.1692112194772897
Ni 5.4066025646044755 1.942698552633991 13.504990424488273 -0.8928569675174235 -0.07168441301917977 0.6580941658460989
Ni 5.446666228525215 5.034466348667242 4.314256205229908 -0.06955811070479634 -1.44798590795319 0.6595144432323932
Ni 8.921818456961883 7.481861440946613 4.175189705572375 0.3490233974898182 0.4329244071798479 -0.8576950749043099
Ni 2.3524986894402824 0.03775101579062504 8.122394555817802 0.7023510787819451 -0.7966414021260989 0.2080986621165771
Ni 5.079273906188218 7.42155284047018 10.993801081786359 0.24158959478517103 0.18674924990652353 0.04304746600877747
Ni 0.6859596022603206 5.879472396209213 8.489459808928066 0.17260304031312856 -1.4424796334229801 -1.9602987816646946
P 1.807645831702283 8.527528628528238 3.5392661357521966 -0.8395924517663282 1.4501163240326316 1.5587816851515348
P 3.8375690217437315 2.0765375039140763 7.3399726952136275 -0.43240838677537796 -0.8918364966727093 1.0236083619020888
P 0.766883755979965 1.1492452863258313 0.0400868274637098 0.13255116659756527 -0.30750702341358654 0.2555046622043664
P 6.317022457493445 4.009294263905385 13.431652794362131 1.7629524729686152 -0.43141439829322475 -1.3874909358919267
P 7.065510654188434 0.12021600838862721 0.3689683698006699 0.13315640428173198 0.4541606908508049 1.4184794138536412
P 5.336630134001 6.739784912945693 13.020433195642642 -1.163337277195016 0.10409445391876912 -0.33538138122635147
P 9.070630322417712 0.991974094977395 7.111837740128235 0.9401842918484776 -1.8804778555813095 -1.6476289831032465
P 7.059247232169373 8.40823638223325 8.323326246039345 -1.7802734807455662 0.1628847845841001 1.166996214103842
Ni 2.9997251416880544 1.5238368378178742 12.95445971909749 -0.9573160664327578 0.7185827101494592 0.47265874965499244
Ni 6.445793225571716 7.408460805983593 4.001597481847347 0.21313776720238134 -2.709444709312992 -0.7368169737692988
Ni 6.089584261780586 3.328388020179379 11.266876089858517 1.015143261853871 -1.4013471250487284 0.9044169044408811
Ni 7.5671218099102235 7.602172883132276 10.490421157923388 -1.1565166547287566 -0.7375888189383168 -2.1952523591905875
Ni 3.111058394618584 6.171926024329988 9.52690764492225 0.48961980298936314 -0.17798358789875154 -1.2892136028755667
Ni 3.043633953741798 5.155704332571701 1.6241183011266052 0.11013680345810709 -1.5422806021727178 -0.8923646012620374
Ni 5.781258974016834 3.2551263664741774 7.786206305486417 -1.227582203217015 0.08940676999960731 0.2852687808406764
Ni 5.713982779815056 7.233372217382708 6.405641540187689 -0.2186165309287654 3.3229716300716774 0.32359030212869433
Ni 1.588333406863265 3.913610300605321 9.891749197907401 -0.6021634161167501 0.009816471869789546 0.8380222790657309
Ni 7.814888330933466 5.190264338682793 4.602750720586268 0.4714868408340783 0.5216081829705017 0.7851575698562154
Ni 2.1256998075133926 8.401009356826641 13.100482693979744 -3.5746615465156433 0.4300887375032657 -2.29879402592968
Ni 0.5906323575219921 2.8111831673302525 7.719310919931063 -0.5464057016301558 1.2783087830376048 1.5914496076982012
Ni 7.377588435913309 0.11507740801618448 3.711488930816844 0.16717749842218305 1.814470181231933 -1.294632459898293
Ni 3.5998832746209883 8.396385913649848 6.4026312061433215 -0.40526885024610854 -0.08769775772830059 -0.05436186258033219
Ni 1.1145926260428602 7.436192199627158 1.72853677320976 -0.5114608101238546 -2.7563696559993045 -1.4986808632048965
Ni 8.916722477508506 6.420285532053262 12.315755597579205 4.133022877845779 -0.02062847488362899 0.01256241004604288
Ni 2.5370657998244495 4.367680600735686 7.285281717178256 0.0387372686691978 0.129201533399042 -0.09410983190223147
Ni 7.768375936649907 6.356465338462591 7.787887978706032 0.8674426412093771 0.9065110679657483 -1.615529274355224
Ni 2.0642793569744047 1.3871441380438976 6.119236376407215 -0.06306761788444622 -0.1697473160318883 0.7152307629580907
Ni 6.0272743311915535 5.200511890092677 6.563246286554893 0.5418844167210345 -2.900879794730959 -0.04392806884151789
Ni 0.8784514239653501 1.068589829704638 9.404968268936663 -1.0519509176005237 1.69440377736494 -0.2785908545998686
Ni 0.4020607338291885 1.8169483105589952 11.524397242097244 2.2286736149635105 -1.044627387355917 0.04300915657167432
Ni 3.4574089545217244 0.4436819143792245 4.454625422544067 0.0205755101585065 2.066902118048247 -0.04230441719516585
Ni -0.052282896108221816 0.9063829506201749 4.753425861438595 1.238749532687744 0.22870194018922546 0.7668690559596728
P 2.7644298721998055 4.323929300774138 4.712756239233763 -0.2785970252474557 -0.357950524776119 0.03922217872541632
P 8.759442020742881 3.167299476949503 9.81591731747426 -0.3896082608907161 -2.3680520888955536 -0.6337159941120505
P 4.8917418623039035 6.126423560519915 2.724380106404847 -0.15919962242302907 1.1948476890984714 -1.5739622495467152
P 8.532383707134729 4.475187236367589 6.574325872428256 0.1257634542517705 1.2288543850612192 0.5253115999640179
P 9.224426982320663 2.4058582270257456 3.189232572516842 0.3306307539152435 0.05034425678050685 -0.5849673639534377
P 3.1758885186827417 2.677548055228302 11.030619070066157 -0.4302669149523429 -0.07546701999006357 1.0571291193673535
P 3.8449535592425357 1.4899439417443159 1.6396452872501888 0.9133095789448207 1.0664287995017245 -0.6556793857570191
P 8.88118033717549 5.1386930266146065 10.654128108050582 0.12184329326175788 0.737707089683736 -1.2018760567001625
