# total energy = -340870.9759007248 ev
CRYSTAL
PRIMVEC
9.22103230950241 0.00000000000000 0.00000000000000

0.00000000000000 9.22103230950241 0.00000000000000

0.00000000000000 0.00000000000000 13.49591286118535

PRIMCOORD
 96 1
Ni 5.896094126864437 2.489051731188004 11.202957825476108 -0.7035165598449561 0.19911779877420546 -0.3009591949927397
Ni 2.0959867809584978 0.8629438670739945 6.5036264603231855 0.6198752315742163 -0.7370257473459952 1.1116118237962662
Ni 3.473295513826877 2.5371486364451674 8.356574489007325 -0.496015679213378 0.7412331005591235 -1.5190411720288033
Ni 0.6086167268748237 5.3219096572597 2.517541033044317 1.4290643884583387 -1.545481368498203 -1.0119329824466894
Ni 2.3533365755946503 2.66767235076939 4.681475757917498 -1.354516537848435 -0.08736351431733341 -0.28164198272136654
Ni 5.790384210862112 6.254460331986062 0.4984244669987447 -1.4534939822556128 0.4701421538807258 -1.3870047402841275
Ni 0.2915533703014895 4.284893905911711 11.698621515359438 -0.3309269449994236 0.7641470290428195 -1.2415643764287199
Ni 8.191946786168222 4.449470893072342 3.942453345933806 -1.3007066911168308 0.05048926699880337 0.7594838192391952
Ni 1.8718695872707378 8.549418551142233 0.4465257300626074 1.3784203410492262 1.140793844676861 -0.4177492421013063
Ni 3.789069770063756 5.9567961834802166 9.687177770415186 -0.43809129609276803 -0.5135547165384059 1.6487594971632635
Ni 0.9923121860322817 6.7705061919960094 12.746458148287044 -0.8525824362680929 -1.4379904873033753 1.1791729586756918
Ni 6.9029478810697515 6.858115221299751 4.296572343509141 -2.51834463863694 -0.7567569072263355 1.0317420467528164
Ni 4.732427494821061 2.2598353065556096 5.733954258580236 1.0554836133441308 -2.1270790446484593 1.0220826692861817
Ni 0.27103841730759815 2.424633598495032 2.7786871267399746 0.23647001417041857 0.1055566402865924 -0.21822212370382418
Ni 1.225327676033915 7.876154087866443 10.845437189030113 0.05614235151952267 -0.07241923430267529 -1.5853828326788308
Ni 1.070939929730102 8.205492482836696 5.333341893290726 1.8495899077532019 -0.13463813103358102 -1.5785141305834556
Ni 2.398851591765923 0.8564209087191408 9.977407000456912 -0.7709529962210594 -1.7946888848399478 -0.42386126853631517
Ni 9.015311215658755 0.06634440637169571 6.811414380355457 -0.47514063553658176 1.2206898469725556 1.225306776919277
Ni 7.250331836543893 4.976757191638365 6.4299116827145175 -0.3591784836459492 -0.33150852853450646 -1.1567706797210915
Ni 4.2389547222477555 8.378017999968892 1.2066707610786198 -0.5272111309795758 -0.047229365300608984 -0.04253093138367514
Ni 8.904557394906496 2.3161665937902742 7.7778837008444635 -0.19938210817918564 0.2767224339325621 0.602705147552833
Ni 3.8872276604898497 4.280965746088177 5.760730292607413 -0.5652459742651104 1.054600953628861 1.1339971334700019
Ni 2.4406044266977553 6.739163902699787 1.8860266383906232 1.0420138609924698 -1.8240364847641295 -1.0261187870287682
Ni 7.7341594091749055 6.149395888255211 10.661069099922884 0.27017100596728955 0.1139410076955457 0.03226657334318959
P 6.48902495543923 7.340790164874562 6.518890035337025 -1.9738418104564521 -1.134593372293104 -0.1123410101982775
P 8.331590101585107 3.434401198954424 9.749677006255396 -0.287759151362698 -0.47709904481453314 0.2972820032514687
P 1.3414020325095997 1.7790783377303168 0.5603446220011178 1.0083059272170636 0.6370332314107416 0.3041190807779601
P 1.9631670295543218 6.337163772026609 4.018704829569362 0.5409577911417071 -0.1328869526704292 0.5520672707913072
P 6.57024380925539 1.5312077644523627 7.176627202070918 -0.14673285741458603 1.2895007950986823 -0.6361837389262528
P 5.621003065795235 7.210635291848324 2.6371415123287334 -0.37299276382122215 0.5365655756112824 -0.8901267130704541
P 3.400532346767008 8.792466524449042 12.185540900170807 -0.625525230771142 0.6598414875545088 0.3994388738278927
P 7.1108913838408965 1.2493669076300469 12.627045778064602 0.5972883474126358 -1.8099617518386184 0.17302727233474072
Ni 0.03162998550865066 2.7712061031136064 5.457099214003424 -0.8660635014736633 -0.3926861284850915 -1.235052543452131
Ni 4.96929737638663 1.0053783890133783 12.990504759408145 -0.20065377580275764 -0.5869630542272278 0.17883642281735007
Ni 7.039677350232563 3.3145277771095 13.273351630870716 -0.08927332974553658 0.07722359766985411 0.668517418061952
Ni 4.135688379844579 5.130093740242922 3.384936814584983 -0.4334041750297439 1.727583092330386 0.3061106572866921
Ni 8.466318606706352 7.09262451855822 6.091987584430431 0.5389397322704138 -0.029681329114516625 1.4227484735426401
Ni 3.8282222738447977 8.247319086028126 10.106225745881202 1.670558081095594 -0.21958223727614443 0.16012187712698228
Ni 8.79722457719304 4.85311236752155 8.325952362345417 -0.22011085608610476 -0.12597505604194434 -0.4449116614487112
Ni 1.3795033385913862 2.869760497935033 9.761904095283578 -1.0671217118036913 1.7993083858898302 -0.8957116633573995
Ni 6.8959398964080485 9.282905577346424 5.4635779114025205 0.5794901428889504 -0.40673772148215115 0.45559433797353793
Ni 7.198177677008902 1.53056229218089 2.3465609609506775 -0.8384765929943302 1.6071397647399481 -0.24447617230434673
Ni 2.0543169353187123 7.562961720715454 8.758321041288138 1.5201909693625304 1.6136932495877498 -0.37076516004228405
Ni 7.504417385692884 5.991061540062965 1.91621722073389 0.6203578276375896 0.8574425925738717 1.1392290712929025
Ni 7.874651059577156 8.560225601173176 2.8748993793192006 -0.21501030163474583 0.13251439982235888 0.40734527315916297
Ni 6.967882391579902 2.379717949432983 4.714001105677006 -0.8921231746751925 0.5276299636845494 0.368407715553701
Ni 1.9772567671373253 4.55696968936989 13.43024196538135 0.9085759209145771 0.23240664273432235 -0.2848532905698126
Ni 3.19456214494008 4.342857315889956 11.262906523740755 -0.4749328904011499 -0.7160185489667088 0.9314595103809699
Ni 1.9301096282224717 2.329758395620999 11.959228178656794 0.4605578526264004 0.47406385753263514 1.6407579670150259
Ni 0.4614499710823004 5.153561267827178 5.809464371206844 0.5696513024216576 -0.7718086593531353 0.06870913244093972
Ni 6.8885354073510126 8.826694996901992 7.95476062318963 -1.0249425073324798 -0.06827384467573402 0.45326646117130975
Ni 2.3328658835565173 3.579208292543092 2.0958475433685084 0.19826522096592306 -0.06200652360978353 -0.07292239919133892
Ni 3.8994916336478305 2.966784201369825 0.1131946280416719 -0.21228158984967313 0.12506977061885557 0.23341888604892058
Ni 8.690325148004717 2.082514852549618 11.333058294410893 -0.6622485543341047 -0.23884159972638863 0.4221941652465374
Ni 4.682993539858703 6.644915730032328 5.574446072957156 1.7166913851185468 -1.3168683884783579 -1.8043215228337053
Ni 5.362565189330028 0.4402821689909767 3.8273333663166555 -0.590614534936886 0.33164428278142233 -1.4474863426089524
P 6.173573435338087 7.694499748609135 9.74105349670852 -0.6115186320794048 0.28009366439764016 1.2503758040727628
P 3.591868770096406 -0.12914332576651658 7.830004664662637 -1.1811192837687852 0.7615065060961789 3.108511544513447
P 3.7228350939782104 2.3990636755122643 10.520401327800844 1.2853206955790637 0.4655465640902433 0.424930590341094
P 7.803354036676775 3.7633984157240428 1.9366768475330836 0.40938055842163695 -0.8651299339158005 -0.27278736054421404
P 1.66636043706629 5.762859429000028 10.762045859968824 0.1923545119084429 0.020562140422067814 0.19397147868657563
P 7.174876128008737 5.276837250646008 12.436079118136432 0.434192218148678 0.5634965956741715 1.0535917956380565
P 4.969832196268707 1.4802246760384714 1.8084122861590146 0.012543126772333237 0.199754661027256 -0.6573133218160163
P 1.686093446508454 2.8691426887609093 6.716146361499072 0.6041115409820563 2.866118994211006 2.6912497835715197
Ni 7.720899564512367 8.743014127421786 11.147286764164836 0.3027162868931625 1.5627581533007795 -1.8248713219605992
Ni 8.94529591626887 0.42010839419772095 0.946370236058592 -0.9127760750388537 0.5918792605819225 -0.5968574305228044
Ni 4.1703041356604125 2.818758967456243 3.4894360090266736 2.0256644515546984 -0.8435529790759732 -1.0463793370500172
Ni 1.288049138756159 8.550617285360683 2.790104609119081 -0.6114975490334824 0.5023693893455478 1.3042265313446313
Ni 2.7672410591602743 1.0835727441860674 2.161613791005614 0.5288756631661924 0.3123036734712815 0.40544934168803076
Ni 2.6026732930320926 6.178884750029061 6.150573414099026 -1.5832956111324992 1.1164953771408126 0.12885006359689422
Ni 8.996454204299305 6.818400234539282 3.85462208974803 1.9030747670452195 0.42787501768139863 0.43164836868090173
Ni 5.55545074611096 4.043219866439894 1.8034052655388768 1.0250543503199958 -1.2268957186729514 -0.06147841902045541
Ni 4.278494509391682 8.85676478372017 5.97133406324027 0.5665891185565661 0.754474538950062 -2.197036190563887
Ni 8.4002499092049 7.380698793316473 8.794436136980279 1.515909568378357 0.1836731820843611 -0.1615994901137733
Ni 3.505292496427022 6.683155351600859 12.666521940084625 -0.2936120105990492 -0.9883976183289106 0.04863370184730334
Ni 3.7372014625347023 7.851469383998838 3.680281873429752 -0.6538346192387965 0.09047094959806355 -0.21123772196619106
Ni 7.223175895979792 1.4376142850888256 9.462065627326114 2.117353589830579 0.21089962190048195 0.17475633921070546
Ni 6.283036311547401 3.445521764088653 8.284425442708601 0.5377351704393514 -1.0493304492585414 0.23352918637453976
Ni 0.7325344935521466 0.33701398238130953 12.090435171485533 -0.1857146379944221 0.3726898878688227 1.3372358963911162
Ni 5.480944803918115 8.05146435679842 11.924449210566603 0.7069237857542922 -0.6982743376094103 0.10238672719904302
Ni 5.083444537080347 1.0183616027024285 9.074300926548643 -1.1370474902605512 -0.5057555322089612 -0.04876302833631602
Ni 5.4220039645002105 4.954055009747425 11.208072732175905 0.7567972735459676 0.5294670168932881 0.18260977381685325
Ni 2.2832014027829204 4.7973435632663115 8.156443967030734 -0.26932202770343294 -0.9164206137699766 -0.4840052850160632
Ni 6.51074048685806 5.878721701729372 8.511211203187278 -0.004273430564373285 0.38315324929399175 0.3261351800377351
Ni 6.484128587208486 8.877180149563605 0.9064865044042958 0.5017235282314327 0.35887946434829165 -0.2704242596286762
Ni 8.965960249988447 4.81723333026012 0.4000526486198202 -1.1890863611346618 0.1293966801289836 -0.29312350099840484
Ni 7.778189839121791 7.544722518530127 12.97873595569271 0.773745471364532 -1.8642552230748601 1.2561168203215982
Ni 4.479079628268038 7.020497602737374 7.838723150843743 0.248981516373868 1.1153548357784662 -0.48955218297622144
P 0.8028725290777682 6.478844935614861 7.708527705274726 -0.8131892791824511 -1.535074828452898 -3.025353069416396
P 0.05873428829103296 7.508954133658091 1.2585980832153512 -0.6089323594094674 -1.4071249080727701 0.02360684078566257
P 4.645722126697382 4.771561556537203 8.110908664588072 -1.5378120248784033 -0.42305857012936177 -0.6843096478992021
P 5.8224826248192025 4.418589655398599 4.859999556658163 0.07339033996669296 -0.3989462504621904 -1.0193243898147542
P 0.21764310680488913 0.05619204964467561 9.318414851206626 -0.25892962872551534 0.8493158497016793 0.16304882096579018
P 2.5570476244714246 0.5415936525148368 4.47940144230053 1.2148022778435272 -1.0680241690133025 -1.4275062999425996
P 8.630489868439202 0.9333067993872302 4.253871586441489 -0.11515971059399523 -0.2961486609779738 -0.15897825044084235
P 3.9509634367815507 5.062558898581981 0.7974210546935591 -1.0977643763902127 0.5715168948754866 0.3907027795064755
