# total energy = -381169.8500272678 ev
CRYSTAL
PRIMVEC
9.18598935641741 0.00000000000000 0.00000000000000
0.00000000000000 9.18598935641741 0.00000000000000
0.00000000000000 0.00000000000000 13.44462395714856
PRIMCOORD
 96 1
Ni 1.684581829463522 3.6544988578342448 4.717221364239969 0.198878943290522 -1.409254038600631 -1.0273210348669857
Ni 3.3653974033236715 2.253947816800658 5.849406484356866 1.2383926635689577 -1.1936603536585895 -3.937371697463935
Ni 1.2410730812039585 0.4633054737493873 9.320377543836631 0.8166199021305549 0.18576914538144135 0.6904437858213981
Ni 7.562237068043536 2.966312099205349 3.8728048115896216 0.01736780185448622 0.1012919514729675 -0.48709112303023855
Ni 3.865831727129817 1.989005514087327 7.961301244386523 0.3165223395383194 -1.5221609486047074 1.6271522033061332
Ni -0.09919766099926211 2.9911693861876065 7.201653000779883 1.863432984283881 -1.0171893457496224 1.0617861585233905
Ni 6.184375420522948 5.195834370519745 7.93355128938109 -0.15604179352033773 0.8341939064585763 -1.290165939486507
Ni 4.968223928226184 6.158746510441464 2.1638176458162466 -0.17446477611221567 0.49461211399763205 -0.8149903369469318
Ni 5.971563606953858 4.628902670340887 13.396855028264136 -0.17198623266473606 0.6789872072450241 0.47186942098447765
Ni 4.673022976836003 3.21497682892069 4.276224065448605 -0.3787034410527542 -0.807886636022615 -2.5256049197437793
Ni 7.406111994299836 7.343289013637731 7.784128313413539 1.6328430830433234 1.0547981572413319 0.017102464008241516
Ni 4.823314947389113 1.1848180828745627 2.4510221935412186 -0.8567666495527696 1.0523067582780459 2.391730149238784
Ni 7.609526540839051 9.092788229318405 5.897914019330448 -1.1101552938553978 -0.04354034648479598 -1.4677412362032465
Ni 8.859767239340973 6.922745238569462 5.974427798410275 0.030516423421302286 -0.7736709093728547 1.4235018067688967
Ni 3.1479650371484915 7.914170689205492 2.3509674797424576 2.161160045492568 0.044854437310529204 2.485173808311927
Ni 5.343664495946749 0.2404414321150022 8.551224557125579 0.8040271530672088 0.21601714563270538 0.007478310654916153
Ni 9.055805436491145 5.036540130475648 4.319716968876135 -0.9628064001233677 0.03188656429595153 -0.9366503105532902
Ni 3.578622586410206 7.693422180901488 4.91388880165558 -0.09399284670839296 -0.7650751972840436 0.8698435373413859
Ni 2.592956751050553 2.7994302320188473 2.6523689738942884 0.5481111143570367 -0.3166264692163515 -0.4766061643385146
Ni 0.5708972917495315 1.53933296702322 3.0713437819941274 0.5296547074240621 1.0606340471968185 1.0684185762382439
Ni 5.364810643261293 2.1573663255473483 12.19400484843977 -0.8753233295090344 0.7611614640519343 0.5661623154317927
Ni 1.5505398739405718 6.669533444162245 4.433580061755358 0.2558245074376304 0.08502303910961485 -0.5621303114542642
Ni 1.9434981232114572 4.756266411659808 8.644234535748177 -0.72880155966399 -2.2212814362644973 1.6578414048598742
Ni 8.49928146216258 6.4439990354451755 0.29141907960503854 1.0657428291782935 -0.1495513006999876 2.1515160946449012
P 0.14279252890776103 6.297050764988717 2.4577178611248724 0.5774908530707344 -0.9531084561093134 -0.27770588089175396
Ni 7.585624596741551 0.4007801191398402 3.147037252231563 -0.5168369868341034 2.888889712248618 -0.5391189381607554
P 8.855808077962795 8.13854766327372 9.911175362754811 -0.4118624443032261 0.28490599818461904 0.30326033232209065
Ni 1.335165169363332 2.104179447636309 0.335273911010063 -0.20442275592688663 -0.880280930624626 1.7400316025063838
P 3.925660075287778 0.7525805434572866 10.114188481562643 -0.3183416521352453 0.21497019242542978 -0.8996243681482441
P 3.359849065800655 3.6247638105461557 12.36890608426467 -1.4179510521539966 -1.3839806087458228 -0.11396954694063599
P 5.94752387301721 1.5141266124484547 4.350007768515453 0.24481478659068806 -1.7170999334108752 0.012131750266527493
Ni 8.23444020533129 3.846807543338148 -0.21429535083724913 0.9848978327057684 0.6797058305786036 1.4257867461483316
Ni 1.8702949746668855 6.9332448243125215 0.8117208610184369 -2.774130065306519 -0.17928919408405253 -0.8450529606602672
Ni 0.7915116846100974 -0.13268610350573595 4.870584211008219 -0.8013976858641618 0.6049309515595582 1.6510506071902855
Ni 5.4368104272106414 8.19513335721707 3.431229714072765 -0.04845603861885848 0.5221851385198943 0.9168502451082274
Ni 6.272175106027908 7.462642572307528 9.766833157456102 -0.07457767540657478 -0.43172267356226285 1.0454740516269285
Ni 8.667991341215108 5.304348461843253 8.368539113987755 -0.5327680562420631 -0.7002358322111554 -1.4159517623357807
Ni 7.665533517457981 8.271827181686719 11.911721235170228 -0.0586067538996152 0.24771139141219273 -0.38468125590274393
Ni 0.4954362270407918 3.853935871016726 2.0419425330900447 -0.7387738403853534 0.49334507435975045 0.7963575523370929
Ni -0.25130662023126765 2.8537837305680043 9.862492375386049 0.5428490946271489 -0.1357151661478437 -1.568773249146608
Ni 2.532990613053444 2.731949954793546 9.981356320827409 -0.5376320692025839 0.6849369970705558 -1.2396962128717293
Ni 5.891268874687814 5.155471133638725 4.109712393629947 1.2983520748417252 0.7352727692106306 -0.09002280631705141
Ni 0.9106851978900754 8.47843845249416 2.617359331563623 -0.34890924050945715 -0.8157986917808402 -0.3454073980037858
Ni 7.642605288223792 4.212510962425604 6.071941667575152 -1.4357543988840047 1.4244135199498886 -0.6549237385379172
Ni 5.953733601768136 2.3403604179248623 6.405099126655905 -0.5567690471423508 0.4975783957148076 -0.16761355751833715
Ni 2.1895632179615436 5.323776829163088 11.388013288933097 1.5416864202321447 -0.47151023787284607 -1.2417659509165646
Ni 4.722691620854135 0.32010692411560415 5.863509733693104 0.6982283148628233 -0.18789107682045061 0.25754277568031775
Ni 4.255133952668648 4.04170667781803 8.895097472697389 -0.751545538228725 1.8000822879413774 -0.7096699810408617
Ni 4.885035609338037 6.952581331739593 11.859180132305328 -0.5467152624507745 -0.8721485313254786 -3.212457388669493
Ni 3.6109848266313787 5.504391750317984 -0.18771752806349976 0.7477307924683252 0.717846346204067 1.7555656935862411
Ni 4.963171634124098 4.501814508700261 11.316460862661515 -1.158256777348315 0.43188928104711427 -0.22499029566559314
Ni 5.605997977705548 0.4864945850790292 0.6091679602733606 1.166260878599714 -1.8134168002667541 -1.9117591821930944
Ni 1.3246288396631658 4.8043642515116565 0.08905173584334802 -0.05724355500350141 -0.2539440025854659 0.019549639997153426
Ni 0.2037847419070573 0.7994015307996987 11.409161273445495 0.1970801995188864 0.5581679843724064 0.30333386587250344
Ni 5.166861760341607 7.37938076550517 7.334230709612156 1.5265850458143322 2.161877126164251 -0.9924800159284005
Ni 2.7904830784635184 1.4732581461572263 11.751623221064435 0.018945173643935116 -1.0822521396872262 1.70943161823234
P 2.3810635364091133 3.2965943436425524 7.111963757280745 -2.1378239418697893 1.6496269873698814 2.55602646945843
Ni 3.901105925951646 2.1867982351893116 0.5055518384320934 -1.5107997579556174 -1.0975399190842323 -0.0040276331021543545
P 8.497076824736217 2.0551078929211504 1.4741087687642318 -0.632789111422407 -0.13881154568498028 -1.1154155138130726
Ni 0.16997754557268827 5.127582470195217 10.465806104693483 -1.1821855202497704 -0.9055232501311824 0.6392397521437572
P 1.7599896154344576 7.368881179762109 6.605666016519398 0.3228472533150827 1.1434513369043664 0.17922028851933006
P 7.046948999577261 7.855058848211099 2.0623115457117955 -0.6202850654181252 -0.9869606287720681 -1.9818227717794
P 6.406097643690263 6.541232731937119 5.717110785395382 0.9878846832482341 0.12937996795843523 0.754664543473681
Ni 7.241526624432465 5.005188349074892 2.200307151019359 0.6564185779158889 0.24741931409307066 -0.614292081059484
Ni 1.2852944335811158 6.819660066908377 8.947289507969781 -0.5247436432756898 2.316947299799939 0.030125358630470698
Ni 7.332275012495185 6.005818160965993 11.953588218495813 -0.24600263625120214 -1.3748418796693485 -1.9702607779734134
Ni 2.4967702573361334 5.510647409015292 2.491732660816891 0.06908039973742941 -1.4448437627797825 0.3412337262420704
Ni 0.9636286470852866 3.16393028651108 11.90241766523097 -0.0460721117677142 0.5781169166905076 -2.019233865438006
Ni 0.16284646209732737 0.2972962755441548 7.388210338397759 -0.1461708142635289 -0.9043271729405522 -0.7142120918855893
Ni 4.382130254416508 3.9436646142697533 1.75196932819713 1.1146452113059513 0.802551854073263 0.900981910617403
Ni 2.6593990114876074 7.72238560509035 10.926943684973613 1.0302220105638644 0.30702956955653576 0.3464090997954228
Ni 6.515346614155891 2.700487941521472 1.0767008262878015 -0.7565216512870777 -0.1684622786718776 1.2539864042421565
Ni 3.5039313076028384 6.143442652306785 7.473032844778198 -2.619323429744863 -1.1617586198539862 -0.15641923146441447
Ni 6.7547426806912245 4.814230003994637 10.0772562116764 1.32675839389856 1.1299296482688475 -1.840599274218817
Ni 0.6231931287007483 6.97583107059846 11.726266216265534 -1.188992515869275 0.8029665730131784 0.40220975170481055
Ni 7.466032202350564 0.9475715378299332 10.00255850267654 -0.39544106552240926 -1.3163451689850363 1.4868162505568265
Ni 2.777089906098355 0.7196055977513701 3.8761521860819848 0.6054590561488864 -0.1446644049213315 0.2120689596182348
Ni 3.6810096228862754 8.018541899365289 13.540215251309187 1.9018861460537568 0.8013418929255619 -0.8956741252512447
Ni 8.161595310368504 7.643882140733227 3.9635017581123937 -0.2792783675851964 -2.42064580383187 -0.6533628218087005
Ni 7.493948423761902 1.390345406947375 12.786254053663638 1.0976818439787355 -1.0819983718052075 0.6250400636046074
Ni 7.377764031392503 1.1269187924646697 7.80542419235329 -0.6119714033461074 0.5012797558257948 -0.003150372703523607
Ni 4.748201113075026 4.608721051900377 6.048561487668558 -0.3526481387265991 0.17960132600783263 1.7518275667000474
Ni 2.2806514876274955 0.4272578146304756 6.746902438843717 1.2422331203609704 -1.2519871144239407 -0.1880574271949858
Ni 1.6213179213161426 8.856855280740318 12.808988458524095 0.6143530162044065 0.33441490354802406 -0.4200282679434702
Ni 3.200187386185496 8.340657799335668 8.746104401027978 0.27670186510727185 -0.18609438993134403 -0.6469227226103117
Ni 6.115985730359273 7.057384283395386 0.132353570693926 0.7027138614380026 1.2385854963060539 2.970891705143722
Ni 5.452279633152298 9.20610659303353 11.458826243067918 -0.02184383534796883 -0.19537375835074094 -0.0017810031598227392
Ni 8.923710910694815 8.772785106881626 0.5347522611442886 -1.7174542314265 0.8728213890227872 0.6921723384767304
P 9.149566829036562 2.182655354025602 5.199264418915598 0.2787682607179974 -0.64364405185904 -0.4971207393520986
Ni 1.5236065533818213 5.111709080725394 6.399842903591882 -1.406334808071307 1.388399820859441 -0.1219052568479449
P 3.652964797625066 5.374878487508357 4.370484257211739 -0.7253172006598153 0.8994114808064897 -0.9333855237590893
Ni 5.558120601596337 2.5867102783425207 9.890457282540552 0.3990406099482095 -1.886297033366248 -0.8113745945712155
P 6.966011248061862 3.197890888866367 8.205939755001966 0.7626035958150995 0.5468211919010195 0.5640195580571771
P 2.3755703148217555 0.3737907640465028 1.2765254882177517 0.38341575892675905 0.9979880902308231 0.29067272546506717
P 4.541755190074561 6.08523103826149 9.390276492038439 0.5937908757823387 1.204718411244964 1.3094607831603768
Ni 7.255140260540264 3.159622057540393 11.38649392630676 0.5314709346971943 -0.2146382630073078 0.21693065858591026
