# total energy = -340864.2312230371 ev
CRYSTAL
PRIMVEC
9.31697883132268 0.00000000000000 0.00000000000000

0.00000000000000 9.31697883132268 0.00000000000000

0.00000000000000 0.00000000000000 13.63634029429426

PRIMCOORD
 96 1
Ni 4.490159460940232 0.6282755465871129 2.5205138428467158 0.6750503340844632 -0.014629319877400612 -0.4314537361715925
Ni 5.46192964877864 8.95315992918098 7.339078166452964 0.43106035738791565 -1.2145870765089275 -0.12037699312887656
Ni 5.406782452281813 2.000923647044268 7.115646770286373 -0.04269008266935874 -1.0792472914226316 0.6470870161023179
Ni 2.088596415930083 0.5406829037174951 10.864413247121673 0.2977838825885517 0.11678619045382468 -0.7382747892617479
Ni 8.778168436597198 8.803100671404685 4.621151521955123 2.296810162730431 1.732634281601048 2.6116381452854633
Ni 9.209265037696738 1.6197567344100932 3.360540089494984 -0.008405964675508104 -0.3055403866055189 -0.43387597245983983
Ni 7.03829721371995 2.682255660124172 2.3357274106317276 -0.2054727944579558 0.5097821368698511 0.8888959259871465
Ni 1.2064741964465444 7.75657104705833 9.23761101347338 0.9415078957559075 0.44211455831954827 -0.547322042796838
Ni 8.300701232868041 5.8974238637904115 12.916395800440972 0.0441754089656336 0.03860819929050125 0.16253691432637812
Ni 8.216485063053069 3.243258894228486 13.71161297007761 -1.393390332095497 0.2438303111902317 -0.6360166172207691
Ni 2.135591256127751 1.4348240256306513 2.351695780301589 0.37384328474697553 -1.5996802231381095 -0.5906559296977828
Ni 0.6517534010308286 8.012666838595461 11.703293505398745 0.4305793039864391 -0.5356294369502582 1.4692443031113342
Ni 0.7108454062785857 5.947595793700094 1.8447375441224558 -1.0435668073018867 -2.0352981179897203 0.5714469608694998
Ni 2.2752620827342604 3.1059732141506444 5.980721379512701 1.8067663848297721 -0.19453197917573595 0.036448215524704966
Ni 8.0262789443704 5.179224566281053 3.9828471795732496 1.374841622559032 -0.06430071896059893 -0.8563719852175122
Ni 5.722348518398982 7.822889300929662 2.1167551204363106 0.7394274148089524 0.7515969602919507 0.876156109822975
Ni 4.621333203038361 0.2632065096257234 11.195626247146052 -0.26669924536860523 -0.604656871962565 0.3912028590713456
Ni 3.82687443546201 5.357514269299008 6.034734699710547 -0.981524031137529 0.8258213661241649 0.3172700163376213
Ni 3.2165657504603815 4.483842549430712 10.879917631255879 -1.692122437529931 -0.49974300746629424 0.683293805040178
Ni 9.503970388666687 1.1885576465456493 12.212733784684273 -2.6516226560982012 0.15847405711091417 0.15132176233684907
Ni 8.870136332630342 9.220212487584181 10.160968316966997 1.0846098412861256 0.9127771034801183 -0.15532805528276475
Ni 1.5810353712337437 7.308340522262614 0.28777165547528133 0.7451008110446459 -0.05469070667466065 -0.2029392294028247
Ni 6.600520338944413 6.836640528303947 11.586416667004684 -1.7263088536036526 -0.5876454250062332 -0.05287576495310894
Ni 7.37643831905182 5.606640960822687 9.876214430869199 -0.05601842434714869 -0.5846225790195093 -1.2785617795886755
P 5.10358933378211 5.324942112016882 12.15792852130308 -0.2738391988474961 0.49980085728742313 -1.9343270401912818
P 2.526587581214055 4.785284075948423 1.6728923952212187 0.0058513165744544385 0.035574554670500025 -0.4815804776246545
P 9.088554262597416 6.109180154038744 7.027610639234081 0.6183914479398381 -0.6678692429549917 0.5481748777154366
P 2.0748072875612196 4.852291786238198 7.512041352789514 0.5726096137190332 -0.7384120861705605 -0.34095681843159986
P 1.7471477831854119 7.319073681641622 4.203401492739634 0.28769924465904 -1.5391641680309236 1.377530739355421
P 7.94162487655993 7.457179255838693 3.4908072895726465 -1.8312144905698076 -2.258701785894484 -1.924158327188396
P 0.5152540739491577 1.3642758634623844 8.883489426399434 -0.020520231440538852 0.4101981692269258 -0.5313349233399622
P 8.66403544840897 4.1832768189039955 2.1043057735940973 0.29976208936084503 -0.5173913166756767 -0.1691580191873216
Ni 7.37776133001694 6.092661150931991 1.7317337737438931 1.2975804867830234 0.2770775032791358 0.7930655118493826
Ni 7.0058182262240996 0.6861852272470262 0.977211303356932 0.2713493425461069 -0.08820915014708035 0.035831407876312484
Ni 4.120098386830169 3.234659322955201 1.9546872089068879 0.29287024733701816 -0.274940659441791 0.09592683050631222
Ni 1.2190987024869568 3.337024967136758 9.75103336942435 0.8045935670936402 -0.30948960106125406 3.717265212253204
Ni 0.9618196546641193 2.8812104217381673 0.9546586248909378 0.4042059561992329 0.2665696617692764 -0.029798057198039
Ni 8.665703187583311 8.191599413138722 13.966748181118234 0.577993760849082 0.06985533023024099 0.11052478292514513
Ni 1.124307761929647 4.920165975540342 5.249608749625474 -0.8217037444113654 2.1319296878725416 0.14992025400363213
Ni 4.176158647232501 3.9617656520325553 7.811304569704091 -1.7112054223033109 -0.7952231816223337 1.428176843647063
Ni 2.0019019298001672 2.5432836069147333 12.502218832529174 0.5038544585315065 1.1109212254871448 -1.5429709433715233
Ni 1.943531058698187 0.1378009089959482 4.609614307320553 -0.22513427744262515 0.48912872228555754 -0.3379110896267406
Ni 1.6156293128780617 3.4068836728865817 3.220357760761819 -0.26675246720404383 1.9959525263125624 1.5066530827770956
Ni 3.8925125498935262 7.451467947939967 3.4721668104323866 -0.3308729518330366 1.4164359010610508 0.436757407772693
Ni 3.539958078624743 4.481830082047148 13.311577312326799 -0.14792867749490007 -0.24871077921098456 1.104009585968976
Ni 6.983504062410973 0.24891612780669434 3.5690251885471627 -1.6380953325811982 1.0486673617532456 -0.3086768753519716
Ni 4.726941155782327 0.18011117233965324 4.94902345344364 1.080607404994952 -0.16160231832725072 -0.06438916490934717
Ni 0.8238808543844824 0.884253944193536 6.592775134611281 -0.7762980625830566 1.6786490856338443 0.87726554083707
Ni 0.08218227338056433 3.829287532926561 8.053172403178998 0.4423732112975737 1.3483016672869748 -3.0853312497422407
Ni 5.525452809061688 3.812311997867055 5.853385300911285 2.4752825173401436 1.401098242262716 1.3184881834699678
Ni 8.15705205638754 4.349631472299982 6.138357204308969 -0.6947840650679646 1.0860234338042005 1.4554351651423838
Ni 3.229069135778635 5.258540005337902 3.9776660077584354 -0.9857558098306894 -0.8620073291264186 -2.015590612258464
Ni 5.872799089277637 5.770452079053335 3.901139140404831 -1.2569192616182352 0.39060507758634666 0.6476796553809943
Ni 0.8388094492395028 8.088469776709701 2.5115956309043663 -0.5912493403074075 2.145948370749136 -0.30236198887753735
Ni 4.05544787213318 1.8783587931980514 13.365563613286627 -2.4250333913766045 -0.9729943963999631 1.204598854947964
Ni 5.129145806157646 6.153827115622254 7.756636265908723 0.6345022374587718 1.0333618417444268 -0.22705591994537025
P 5.476520037309477 7.31093064232109 5.485367440214256 -4.53211850940164 0.6523294954481798 -0.39419176649634047
P 9.288897254026926 0.7684140855207285 1.2433983144456278 -0.07348727055587344 0.7750009410381878 -0.11435958329020306
P 7.455641954365136 1.4358302593224332 11.025363121215783 0.9090878275539893 0.31608808021437823 -0.5945619496204083
P 5.829736014060821 2.6415870484146518 0.5374527072273025 0.5580515133992001 -0.1813566181360425 0.3277680876554678
P 0.3127691091331604 2.7081754946661847 5.452190611019199 -0.396122150749834 0.19063675788638784 -0.8214625749348369
P -0.21359359843369724 4.041826449379613 11.73263919298213 0.32877081788836926 -0.37589425373873325 -0.7983681550092185
P 6.747132314628494 7.221841692683878 8.670544289678219 0.14696914179510817 0.7378618700940454 -0.0483105141799297
P 3.351764427325638 1.8754612128448644 4.103856097988656 0.1300674809437631 -0.15044218794537317 0.4839260950386955
Ni 6.184125930119243 4.793697307649156 0.20780961810167659 -0.09872881873148158 -0.795797823178881 0.4260852727708274
Ni 5.0459545039917115 8.879443994279324 -0.07501192662875525 -0.7697900862612097 1.0701730970355052 0.37601355292541694
Ni 1.2115053649054544 5.059054175942132 12.932227210525008 1.0827676458710642 -0.09449086939073405 0.05709006014477264
Ni 3.163533508112022 7.75493125881987 5.791694790324287 0.7884830346850228 -0.16193913284137915 1.8791388250549121
Ni 5.1087602569204345 4.87747557946863 9.929859730411255 1.498296483282284 -0.025652667571097756 -0.25224578894743654
Ni 6.747840405004192 9.136247876192154 9.642092733425288 -3.024263435896643 -0.0104096253690982 0.25438160434351675
Ni 3.8526451983459804 0.5967319837454746 8.901747909415962 0.7838982435278178 -0.5911156429430207 0.48022216382454713
Ni 5.678046285024694 2.060449823496072 9.637660646692135 0.31118935736118025 1.0147082311989815 -0.4599096775194402
Ni 8.099584932212439 8.785249340354182 7.764245442353893 0.18560330922753843 -1.557286588663247 -1.039720436972603
Ni 7.116038083388732 8.867872306823832 12.143502111596087 0.7193075041306257 2.038388583989586 0.33982784703347924
Ni 7.868626349012603 1.6989976376379206 7.746436969405078 0.06954114142393185 1.0477240240033696 -0.5390816571649167
Ni 0.17803814459500988 6.02610065561634 10.453113362210079 0.10047331222641406 -1.351659528015614 0.487727728172973
Ni 3.199394558849695 1.0320137716445372 6.55528827110309 1.4947128796960838 -2.260950986939977 -2.00253017953008
Ni 7.339403329007068 6.823755146861963 5.8658486232214395 2.4922083465612044 -0.5439425848016439 0.11231632760792915
Ni 4.509799651887235 5.757520112718211 1.9748696480100179 -0.05594617634831655 -0.7633978095816207 -1.3157319608810694
Ni 2.4543716798714454 2.143864733149069 8.15078172977116 -1.4812441557856877 2.261752914015982 1.9967048310975546
Ni 0.644433050923115 7.998411861295217 6.57057463793741 1.2051673258569244 -2.091207527562831 -0.3087192985541328
Ni 5.775585734277148 2.0690121268548456 12.05031089626914 0.36446492885586906 -0.3490514225142763 0.51793767609745
Ni 6.955031375724995 3.9106154393669734 11.569234295019644 -0.2692017000754848 1.5354777203182717 0.7442140375643184
Ni 7.630046477295378 2.6923832158923844 4.810710110623172 -2.0989789439781337 -1.174060577149791 -1.2064374508185998
Ni 3.372699678301879 7.788379212092992 12.50640588272442 -0.3146806583438903 -0.44458101758216984 -1.5960048311690513
Ni 1.827078142831683 0.31134081630954774 13.51578125969959 0.10176117779990218 0.47679488331055314 -0.30690744215637467
Ni 4.588844898563883 7.4072029824801895 9.862169085588075 0.020680668277803092 0.22369883054767925 0.1970722290990864
Ni 7.900946947871783 3.261594708167623 9.567923993362331 -0.19684777179310617 -0.724540727505107 1.0254608417297952
P 3.6477089364530593 2.2623487503563924 10.531250203470536 -0.9408715477234892 -0.09822925338724374 0.38967228135943216
P 6.869371074222743 0.9341389111614884 5.847017146019312 -0.32937759823443274 -1.070072309791583 -0.3161819254797651
P 2.849607230233312 8.913721158650304 1.5674428311139226 1.2173666961365939 -1.9747815486619023 -0.1047390294813035
P 2.1587998498891285 6.511422072328574 11.084707616584348 0.8982552557148595 0.31812902190380693 0.3781367699160068
P 6.3094672435964885 3.988384259971639 8.116444936736963 0.8761615091396135 -0.5056478029865034 0.10849335431741314
P 3.2032517880015257 8.009452480968935 8.239403898779129 -0.243672959676761 -0.5988106975944333 -1.0574669623227464
P 6.5949394687464755 7.513519025599853 13.870884856320886 1.0441589323599307 -0.7629794910972795 -1.046150508868663
P 4.888506882163721 3.6188356196860942 4.022611112658029 -0.24806620364845022 0.24052901473114058 -2.5333010028364567
