# total energy = -381163.23602231895 ev
CRYSTAL
PRIMVEC
9.31650294378255 0.00000000000000 0.00000000000000
0.00000000000000 9.31650294378255 0.00000000000000
0.00000000000000 0.00000000000000 13.63564378477288
PRIMCOORD
 96 1
Ni 7.104876907515925 2.7250025654371393 11.011177569270012 1.1920953231643148 -0.392397393600079 0.9757935564116549
Ni 7.853103888203901 6.404303839147639 0.5880129436636836 -1.9057762251367827 -1.9840303209536798 -0.7610419077549345
Ni 6.1809406821848665 6.629176269579775 2.7360733658300016 1.508677826516608 -0.5230623989185249 0.13854286540462593
Ni 2.8473468814844862 0.40071955931809816 3.800485685147132 0.03759415620369009 -0.22007897440690485 0.026804778897669964
Ni 2.9487942815331882 7.493142165760911 6.059761860649972 -0.1647732598560646 -0.8757671019146724 -0.017351861014886245
Ni 2.940064718318418 3.1572044513457946 6.679488180176065 -2.785895947593196 1.274955807404972 0.014109442818188603
Ni 8.270222355921828 3.4689625877981523 6.003869364818198 2.1272934746521104 -0.9652651460765055 1.3665888956319368
Ni 8.780617650647523 8.145204203542955 13.058692428868088 0.0431600803272418 1.1672695223698866 1.3956433897957317
Ni 6.730754100669039 1.21535643595861 4.887519405149198 0.6795003994360169 -1.1056589486469408 0.6285017969009628
Ni 9.465007953483198 0.43030970417021336 3.5018377315718556 -0.6348259393467776 -0.5118014812927251 1.8086363481589756
Ni 6.059108773796871 4.250831460448279 9.576517176660984 0.12072254939375339 1.2705828751482569 -1.1368076063356034
Ni 6.295105108688383 3.5103185441592677 5.399278635899059 -3.276209177105158 0.42084227920433326 -1.0997554386783126
Ni 3.236869867620609 5.6912839229085606 9.232053456787654 -0.6111779609105346 1.0202882963899202 3.160337270935486
Ni 3.671056168646389 7.762426365504478 11.733185115854118 0.39393876994526994 -0.7012838138596955 0.08647468395447687
Ni 1.6294470402349133 7.633178520810231 4.012601959812284 -0.6912341429331773 0.19381412717310492 0.0033812577674070796
Ni 1.043914149642491 1.9013584937955177 7.268466313539909 -1.7941216994825682 -0.18998395479373734 -0.6738133763535685
Ni 1.3788517453033315 9.085323194406625 1.688692545459425 0.791746793037959 -0.06293057808594968 -0.24094939009801086
Ni 1.619441116123213 4.902539471120226 11.697787063095825 -0.2159389840966023 -0.7944896458904188 -1.1938788974272987
Ni 4.850739715011237 3.1798062873746447 7.583953846102056 2.8779635522544176 -0.7474497708927966 -0.3032608465427229
Ni 4.979223606467904 3.914701352416585 1.4153528720046642 -1.2840446570801176 -0.3915877532145901 -0.17094493588441526
Ni 1.0912140348520842 3.0099384900481696 13.454684794616096 1.5297027655077073 -0.23696263753612093 1.192386114931856
Ni 5.837683449436737 2.173605341460425 3.0693833684346834 -1.1011371495171873 0.6270784341908748 -1.1953603670688315
Ni 7.261300991161596 0.7476912817713816 12.461655520498079 -1.1854942729080293 -0.17224539986339368 0.22973706632195917
Ni 8.475381066223274 4.510035204056966 10.445025799654845 0.5581307033765679 1.660406851594205 0.23261438786975422
P 6.974566981491386 4.633683830509935 7.551801662953183 -0.01665483494786164 -0.36274228973780753 -0.11779226312083585
Ni 5.582905044704267 1.9487049615195975 9.513506872615674 -0.22655429771860336 -1.051921092803853 -1.2337662205405397
P 5.035942476106667 0.5333576794166718 7.539679029383216 -0.034839733387004516 0.40626129606636485 -0.6951332208772673
Ni 8.156430589534201 2.7778830358822155 3.5307729262702905 -0.03311503738641394 0.14951479103509735 0.9240886718381955
P 3.2467639936975417 8.334226730826279 9.38238641083907 -0.8246332593533345 -1.0571949396082825 0.7793371065196965
P 1.7346210414425356 2.753511064302878 8.990047977527382 -0.336664104593517 0.9601108555690754 1.680799556317944
P 8.46490931696671 6.36972098039286 11.927315881676032 1.129646826921106 -1.0761455125688564 -0.18443962793674043
Ni 0.4013419017116378 4.487321569993349 7.532084216221337 0.38108196858725985 -3.1320919029365477 2.2014232638879894
Ni 0.8391206462546168 2.267310727601471 2.406745236563625 0.7283140785046102 0.613698156229227 -2.0587041556184866
Ni 2.4663950780138797 1.9624002207786289 11.46694927585855 4.121161093411187 1.547325106575161 0.02217730742798761
Ni 1.595833097781454 0.6625971392583103 10.011003469080057 -2.5208527497707744 -2.1215126063042753 -0.9231851861873197
Ni 7.310548025476725 3.5709689780206926 1.3655692071226506 -1.042644038377301 -0.9124076359558415 0.45769981435231494
Ni 2.990112971882715 5.6927652468692305 13.401206204685012 1.4479961923658353 -0.24259541034186607 0.2193428675718287
Ni 9.162845815015059 4.582349899545811 2.0943936388767095 0.9748774723552887 0.7011683713277538 1.2777747649110058
Ni 3.974466718502766 0.7522461200378716 1.4104570497321332 0.19738821767760842 -0.5020570003114515 0.8761640802427749
Ni 5.161659366202837 8.91756092673494 10.342731529492779 0.3234622611912623 0.3959396024253826 -0.3422475122185654
Ni 4.620873639026147 0.46885766655808286 12.872224486679203 0.6081376314223139 0.7314986468801788 -1.1863167688093246
Ni 3.9763859180996093 2.134839372904759 5.0997717007566505 1.4356914068565534 -0.8536419878808588 -1.4991210360661085
Ni 5.26361917391089 9.040780994054632 3.2041037269308035 0.7948537140980569 1.0385978933323854 -1.779019296623491
Ni 4.4810888295550555 4.513677956689811 3.5565032439720543 0.776326858938463 -0.528065251449755 0.39375030808354766
Ni 8.237241935665384 2.704282662993544 8.857182534758117 0.48946733657189895 0.21482338243492033 -0.18525903851424222
Ni 4.181600527418442 5.1298528253114535 11.450286710426727 -0.3848059544060663 -0.3169900232033573 -0.44581051911389674
Ni 1.1976364474479448 7.77163107036701 8.133130015788055 1.8932063588915717 -0.08245990636812896 0.4861393006399305
Ni 8.758230094185311 0.11194709881395959 8.350536200798294 0.7762178441644245 -0.11517436588201456 -0.40631194679864224
Ni 9.08536977692111 9.041740593853055 10.94299940106757 0.5139900043036116 0.09056839440787628 0.25969118948188824
Ni 0.6815478378017087 9.040399017435842 6.268796236156697 1.4817573479766804 1.132329773069908 -1.5126118714636918
Ni 0.4708700311838997 2.610297781765579 11.229429692743329 -2.5030792278374374 0.42385535499904425 -1.5493542211900477
Ni 2.3965119897812306 5.419223405301599 7.415254338238903 -0.665948371783195 0.4785414336880145 -3.539361328552453
Ni 1.8806851738664085 0.6390030956708975 13.119807756224088 1.078734099231639 -1.9078631895727982 0.5140272852994502
Ni 2.7716037129294353 0.385708809849968 6.894017429091618 2.0085663584218314 0.11000850541035893 -1.1917387111558444
Ni 8.452639482650966 3.8171762000876455 12.998764023981204 -0.8396243334455282 1.050859484308558 -1.253325630729706
Ni 1.709373318590852 6.660088426193017 1.8149721523305913 1.2976663616286102 0.899418165674709 0.7514637771481961
P 2.1622578409315136 4.18574637120774 1.391735537160008 0.439584849919159 -0.35337550381092686 0.5585076271000123
Ni 5.782594967805 5.869415458304941 5.071914425443433 0.43726494353673073 0.9142122932647481 0.29885860370996914
P 7.440243062310041 4.91857317260648 3.598010127680107 -0.7980333973776191 -0.6701045600434137 0.12409506541041208
Ni 6.972694364409029 1.5774795870737726 7.235631230728664 -0.5006182109823959 -0.46038353183206515 -0.041337168185890096
P 5.019377733955268 2.3159894552398645 11.51663698076072 -1.5617178849617233 -0.1154039653943174 1.0587903091198603
P -0.07407085628498548 1.2254368920934888 12.967469890749173 -0.9194660854645198 0.1879442986558892 -0.29221178781741286
P 6.228538695487172 1.4714112015880094 0.8932057405243138 -1.6257319259198388 0.36065198286768213 0.11710989234183057
Ni 8.813476956366301 6.501465647863584 4.186606284425161 -0.22114392533630947 -0.9364428225281745 -0.7461703899597408
Ni 2.1234639228671552 5.0553953341562305 3.528141014201803 -0.0038731098021610715 -0.1707554455814285 -0.2624402129819351
Ni 3.4355349754026387 2.6130368336173855 -0.10078965494415283 0.6977783718095982 0.8466408739726774 0.30330841195120667
Ni 8.719054199502164 6.238656417633641 8.07133272041997 -2.6123925069529847 1.657406117094668 -0.04044576671987228
Ni 0.7159685894060742 6.426654129598263 10.005207672627646 -0.5285802434129606 -0.734196248317 -0.4877961195170631
Ni 7.305004706252832 7.421367827440111 10.483791768210512 0.033607917862432446 0.6463051436309707 -1.3603205461247219
Ni 7.851957958347533 8.418662196584512 6.3214708118877425 -1.418249814341338 0.3262583358791607 -0.7849747644214481
Ni 7.512324845226453 8.423162067483908 4.045886098063179 -0.9440532878855805 0.33991063655527265 -0.8104798506710881
Ni 1.4019846219973282 2.7501384902540558 4.61220183812934 0.3920868043381957 -0.9797797947529127 0.52727926521335
Ni 5.0435074764592756 8.645649473174334 5.3256596300045915 0.47168764399097474 0.7146376094587821 2.6563498863705415
Ni 3.219625020757706 2.6051271226575774 2.688048656694998 -0.09033982333683797 0.5406250903926366 0.11646480255866394
Ni 6.427995706015473 5.4908020970615565 11.588851989668564 1.0024924058590798 1.3539282694451327 -0.20028533671974538
Ni 6.303489961295954 8.129543162172594 7.838176987261846 -0.7917740467314687 -0.006599507594388635 1.3590406509710335
Ni 3.3623538451443453 1.1955216012902576 8.933951450282159 2.4952671879921864 0.35626490954358 -0.9570818389347644
Ni 6.121445494682707 3.781400828962013 12.9070234883012 -1.380019567215546 -2.567908822718313 0.6783981675107736
Ni 7.287498997308804 0.5034423886134408 9.894895620072164 -0.6012817848427451 0.44515514491808494 0.17067394161121574
Ni 0.6786625168544148 4.80869433743572 5.372989328023458 0.929470247865083 1.4706183006407252 -0.5227407539130482
Ni 4.049278236768086 7.268586496427284 3.789508981433533 -1.4403088510239066 -1.4911956105714448 0.2813859008465025
Ni 5.191351060936532 6.654740753529967 9.455323448721455 0.913958011162097 0.8172847894080635 1.4151619194446337
Ni 3.7330574954279223 3.449565628765973 9.595906682490845 -1.0921020358981126 0.5505593187872132 1.2843578174451622
Ni 1.388885618923724 7.4145574638221845 11.808317121819107 0.17564208424976846 0.5308800951907309 1.7690020215968052
Ni 6.404667182760634 8.498131966298484 0.9912228042062301 -0.22430021157710403 0.23240227185894816 1.6572767906056556
Ni 6.061307468480634 7.787767253385134 12.591903025953206 -0.22297583633872567 -1.1749653483522473 -1.3387063102890557
Ni 8.840243269190244 7.606524006021056 2.1606358377770936 0.04472691059372942 0.9911690104264607 0.07176874520286994
Ni 8.174029463507201 0.7495415392467853 1.2900356598827891 1.6694460789783376 0.2889279748598185 0.4927647763762481
P 9.048495058453597 1.4675914354001163 5.509277653957192 -1.2310717044275121 0.25727872338565366 -1.124140038170264
Ni 4.30504419080767 6.804279941534532 1.4059441357286806 -0.5029527726528434 1.0689561939092687 -0.08344798131301112
P 3.5692733744933838 5.332505396333528 5.274648981691004 -0.37887544785424426 0.7220662978226854 1.3815522018099884
Ni 0.8015052658067671 5.505484905627702 0.20502268935914783 -2.1929198544026685 -0.15385249917850277 -2.0738494959003573
P 5.669539205146261 5.5732438311997665 0.30435617490045264 0.4030990962882993 1.7596792015339824 -0.47601841015584473
P 2.593947319180817 7.902472037056694 0.08665279344778946 0.3437310387426274 -0.04612096272777864 0.459313438696338
P 0.15000314984885157 7.046909626488922 6.111509444342736 0.8565326791650926 -2.102833027616901 0.7793311929824256
Ni 4.845708803446694 5.533173552238478 7.451102378087135 0.737381330913201 0.1422542528179421 -1.1651118525969353
