# total energy = -340867.19177779136 ev
CRYSTAL
PRIMVEC
9.24904117236889 0.00000000000000 0.00000000000000

0.00000000000000 9.24904117236889 0.00000000000000

0.00000000000000 0.00000000000000 13.53690666316662

PRIMCOORD
 96 1
Ni 3.015834886931885 7.986658125201109 5.2587227704033435 0.36306444896391665 1.6109773933184839 -0.2924763543327092
Ni 7.917937748564485 4.822422371090943 4.290156694272673 0.18349089087022594 1.2238800717750793 -1.1953284853896318
Ni 5.309920838353818 7.160718739783815 6.173506596452682 0.03596561946133161 -0.4130739481128241 -1.0005604789436897
Ni 8.260734965157107 7.423585741720489 12.089960138311056 -1.6064699923664334 -0.6533823621927264 -0.7516766644899506
Ni 3.9078494231825633 9.186591743414974 7.419321008790859 -0.39798285810765655 -0.5922312446047027 1.2769039322702782
Ni 1.040119434108317 4.595201174209122 4.3318911431956115 0.08447539413626097 -0.2371503280668948 1.1515994199327972
Ni 0.7096252922131424 8.673491929916544 11.559638609967754 1.974883621457405 -0.401930787011811 -1.069856337126035
Ni 3.014336542246133 8.612503751781698 12.704211166755487 -0.34174023356484373 -0.7484720415097239 0.09521926291632633
Ni 0.6010600457850549 5.940030272959912 0.9925377412944396 2.9990576260549773 -3.4378374635743376 0.0816806049999432
Ni 6.671435207555816 9.28677735845238 7.444080692270837 1.7473175946448356 -1.8140220379509209 0.6419093285561203
Ni 6.067676291528154 6.9866702811636285 2.0536571236064516 1.4407320546042541 4.213933180338601 -1.960959040956513
Ni 3.605563007352849 3.6647291243574904 1.1965965641236236 -0.6511989813881623 1.5009146376314215 0.651030317020782
Ni 6.791746736396893 8.270825669182756 10.06858864306604 1.2117352088824291 -1.7472114080842749 -0.6190460508047017
Ni 5.253769908803221 8.763207630236227 11.974558000576133 0.28023224685803355 -0.2289485089823928 -0.28827362910527127
Ni 7.854591064905773 1.7986425577080682 9.008229531946428 -1.4483875142669829 0.21005681428421244 0.7483445147929241
Ni 8.317968032536305 0.9146062444569526 12.505543610082626 -0.42778837150486326 -0.062442582705937624 -0.0855737694067623
Ni 0.870575258586655 1.4262206619274098 10.029115584733633 -0.951338251582768 -1.3717598983099148 1.8358136799047158
Ni 0.9277343336356907 5.272730443406866 7.747131078909459 0.1517681058456483 0.7096023610277199 -0.4353417583720889
Ni 8.037315124237285 1.6826965763464645 3.4560263579066035 -1.4380573359855684 1.230317856980623 0.8914076366654067
Ni 8.42234346326905 6.273772678149135 9.924542224517708 0.4114636662029107 2.434404291068543 -0.6733102114649049
Ni 6.407338083130222 2.014718659859455 13.929883017015703 -1.441139831565634 1.0982793683534182 -1.393734088588161
Ni 1.5569928564449365 7.255456669513147 9.14349028619232 -1.4680070882701233 0.8927309834625207 -0.09273737703473706
Ni 5.941732096553604 0.05739585050554944 3.0030952574864895 0.758461805732584 -0.2413790214362617 2.701380187137302
Ni 4.8284619950403 2.0116479781577916 2.3581836572317765 0.7475811542643382 1.2549845064893677 0.23502891084851782
P 5.3176252897317875 6.386536989313834 11.420289779480491 0.5111970149395068 0.5789790075804867 0.5626015946637278
P 6.6633515454857735 7.988295205505913 13.549360810890716 0.6218822347019161 0.40007599319125936 0.8924576751964758
P 2.9687017726196054 4.821599206417908 9.10403017651769 1.2322125029001747 0.013515003767299305 -0.34912727005753424
P 0.9139560368556666 3.1433421698810764 6.4483326087515564 1.1493661597269043 -0.13550484990925052 -0.6903319428338821
P 2.4426717994256166 6.64588935556788 0.2095259311239229 1.6979063912015597 1.3066796208708142 0.18630907704531138
P 4.096224646730089 2.526014910310222 5.694787319163357 1.1480829221391067 -0.768164891952961 0.5530779714440087
P 2.2863352548376152 4.67624127381748 2.6351619214341966 -0.5275376610810593 1.3043944243810632 -0.8924669311678566
P 7.0643067335846 1.193459289324816 5.598878460809234 0.9436475678067298 1.7923368396680035 -0.6031921144915805
Ni 3.5648117315169188 6.800477831355839 10.037697770128132 1.182954280094995 -0.467057344307815 1.0553869398652662
Ni 5.339258797262483 0.6921677268158843 9.504804083407624 -1.6801549807554097 -0.42407132766459227 -1.881269755354986
Ni 6.903882112755227 7.305077775927074 4.21573150898067 0.7136739599939321 -0.08226398830723897 0.4554536986306156
Ni 5.233616247875737 4.000108609851517 12.907021369013211 -0.4056935964883529 -0.36497040773737793 -1.26687817260316
Ni 5.002686185444618 9.287332300928583 1.0677546445191608 -1.1626963011769074 -0.7253791642460024 -2.83352743342823
Ni 9.39998562359804 6.6589120056761395 5.094953696250714 -1.7101702961705774 0.20018249259329396 1.5418900516025187
Ni 3.016121607211257 9.223661900825418 10.403140339366393 0.4344940656598129 -1.3104360025894528 1.2137596955116257
Ni 1.5011471452562508 1.0995815204336004 13.09906938684908 -0.26338175095959804 -0.30505033434297785 -0.7674922913659685
Ni 3.0635506908441785 3.2824107544178562 3.9446143622310936 2.286057809309934 -0.25505086249639947 0.29354876146128156
Ni 1.7019438312294812 3.1243076429472714 8.748605243879041 -0.6199996729672226 0.29565603761227144 -1.1412273326698539
Ni 5.671364122146903 5.028777730867486 1.3102071625645346 0.2929502086453342 -2.628338745869596 -1.3371497644352133
Ni 0.9367244017501992 8.497519670712183 7.163609065180711 1.4999471315118298 0.23580024179690356 -0.3440819943241429
Ni 4.192997365538837 2.8231403611112365 8.948735073976698 -1.6842003544693767 0.47312360510655294 0.14753298471837817
Ni 6.431672310711778 3.273032226570005 4.836615024919866 -1.2540604520132015 -2.0284618117941777 0.5399542895778572
Ni 8.904412743306395 8.69400630345356 3.1787364010133823 0.5185084609992554 -0.3042674334303663 0.15105282494617855
Ni 1.02866912101597 3.2176027222384724 0.3023668824887634 0.08350608824445618 0.26776728162180335 1.3321098880184605
Ni 4.66312613329652 6.8064619610575745 13.629364092972699 0.03479396775073362 0.03763220853047713 -1.5435427567145932
Ni 7.7908189253486375 5.87682232492025 0.2667867456269293 -2.496729631470326 -0.3358153834399765 0.44352763661699096
Ni 8.302068930593054 3.823923622697943 6.654919194559851 -2.4040377629615435 1.0610523656811597 -0.9413353747337853
Ni 7.199795939149863 4.806134809414349 11.059192409830908 -2.4733053390091144 1.1410201017550543 -0.06650955368645965
Ni 2.1963883284861794 1.2916656095304242 6.525682340893156 0.05773797814141669 0.914240318289206 -0.7685852673198312
Ni 2.4440036613685066 4.636118932787913 12.872149708712664 1.46981174557903 1.0480050455788983 -1.2549665087672388
Ni 1.4892898743480205 7.065379622371928 3.3253142821573323 1.6324473902668013 -0.2807063582809746 -0.049372894006173035
Ni 8.397287810468429 4.268127327775619 8.904604198460685 -0.25181281517507603 -1.022393515658381 0.703854402800349
P 1.368247671246608 0.18815139674878997 4.547452998652383 -0.38552046397458767 -0.9520203652514572 0.37684736168062194
P 1.724983193033227 6.539654867539851 11.674918660357914 -0.5872497322297112 2.269492448752085 -1.2514893488519157
P 6.701078384826392 1.043375096635382 10.997776001085258 0.9079115478577008 0.6675964489095793 1.1136375959770435
P 7.490992754496761 3.797591602202053 12.931008757547138 -2.107399563941661 -0.8437679233002565 -0.5204907815366068
P 8.82655431389494 6.549634583070258 2.6318322665769713 -2.848526477940223 0.4228279421757944 2.0581451977912235
P 1.397761361939403 3.1076223724960643 11.639574374048465 0.13862308382325803 -1.3229181942168635 -0.44777124238469335
P 7.141083025167455 6.000084297926479 6.054747056736723 0.5997946587742574 -0.7813924463868285 -0.07742388660611828
P 5.348452344284932 7.728822601715354 8.217958149283032 -0.45177085046238974 -0.173979608945681 1.969988498148633
Ni 2.433034298422203 1.4435533652675219 1.6993420759202102 0.7173097569743065 0.853914267705639 -0.04962409078503067
Ni 5.614602755872481 1.9768808320235967 7.445339486787693 0.39622936575165957 1.6108390679684066 -2.2336749248328434
Ni 8.410338207700498 8.84105681060641 5.570505176905039 0.5155797173882346 -0.21170283452806765 -0.8837655467391168
Ni 3.66730035783057 5.644551151504969 4.634414334481839 -1.9950711521488738 0.2605741063074738 0.7818452176535309
Ni 1.1138527911133191 2.2122134380992704 3.760863659318603 -0.5111828738721196 -1.0686312064696821 -0.00866718875669475
Ni 3.5283242637064904 6.490209492910055 2.2021976513079107 0.2938549798477907 -1.137918322901279 -0.3085740312255202
Ni 8.970571135511207 1.3959855460155495 7.035441400684837 -0.18680272885227828 0.18643351843831762 -0.22875644757624472
Ni 7.676278798260084 0.5810858162582107 1.420589845602191 0.6222452744682896 -1.7326113987829128 -0.49432029378882614
Ni 6.358031444119477 5.620013445015472 8.261493386541254 0.5340379240934222 1.2911061919125895 0.3023486191410986
Ni 5.213481085030794 9.514396264108814 5.5011012961185575 -0.8868087044408147 0.23963838459607112 -1.2365031598557286
Ni 2.8090263241331086 4.163520671011121 6.473105240889313 -0.2928846455147214 -0.36353007574642554 0.053760738661223544
Ni 9.045201649519406 7.9408013785841005 0.6460899281125201 -0.31920811390059867 2.507348801747069 0.43299151297235744
Ni 5.47545092996427 5.4581459737479685 3.42070889381684 1.2509748711093422 -2.5928220410202245 2.9856033003222837
Ni 9.244601730260856 4.680884292535056 12.301162920617243 1.3418394566013987 2.60265342528835 0.28552074895048246
Ni 8.521215714446104 2.9522847243652306 11.004530575924791 -0.2988578323790208 -1.6011256973353845 0.04903839348488974
Ni 2.235964976080811 8.412428491027534 1.470716874573592 -0.4494738268980969 0.15370363230546433 -0.045669219902340706
Ni 3.50857756059489 6.3128406284739125 7.563313782899824 1.0657389725235515 0.35014979778477756 1.3453024754493346
Ni 3.4703327749431487 0.8828524359685465 3.857693722183225 -0.6478298078056134 -0.7429166589091334 1.0100280521144929
Ni 8.294392226338895 7.272881863265959 7.469110447755901 -0.5132307575400838 -1.0680326536537348 0.8809437610196054
Ni 5.171703165613886 4.494257137787573 6.527238954538909 0.47189436068514207 -0.22192631202828875 -0.405649887734611
Ni 4.473863001787067 1.9963778110209052 11.178303413115128 0.23319545718420484 0.1228938460134593 2.167427880779151
Ni 8.13510523758574 3.382198660680647 1.3023131058405293 0.4970747166055117 0.7806311427407717 1.8270153648867957
Ni 1.1462706807649161 5.122609254552351 10.247248673663483 0.26383580777788107 -1.4587997107392423 0.016010259385327266
Ni 4.816521482760638 4.508944615324444 10.540918682646 -0.4792574859184327 0.056054419791406684 -1.110977789756693
P 9.512176494203997 1.7412522566272808 1.6874431843262647 0.34181582399778554 -1.163267857409661 0.28261488815759717
P 6.296432829260807 3.546507878843449 8.894289667636302 -0.22973758054259144 -0.005529928679293703 0.19099182723296138
P 4.612987080571467 7.5580575527460425 3.704780247769276 0.6728278725118477 1.5866958950632994 1.3957644887546283
P -0.4381964527727647 9.069360145316832 8.897524982272571 0.4085614049544512 -1.0213787012406215 -0.026358178278554606
P 4.088177980825128 2.0013167990591225 0.015371906590857156 0.4136779002454102 -1.4296248889474992 -0.7359044892573584
P 2.5555101029204765 1.0892410922936615 8.827497716104489 1.0769842064200676 0.8384812209800204 -2.5931593697549853
P 6.510011690269275 3.4941953014199307 2.6724697792052803 -0.6447228867455155 -0.271135683873404 0.5842474550682777
P 2.013201817091163 6.397358367599817 6.167022093618235 -1.7239892043315403 -0.6987690178576417 -1.2441971860658767
