# total energy = -381173.9829855844 ev
CRYSTAL
PRIMVEC
9.16531989802240 0.00000000000000 0.00000000000000
0.00000000000000 9.16531989802240 0.00000000000000
0.00000000000000 0.00000000000000 13.41437211549801
PRIMCOORD
 96 1
Ni 5.4046423317099395 3.955586969977207 10.747863274021569 -0.48442848859641086 -0.6367318981202389 -0.12753571566084487
Ni 1.62306811993856 0.5480531178120149 2.4850389337478624 -1.2046032258233383 -0.30800041811023726 0.6082813560890299
Ni 1.5876991515452024 5.773509784925557 7.806856105163142 -0.5970775169534104 1.4835728039188643 0.2796709750379248
Ni 1.8992466958901129 1.474369974508699 13.55951478796512 -1.887472798841904 -2.3131695779250614 -1.734541268815774
Ni 4.568811009441932 8.21410608386145 8.006314540215426 -1.7985259991978508 -0.1388025468239158 1.7545174548273845
Ni 8.04320953432464 1.7543888193788366 8.085163784861203 0.11851448599884105 0.11159513317118845 -0.6822969883445474
Ni 5.467883037051782 8.31441134172538 2.3121947537929173 -2.481422825909927 2.030766291557638 1.7238156548681536
Ni 3.393386264807849 4.937898430328303 9.372581402931958 -0.6546020935324403 -1.6038338402951668 -0.21796861293212139
Ni 8.687604825799164 9.147135620643985 9.827328817469834 1.0738006664857636 -1.2276675638419696 -3.412693360208542
Ni 4.017031272674556 6.7012509322903755 0.6706768454698461 -0.19091469413812281 -0.0013585709104234668 0.6491953206945722
Ni 8.10026364892652 8.512657204992632 2.34586538846166 1.4275098994870254 -0.8924425056878242 0.017190138626041365
Ni 6.724475852194176 0.23500062798636082 0.7153586951237608 -0.47854837566655 0.7941919121443419 -2.428304091708076
Ni 5.096605104777482 8.005961675410258 10.46122431879369 -0.03773453843629631 0.40280316231443536 -0.7054716266887979
Ni 4.410434286498885 1.0566147064679534 9.45254423391093 -1.0007641103140636 -0.19373133765131154 1.074301260271266
Ni 9.076498502373031 5.086862370026992 12.006774915026497 -0.09782456174965733 -0.15784619371892816 0.45420028583948874
Ni 3.2720007718299717 8.5885827126813 12.568837223869673 1.136526584760075 0.28588224605495927 0.11812444964927397
Ni 1.3109431604579194 8.28941751513593 8.313395824312064 -0.09582141527669949 -0.8530694032068404 1.440313736119913
Ni 6.141121589353953 7.835587549091491 6.64454051717405 1.793951492453291 -0.2954675757505492 -1.311235872782929
Ni 3.4097921869182684 1.9231406841257914 11.50581504245904 0.7633985809125692 -0.014604894397368397 0.09945849780865453
Ni 6.053913573219514 2.6880324325755596 0.04287536515784572 0.46089132470641914 -0.7763991069372951 -0.6646293958614554
Ni 5.954039085377478 2.576545484781623 8.593850021863902 -1.2007931080486287 1.0024381555823767 -0.14043082645595814
Ni 6.017765552658903 5.36283930894702 13.084673326703845 0.3193143004611597 -1.9282546087449568 -0.4867183130718521
Ni 6.614776141725117 6.929604870492112 1.2644951537142406 1.4564942025345173 -1.9030315725121096 -0.6265151054882371
Ni 5.256631585251186 7.382399155420084 4.517544794176773 -1.1294442239919968 -0.21443231764408877 -0.2447289117451011
P 9.054052634636484 1.1853691164160973 1.3858119067950068 -1.169919558398224 -1.1250466091449334 -1.3222036846483423
Ni 7.121517497905565 1.4356464991363396 2.660539223327165 0.1373501306481054 0.6834431861338488 -1.4073241685677698
P 4.132945069842421 5.042566380328859 4.635094600895873 -0.10605903384430766 0.722645053144291 -0.694648567931365
Ni 6.545422168200231 4.337560830241931 1.7636815369362413 0.6430300724241248 -1.2262429155803012 0.28451827582789707
P 4.692698634674638 2.8412307499362672 1.6820148730408868 1.7994402834820042 3.4713525646126477 0.6697289218715499
P 0.5425163482327386 4.903785110722168 3.0914357266315533 0.7301300486674265 -0.8152811287144732 -0.30014749772472177
P 2.1442815157907127 5.360657962878708 11.180878799220888 -1.7068242625164796 -0.003027216862098012 0.41721625241597177
Ni 6.431854692853745 0.2629365221721483 8.870507944031308 1.1148994934086027 -1.3172777081016347 -0.981766229055322
Ni 7.326270738099296 8.279216514404704 11.236119097071008 -0.8918557799464187 -0.6801619442794157 0.8356604637017737
Ni 7.128070701430119 5.570562112695933 10.704226270803735 -0.5090550288958394 1.4395555177976498 0.6240967258547316
Ni 8.445475412216442 1.7997479861522823 12.678888882611936 -0.19179452563991486 -1.377510427640447 0.49266167513948056
Ni 0.9616711605786581 3.9243607260497204 9.650500473078354 1.338282849598392 0.6660599576603947 0.02034205399146174
Ni 3.9108602102571797 8.987264950603732 5.84792851406956 -0.0736819030651828 -0.2678757821752096 -0.4403777781340996
Ni 3.7212480780670316 1.4888236835411752 2.949525416908383 0.10085280705301987 -1.8191575594052733 2.5469713012346973
Ni 0.42343318354208925 2.201848888291018 5.860564740222428 -1.1534251602876264 1.9395304387690924 -0.042703452405797426
Ni 7.223857456723971 3.3071222765937307 6.374951806025509 0.10551833084948924 -0.15167837434531942 1.9477669677462714
Ni 3.917010139718683 5.726418372744922 6.63743097874888 1.077144900367648 0.6535875362249969 1.5906006294343444
Ni 0.12829522743544436 2.5575916038182998 2.9128366424905003 1.4049842075806835 1.055963895414659 2.8308203189097116
Ni 1.3020711310708322 0.33500892949477246 6.4210038709618305 1.565706437295826 -1.590065839976797 0.669317288255428
Ni 1.9122431191038423 3.8328725056551893 6.761393759602428 0.9378888109460816 -1.4331514140435189 -0.050516263581996866
Ni 2.6460919300184194 6.232169874406976 2.6520209752772073 0.8575040419394265 -1.6506968233952926 -0.6697325214159756
Ni 4.130855376970256 5.990911166187656 11.691859115723162 -0.5617166209556133 -0.10768731347635002 -0.8020934263796057
Ni 2.5973232643482835 2.910685541976916 1.537085507036615 -0.955443274890077 2.7400819745828744 0.038687389267868855
Ni 3.7710982514517095 2.1062271087502307 5.352683218281905 -1.9369020000073094 0.6370982803207221 -2.8852552008198242
Ni 7.75209148740103 3.63532320667866 9.584783298376603 0.3039239340480185 0.8007011740177694 -0.11333165624632095
Ni 5.755536593161014 0.7978016615904856 4.288359561485978 -0.982353983237992 -0.9300981112570692 0.5394770928311226
Ni 2.126509961057694 0.16629647562216088 10.585120192814049 -1.3927953788239755 0.9321135990252011 -0.3738458558501368
Ni 5.045096008542533 3.286408654264374 3.8107410083814295 0.7877682680061852 0.7521122093654724 -0.4383620332556515
Ni 6.79222589478648 1.6694721331480882 10.652607190733407 -1.1066591077766812 -0.1201669340005995 1.7431786327757979
Ni 4.2121975885512475 1.156672500702285 0.7240556669062064 0.33903723281138387 -2.6063275317058276 -2.7980600937595557
Ni 2.413329473081983 3.9160111198806744 3.654464060162124 0.11673296861838606 -0.5826631413002933 0.9768464231562014
Ni -0.049840091533101594 1.980561411512261 10.543749773136947 1.3184987249929292 1.2281324192935301 0.7653644463896883
P 7.308838300192023 0.9242399952719796 5.744101023877678 1.332336659317286 -0.19198710126669516 0.856653521013673
Ni 7.5965285175797135 7.731634494020886 4.577386082473501 -0.595906893684077 -0.2503647698746398 0.6490873343617983
P 4.9665033928459685 6.269096947134842 9.101396093106526 1.6035715877727157 0.30468343792186237 -0.16533196057301203
Ni 0.257759949653732 6.426172194692593 9.854170372493622 0.30932633601051246 0.3544707937576347 0.4533091414837871
P 2.7709419138106757 7.5333886307536355 6.974279387890335 -1.1934801193269833 -0.06960259078948658 -0.5020184337640321
P 7.2382928351172175 3.6737625571429615 11.994446643612685 1.0556635905654206 0.7846304937081519 -0.6725190830221773
P 0.22098960389127772 -0.09842178468309669 11.787087703052476 0.35110316283698245 0.4029875104110995 0.9749121822479663
Ni 8.759158476031592 5.593081302989399 1.2792604836136183 0.2173230089283225 0.9709848221691021 -0.45976363885987914
Ni 1.294033145768688 7.527825281747476 1.134276125691658 -0.24914529564524188 -0.007252053576722994 1.5129831387601813
Ni 2.005151964038661 5.375542441933077 0.12839512941924522 -0.19310347425932547 -0.6220894656167156 0.24345210191520653
Ni 8.349542011808754 8.562415725181163 7.271555613063104 -0.470142668101358 0.5364650454776762 -0.33847133300558485
Ni 3.8689563689784983 3.9056268127571516 12.834749725320732 0.23176103873052348 -0.3562811074934961 0.8705544473654814
Ni 8.773410548032544 3.3218142839361904 0.8762008890431784 -0.09184880378219666 1.4214143281122489 -1.0873994882161209
Ni 7.7080521266521105 5.5483820392282155 3.5459017658572574 -0.4286134385093199 0.38138895830471736 -0.8084036848683497
Ni 1.5901004652842694 3.311952400030709 12.206635707609868 -0.47147089999447833 0.6908523341137263 -0.5172285658455673
Ni 7.362895355279876 2.9965279254887554 4.255118780307168 0.28530554761588284 0.3129559623432997 -0.8482519272135391
Ni 1.360802499162212 7.336380085634375 12.403450864485256 -0.03560977878380964 -0.8333819520802421 -3.2214469937626133
Ni 8.955690424530884 0.4660033435567635 4.464249377148907 -0.08411749657620998 -0.40776256320223964 -1.457776925901683
Ni 5.138041514755811 5.815670255153452 2.691083567475313 -0.9336297785594113 -0.0600393725810837 1.351399332375692
Ni 2.01643447248443 5.812013292627163 5.237708866374553 1.1703507323983715 -1.4125555921700381 -0.6836157071559711
Ni 2.6653299358897997 7.851535205221173 4.243367924029084 0.48415826565415965 1.8367364488293014 -0.07264009206422974
Ni 6.3996019331294045 4.922876471479713 7.906712262365949 -0.7139907199034027 1.0355891884130488 0.8785644621541514
Ni 2.9333055507861427 7.3606131906958 9.871152793207807 -0.5933285914339393 -1.433762051044324 -0.11482495296239578
Ni 9.133928395079115 4.4294889859779705 5.224750020971244 0.42708980277594194 0.4882887428827656 -0.36556073302320913
Ni 4.758129851404407 3.55063565343828 6.735329423681974 -0.045696473595850336 1.214217866094967 0.07355360501743462
Ni 5.607406697547268 7.508303150968038 12.606598340682481 1.0098041090291447 1.647746225407401 0.9954889779580532
Ni 5.447810987095457 1.395429076666774 6.645600028121516 1.7795440587787095 -1.6721164267216493 1.276425449971963
Ni 0.6160781199927612 7.4433668614974655 5.527834309183886 -1.0537157228104304 1.3202146792427714 2.4966015905328938
Ni 0.6506808676663248 7.027426326740442 3.415298710942816 -1.85309329292077 0.33486613215282973 -1.3251275431633567
Ni 8.206792158808872 6.093315282243367 6.695515275275459 -0.17378266244352653 0.05421068171444857 0.7282333458653459
Ni 6.296666228536039 5.306362609480871 5.311728904115313 -0.7934352364839755 -0.26509461988564664 0.5268799728924023
Ni 3.218374486764013 1.5964795277361423 7.393210566437655 -0.82997446906059 -0.18075652265819836 1.4413743161739434
P 3.107785740292323 8.547522080807177 1.5767255143704508 2.1848306496366305 -0.5705511885281077 -0.37185865021677894
Ni 8.376469720836917 7.804727917948595 13.390199256061859 -0.08653896153350904 -0.2413864776354294 -0.6010385584836874
P 2.898724799879655 2.601658460526064 9.230550110989874 -0.2425388460723178 0.8442546331286881 1.0812998030762861
Ni 7.196709780025053 7.09901663825133 8.947439803813678 -0.40938132975258523 0.38786608138862877 -0.5684464834802792
P 5.267391670478914 0.5520812757827018 12.060593671804364 0.09334724270459409 0.38260483298968945 0.21384944855742527
P -0.1653194525512275 4.13660203236871 7.685039842163371 -0.2814005561345218 0.046813617919429056 -0.4955611081744627
P 1.9946485077601463 1.0496673941999657 4.567687341257162 0.4989667914219019 0.5690000419909039 -0.32238574029763184
Ni 1.046523689572103 1.5714032132701596 8.580744531346758 1.6388314394162744 -0.3189255496631733 -0.7338373223156847
