# total energy = -340872.59215828514 ev
CRYSTAL
PRIMVEC
9.21041527157665 0.00000000000000 0.00000000000000

0.00000000000000 9.21041527157665 0.00000000000000

0.00000000000000 0.00000000000000 13.48037375299856

PRIMCOORD
 96 1
Ni 8.163494791965299 4.707010236466703 10.921420945148137 0.5627077812242889 -0.20628911971166408 0.42933668982858963
Ni 7.968289255647783 6.782374636171956 9.240230072620978 0.3175296977569112 0.3398774693244921 -0.6530951699696107
Ni 0.3259381673683232 2.9571419042079428 11.94706144837995 0.26323211275561115 -0.20941455271452322 -0.5655393371358131
Ni 5.990896040702811 3.1042874948566466 1.1901514103933533 1.1774868292225205 0.6665620941077939 0.4961401206063842
Ni 0.23758449799082657 1.7829889847357714 4.374152284280254 -0.6741792443334196 -0.7759131684398121 -0.09927929191831289
Ni 5.854112166971971 3.410082484536643 10.720806132078746 0.26126059085153713 0.4973328553629047 -0.909311256418705
Ni 6.64358289196281 1.906823014923041 4.887619107031835 -0.2705394450503018 1.2591196117036638 0.36244018511635645
Ni 2.2285612330339903 9.087677047303405 10.048297546615247 0.3354076064785965 -1.5641236661897384 1.1194184643248786
Ni 6.16934783206602 0.43833654624428664 12.71795016103142 0.728693573331216 -1.0845013407327193 0.5571634543672921
Ni 7.5595862987470825 7.339438958506389 12.802863740392187 1.1111683085009445 0.1160184590498647 0.6464972050371188
Ni 4.0933847553832905 1.8368791231237012 1.452860999566616 -0.28422285607466535 -2.2372940096426692 0.7563617286704457
Ni 4.540826717934244 7.845192058663562 10.295716004742255 -0.27454033867957883 -2.9675814098235667 -0.9825609570424756
Ni 7.33584689664153 5.431363327138167 1.5560526475704937 0.32222530346036765 -0.0952701707589198 -0.19322303055632528
Ni 6.267982166709046 6.218070927617576 11.211329810970415 -0.31007812657487244 -1.5573927752238081 -1.5128165312753301
Ni 2.3008814119131604 1.2046025515881338 12.304952387598455 -0.7742288387588537 -0.17086626012767991 -0.9144565480650703
Ni 0.941341258554089 4.509741567180652 9.418292263428077 -0.6402085438149296 0.02296380788502497 -0.36269189611584635
Ni 8.412314154219601 0.3473597506639388 8.86291436808712 0.6637045700543408 -0.7303478211051874 0.40565965792662395
Ni 1.095781497912969 4.575457878477504 0.6014833909386835 0.24121627060615233 1.9060379634386013 0.17758403846748771
Ni 5.987303978837952 4.905365734727249 13.085951372837249 1.9503882074192025 -2.4183210123534353 -2.2538850812321316
Ni 3.082504863291537 3.1709616893174606 10.068774141327955 -0.35646365581794737 0.2606252712603834 0.3996443049704795
Ni 6.860046066188263 4.817001012851706 9.055966509368726 0.2692698343092588 -1.3941403228876443 0.042197459303656364
Ni 5.960243779456011 1.3378772571894575 7.80918025690609 0.18161501400375174 0.2059476772118453 0.12172759361950004
Ni 7.952696022988278 8.974738938106208 0.956304498824988 -0.758327594147565 0.9371892137758957 -0.43809695251972297
Ni 7.991978443125779 6.675616715465327 4.319853203464633 0.16080347657503918 -1.0902156175086772 0.2708965712794044
P 4.010702859586256 -0.05292120272592153 13.460341849555006 -0.6156100285399592 0.814284826239475 -0.5314187413030202
P 2.14038071945921 7.614867209805767 2.60963847106941 -0.48307120323756797 -0.11232172692456785 -0.7463285128041598
P 0.9325176809475881 5.512912341885514 4.522773383418062 -1.4577758974604185 1.2546271231499488 0.7028678705173638
P 4.953950674053233 5.859776572220404 0.9325683382302976 -0.9841506701270984 1.3122298612650818 3.408315799966137
P 2.9896178276322876 3.57976596078358 12.310573503896206 -0.8731296642918253 0.015094689549593357 0.617689536776807
P 8.511915582441627 5.382483654530964 12.888517837122015 -0.08497521659081494 -1.186595476392008 0.6798420990461517
P 2.62251831545869 7.377634549669395 6.472480090758502 -0.7080537855936773 -0.6930226022921677 -0.0009613354720047959
P 4.728212611884412 5.299350448397063 9.936262058091785 -0.823604303868188 -0.2959128908180839 -0.8505584638595287
Ni 2.046977900557826 0.9196387575998113 2.9842039456728915 -0.03411468229552189 2.6906895401926754 -0.09479220268123675
Ni 5.469558918301172 6.399580576773435 3.082637493268086 0.9852940397029225 0.43611308932047477 -1.4330778804931061
Ni 0.06264832204766015 4.036086763431263 3.0834737989535457 -0.2907076924680606 -0.9697033843535171 -0.7281063333691783
Ni 9.255269759336693 8.121900557653234 6.1643456556588285 -0.697283948671683 0.7634358619084078 -1.3465923979053518
Ni 2.7649113319477343 5.651740927754813 8.396034745639758 0.9252662370860646 1.126223917282486 0.893027688767333
Ni 1.0987748828003518 8.058735531321936 8.129258758227174 0.7044344436735351 -1.0185378893577168 1.4704064417402354
Ni 0.10177140200500237 8.771870336476994 3.0380581634421726 0.21190800856033826 -0.0953349625585842 0.9167810824331888
Ni 2.1262795740358773 9.025304116665385 5.063929476898687 0.19080285115060688 -0.6193882646354687 0.36865119902307475
Ni 0.4033848632577004 6.318906551454707 2.566919645081193 -0.5481327116235915 0.6695031790139889 -1.344694923772323
Ni 2.6946450756220606 7.81274376648433 12.039011784829826 -0.5705689291399206 0.7142755981336731 0.4782856089234666
Ni 6.769802419644948 1.1064932106022807 10.34366542543061 -1.2136450243106325 -0.4792487441676843 0.6522063396067541
Ni 3.754469113226283 4.063275908623738 1.075952395377441 -0.7015010720768242 0.7437738647031061 -1.4830413568954264
Ni 4.262331398427179 0.5115602668386945 11.207096704218904 0.6072223186968961 2.0351402522556175 -0.06128250095956543
Ni 2.8280487270339174 6.343314151305675 0.48678701351071385 1.6233312868981464 0.3845737837906022 2.540373850522838
Ni 0.8576729273064745 6.8026007075956265 13.399315481595556 -3.0259629350862527 2.7874586640946255 -0.25340535647317647
Ni 5.318259430470285 7.418123534176887 13.025289737313306 -1.6599638505195156 0.7072703704604335 -0.02044978321391962
Ni 7.116132445907628 8.846529960775841 4.386203191316105 -0.699175509267441 0.10569907940172764 0.13173175602006346
Ni 1.8035282102707368 3.6800858013785778 4.799363068053743 1.0663316118022281 -1.782794190284891 0.488115707640011
Ni 8.655846738242033 1.7708312368854777 6.868142021006754 -0.1772513377184173 -0.5302620019907577 0.15115052686630742
Ni 8.676782011623636 3.724829997633673 5.531725535642339 0.0017812602701388677 1.6920149654177892 0.018151988318678418
Ni 6.157972969493965 4.998077772500775 4.946609973267865 0.12273880849283378 -0.40377709619193036 0.425212383247571
Ni 0.9223217515004102 5.788386645260082 6.707146729265257 0.047513986420563335 -0.41920705759375543 0.004710260991475759
Ni 1.5356340784725269 5.312079241979719 11.685772105205562 -0.18545958456082254 -1.1517454585923583 -0.1705387015849321
Ni 7.2939763498783226 1.4268774977026288 2.2837104351576283 -0.6572117632411456 0.8941939411612922 1.8594745138567652
P 7.367392568147027 9.08537444354388 6.964297832963027 0.33246806423429837 -0.730075284170091 -1.1192258886980984
P 6.7221016801626226 8.121421616071252 10.616022924356283 0.3250149503903628 1.8264137267470546 -0.6566998566017336
P 0.11992973525261878 9.04036314525268 12.942533237154462 0.8630761367105652 -0.8506520520145995 -2.6960924563758017
P 0.8676321490871732 1.5250144699335964 10.24963998247265 -1.3858096915347617 0.9180650913519349 0.6632865086803158
P 4.915064301762369 3.3713526893014274 5.973692827494646 -1.2203527753481112 -0.5026195576831408 -1.2888014550388127
P 1.6691850965249937 6.884785240980603 10.228570237031489 -0.1459496993916583 0.08544624268996252 -1.391458662290423
P 2.5297418047798974 3.137260780693049 2.8181935829431493 0.2704124325541343 -0.9680133982456038 -0.8278191132804841
P 5.480298262235598 7.154567507861624 5.137667138652221 0.974116425819548 0.23339266079667548 0.635596241853899
Ni 4.9225431587733075 2.467230717916305 12.564975298705102 -1.433723227386589 0.27054407303599215 1.1161490495449875
Ni 1.850510537380091 2.529493123573869 0.6462073242806952 0.14720285507246908 -1.0444816058066722 1.0063513745938542
Ni 8.481088323309102 3.2251834026467625 0.7517771014474104 -1.2146384985721532 -0.473739641423997 -0.18741593695624495
Ni 7.731425012112936 6.40387263018119 6.705353461457339 -1.109586051615489 -0.6406651717363742 0.8250397507631341
Ni 5.893753793295959 8.048152764443158 8.312025629035734 1.289895973654572 0.7585425383718484 -0.24129674613510055
Ni 4.76721871957077 9.242559386584114 5.693597658895464 1.1335572177191058 -1.2631631856454182 -0.25533676916793446
Ni 3.2932207385332153 5.002452719643872 6.100098405560553 1.216579681458924 -0.04704090343888673 0.42996866698563374
Ni 4.3089176776898945 4.21673063357354 3.4215476091760713 1.4025051499125718 -0.6834370154862617 1.2789795838523845
Ni 2.4383376459417816 5.376506095171236 2.824111274605129 -0.7179358205940797 -0.8083766882851562 -1.4420955106106843
Ni 3.767087381828481 8.791691149638988 3.1863292668085323 0.9801284363415829 -1.5277782947914849 1.51560386421248
Ni 5.412141190953649 5.801843061630747 7.85447431493896 -1.739509668564643 1.6817444367297163 -1.768430465364051
Ni 4.56708561120787 3.632956107628614 8.086957164040182 -0.25948807233214666 -0.6234112697519327 1.0098023092569317
Ni 3.463023950175648 6.519463338909359 4.398578304961298 0.15318889745257488 2.2779562632487216 1.1655039458290315
Ni 3.522053500154838 1.6207106821794675 6.953096126193688 2.613260768490551 0.46835883672805795 -0.6402915904470392
Ni 1.922830716259261 1.2958040812954115 8.397692620346616 -1.8334546927542361 0.15306059940482672 0.5615129895852393
Ni 2.1005640952494984 3.3993062989420646 7.419476544145985 -1.0705597909509628 1.4844878595339661 -0.045900104966224174
Ni 5.4157793048937 8.799234479555192 1.6054177090502042 1.5466933865284331 -0.07064465890075575 -0.5240515023046717
Ni 3.5794343858422084 8.611065700326785 7.90294965032599 0.42266570556631716 -0.1973915601117181 0.8555343198075652
Ni 3.8761018542194465 5.795478664839419 12.086313713341003 1.068140897096825 -1.9568853851077719 -1.8070098682991458
Ni 3.6535413852387704 1.8306713033880209 4.617000534465355 0.4969453901164991 1.427641025748251 -0.8809548167631989
Ni 8.918150148112115 8.024767520661419 10.93573761428336 1.864329013735589 1.1144477505831645 0.41314028257438523
Ni 1.5958425615765943 9.206233509673844 0.958584997588422 0.7532406665429608 -1.2177132808427351 -0.6595216423212449
Ni 8.109217816145769 2.6994713331020255 9.241685318197 0.9470450235240528 0.5420173427544729 0.21240346013951808
Ni 6.791999519886772 3.5080628797119626 6.920230602213231 -0.042781099721268256 0.07409070846782724 0.7063224047248674
P 7.819237109086193 7.4393535408397105 2.265552101910012 -2.0092142764184753 -0.8565375642610991 1.072057972763044
P 5.303043824827341 1.0383914018105607 3.2912193153454363 1.0264023797074582 0.45084319644179777 0.3769108679287057
P 1.5332946330528494 1.5719875866279123 6.208250783103952 -0.8943826601333308 0.3133274867501055 -0.7475168766853062
P 0.20486265648496463 1.619955428146343 1.9904710832575718 0.027016380687843792 0.07364307940744737 0.1429602777460312
P 7.146793917569466 2.271085719264903 12.362526692001625 0.7259486635962271 1.4206106012640307 -0.2127436170877562
P 4.302976959990319 1.5461339516159622 9.23293726599381 -0.11762796962882968 -0.5765488008724393 -0.2203440551428334
P 8.591327780900134 4.378493152887711 7.820531172399046 1.0781134349285046 0.6641367724957529 -0.4811241068135262
P 7.104941791636334 3.8145486505198165 3.0746981155052433 -0.6621292551474209 -0.2983495252840346 0.4651483002105602
