# total energy = -340857.9125651425 ev
CRYSTAL
PRIMVEC
9.37481736191239 0.00000000000000 0.00000000000000

0.00000000000000 9.37481736191239 0.00000000000000

0.00000000000000 0.00000000000000 13.72099283022001

PRIMCOORD
 96 1
Ni 9.275209734903747 0.08599988528428504 12.126984118075944 -0.8156210285523953 0.9577750083470473 1.1108222380154353
Ni 3.7726326741017666 2.6266925228389044 7.138154537896087 -0.31682187305660925 0.737305226259627 0.18967387975248623
Ni 2.416209127798542 8.960028381738907 5.394586666888344 0.6807188452241503 0.17777018633636482 0.9751914040512819
Ni 2.0956935036655038 9.121987723121292 8.058558150193042 1.4290199083736486 -0.1719507514411103 0.2630644768294953
Ni 6.972389020743775 5.468424601861483 1.2070798963828844 -0.8456299162096598 -1.9353842778112023 -1.4491925266667813
Ni 2.726112458898189 6.867887933779812 12.812937615244318 -1.2530404953891194 -1.0208644806083644 0.17036669478344207
Ni 0.5534929554846354 6.462858332883507 8.453682319270373 0.3063772806845175 1.5349712129954982 1.6464174792936483
Ni 6.230325367865639 2.5569251334798104 9.326721542792944 0.8959577179299345 -0.4578952181925727 -0.5323890756360895
Ni 1.157039934788953 4.556658008620767 4.378395860184436 1.457003280960452 2.249370224080913 0.9382873319360808
Ni 9.057301484666876 3.0452781093591343 8.62353431922591 -0.8847104271508891 -0.5710021600225972 0.42190080237583466
Ni 6.22945350986908 3.6013266400035775 12.602923898544038 -0.4788597362593817 -0.8898590612313642 0.5663332937920181
Ni 8.19029964340005 1.2729689238798636 4.984479665014227 0.29415708446924177 0.3271839330172236 -1.0823920076992004
Ni 2.8929842044762424 2.4924263913687423 4.868523488953531 -0.7862420611696459 -1.4028710178924226 0.16417933502580756
Ni 8.550817612385984 3.957007203331181 3.2984994209018135 -1.3488351711929416 0.6197315069075003 -0.14459524224629292
Ni 0.552965153278116 8.696042905124726 10.12622938786375 0.2077227668343971 -1.166574810295707 -1.1985518774229358
Ni 4.2113647427145375 2.0222043118909894 13.617659733623578 -0.5276356201115042 1.4121056491168131 0.4663811441763968
Ni 1.0436233966988806 1.211320126187657 6.350212404764587 -0.43642033614824843 0.4968739134486153 -0.8127470494387099
Ni 0.5804999287802116 5.552263591788704 6.50042978764492 -0.3693929622851058 -1.3035829842233613 0.8633862117518163
Ni 5.426256674242938 0.2563056263907229 1.1974341469994427 0.4042614920275167 -0.1480510620053773 1.0767070414992812
Ni 2.8860374649552685 5.950543324324547 2.7364735068314956 -1.7336303269657305 -0.31692137474895093 -0.7074079244795624
Ni 4.24525470677435 8.722498639170864 9.536020898425077 1.3600860615164123 -1.299763867587587 0.7040870876364455
Ni 4.028583932403565 1.516976665110514 9.368391667619905 -0.22557547874510184 -0.47999539252572176 -2.4000836634098017
Ni 1.0529607145975177 7.550796490332244 2.593075365958661 -0.6528833110691208 -0.9823943495576242 -0.578215647051901
Ni 4.4885687115346204 7.2356901357047425 0.5049295275945549 1.2103280441222575 -0.5232308061755893 -0.5946236560962791
P 0.31528166370853056 -0.05549798014873702 1.2596088719347354 -0.8535178035981689 1.4324885836485393 3.1973583282445257
P 5.856963899360495 0.5856401410330457 10.556396623512471 -0.26615288594683195 1.3645237855727919 -0.4984996219774963
P 0.29960790688651107 4.670430789763197 9.628033791440473 0.5311588027734142 1.5312760235320984 1.8878679773977938
P 8.41492026272871 5.899244324785047 5.1069400892256 -1.5322710404555158 -1.2983888416169318 -0.33311623934125856
P 9.148518455704767 8.032643343097458 4.863652333953398 -0.3407616717016583 1.62518659493933 -0.9557374090917282
P 3.8848867348630933 6.1659203739262445 4.652486452223256 -1.3542514571125064 1.797042986894421 -0.06381580890438042
P 0.4892604581811191 5.449496846000691 2.168781453265258 -1.67322148686037 2.9035185179053866 -0.20700388639050155
P 0.3108586249689954 0.7839878352503304 8.388905145089435 -0.10776161835771118 2.879562007089789 1.0042327855889543
Ni 7.012138245533154 5.7402942997133675 12.386721865031618 1.514559996328998 -6.251395395859175 -2.713801957840423
Ni 5.588412886785837 6.453830383951391 9.84103901229884 -1.9830167920875008 2.723992010999547 0.6067039842995811
Ni 7.2089625319607515 8.31729091674838 10.723394929122284 1.19526883579629 -0.7961009562415967 -0.43883100247227
Ni 6.298714659101139 4.4467476521512665 4.326599057853351 0.42968018921093737 -0.61912652633365 -0.4972436380832082
Ni 4.699858340851371 5.340055230389557 7.229632128851229 -0.13405114818185945 0.0819189462629944 1.403115786913377
Ni 6.7147784198033635 7.514028457402069 12.939184528109566 -1.000764881645012 6.852220295670161 2.3033405076497813
Ni 1.0898693697852029 0.3081427404356268 3.4121775163908534 0.02839526331324142 1.2369726432929793 0.9311417220302352
Ni 7.140629489628256 9.011936744394282 3.42740784436086 0.5855080669482562 -0.10738598018584732 -0.4795135677932968
Ni 1.8675010789960995 6.0531225737692145 10.864199995566642 0.1973195692232021 -0.21247390836613728 -2.2437060838166003
Ni 5.128437482471949 6.305052035506239 2.6422378446657317 1.2266836026621455 0.5550420371489151 1.395869903984241
Ni 2.123536710652404 1.2911654440016052 1.2468384959894305 0.28760565650396913 0.017094750698757655 -0.4123473543594447
Ni 8.778494422111185 1.7904869559666776 2.279043365378532 1.3240952452441004 1.5303645674614224 2.0519514102756857
Ni 1.2713752049614215 3.4193051898831563 7.090844523061275 0.739508404558533 -0.42256209010891743 -1.7935344595205305
Ni 8.608135244546894 3.9237828512902477 0.485943647867326 0.3531919270452111 -0.5668413437766883 -0.36495806644220374
Ni 7.819778744496599 6.534097568537868 2.9985033965845758 0.6930346864770258 -0.1687643832933287 2.7373951717793306
Ni 4.829212068125864 4.378648980247953 9.7994091991857 0.17318025297283723 0.08860664269581514 -0.3170049356016928
Ni 7.9090551283808574 1.6572895536535885 7.2649639397913734 0.33504122427811334 -1.8956764176986194 0.39422441950648884
Ni 3.9545322515990127 4.197846256359282 3.941218136258004 0.7460564900896958 -0.06494169497870751 -0.41985060471502533
Ni 1.3409269735256675 3.6795501144475815 2.171484213054592 1.6125213407668357 -2.7753045452305947 -0.22970929840781726
Ni 7.742717747381341 3.7662015495249945 10.929758092017615 1.5582978035365807 -2.1316826048587414 0.7221711988316659
Ni 4.194040080589356 2.1837324116836783 2.558882595304344 -0.15016862256901234 -0.0814638610034468 -0.0032074511937041535
Ni 9.243400980255077 8.566098564368692 7.229714627242301 -0.6904491851380367 -1.5820257432811398 -2.7746802813830342
Ni 7.57813345719211 5.576956860207389 9.81838570409576 1.4676476480481755 0.9111395678766954 -1.7560765717843885
Ni 1.460005901184793 8.46841296948536 13.6694977851502 1.7455296495064778 -0.3825037886354509 -1.374005756921298
P 6.52559460936712 7.580795905267625 1.4286021386377503 -2.218895966751456 2.140094997292153 1.4841361326215021
P 3.7235555062309182 9.41466014026743 13.707120801406035 -1.6799657475627392 -1.6827155423937343 0.08910466537815623
P 8.938419428168265 7.3165010596869235 12.36700474956534 -0.1881661848587082 0.784072821432469 -0.2210981597000386
P 4.4221856311729235 6.303739561102816 11.791011295397452 1.4611121609225028 -1.4268938631695811 -1.4381678934215039
P 4.788694108328767 5.028933173058159 0.9364467369153671 -0.08500401294622134 -1.1978453382742145 -0.29481682954042776
P 2.4317431998447683 3.3918557252172836 0.3979516139349884 1.136023162761095 0.145113319533292 0.5427647624434588
P 8.132494520746437 7.611404683318881 8.747325029993325 -1.2277971474412983 0.18164252480757748 1.7522296872344727
P 5.247853903549098 1.0948848969697118 6.8932074399852725 -0.2917610734332394 -1.2673692533069658 0.735853581414765
Ni 0.48550959383247977 5.482224332731758 12.469500563137215 -0.6468723289883506 -1.2751825787037974 1.0437547549429766
Ni 6.401706400501167 9.247854018409546 8.409980671563256 0.41036400538082873 0.11545101658216891 1.3088457752841975
Ni 8.472950380994336 7.443848576087613 0.9575457004321068 3.2038616765806824 -0.20332103822227565 -1.7122896565064254
Ni 4.311412791524032 8.097976443936416 7.311189288279928 1.0224400526256003 0.5137776311824893 -1.8107315401251072
Ni 4.3960767653619754 2.442261744706486 11.391154718614066 3.291439363791351 -1.4933478810277572 2.3932219032929622
Ni 5.753109674781076 6.4434337117128475 5.379740706422198 1.6110216162928577 0.9631979791348314 -0.10757392782693731
Ni 3.4102584913167058 8.478565896477553 2.076164822024288 -1.2565137986497006 0.33903903258359674 1.208079357297397
Ni 1.4263315579198288 1.8188551527149466 10.66254205340758 0.022864049082367076 -0.34168906861193415 -2.141946191568279
Ni 8.261960745826938 1.2104763926425994 9.90702272544921 -0.8395142902302251 -0.23867730623438246 1.2230331503937517
Ni 3.365943730566849 4.412623317662272 12.361640479182205 -0.06484039351415286 0.07372046961260208 0.14676422487315371
Ni 8.074548775835318 3.683750032538535 5.7931401440854735 3.1947239759454718 1.3271854541336499 -0.3004177206669729
Ni 6.488348460761413 0.7061927899508719 12.669813219032768 -0.46974209022882973 0.7968257502227631 -0.9025965634026906
Ni 5.4360064840969375 1.3099057035190507 4.681465887050833 1.025550316119808 2.5259975271965076 -0.2130963724414846
Ni 6.484870403592343 8.805428271832858 6.149254761447924 1.1786957619289569 -0.05853861966584111 -1.1434821901423016
Ni 5.965196163557048 2.9643078134851093 1.0984604522373225 0.91048110835709 0.35002304239892623 0.5405672405715077
Ni 7.720377558071649 0.5715141665253485 0.9239116688809618 -1.0238222776851076 -0.9535928519448997 -1.855702962629475
Ni 4.6160849746443215 8.407382909726195 11.944027998683943 -0.2262377949194491 1.026464086183329 -0.019441396554063295
Ni 6.643932926470029 6.559793942393455 7.6175245639656985 0.6244731353575439 1.1383063023683169 -0.17559066218654276
Ni 5.005205510807707 8.599304166775292 4.329412440485259 -1.4366931086481902 -3.144903452878919 -0.6581399314823697
Ni 1.1949329457792053 2.648742092816409 12.660537774927436 -1.5739668775324054 0.21198077077980268 0.894811263030317
Ni 3.0225816769970857 7.052384335632401 8.855830101369445 -1.0663046152190345 -1.5306345332933575 0.19653306876616478
Ni 1.5754942738688407 6.868337925003842 5.079277816210028 1.740409554671093 0.7035931787191625 -1.398037086838889
Ni 2.2618058890530057 4.835521320079462 8.650660352699513 1.3668323791013104 -0.7064306481679576 0.38931027003432306
Ni 6.244987581915306 2.9437019653513694 6.492417131412023 -3.036465120169158 0.4049230368709155 0.0466125576522165
P 0.7580486536301104 2.6021773759463986 4.322730070808404 -1.6047702360665073 -3.2516679974306832 0.07060866345649774
P 3.413549052142431 0.5547482435033377 3.7901082707833424 -0.28114473136997387 0.44889147203206564 -0.7158416570692123
P 6.750796467360155 2.529278797653424 3.0656814614420598 -0.28403927930894957 -0.4808600545188622 0.7961930017347708
P 2.9075526703542365 4.9185353260959594 6.394751223644743 -2.7443764881931703 -1.2595176184730308 -0.6837650882496418
P 2.5591469651484617 9.392535571752585 10.626703064858686 0.28071252892856174 -0.7408425499889241 0.015089547343270785
P 8.343681027074348 2.02289804836137 12.681805485153186 -0.4824484820519046 1.2698904770669226 0.15265102267123387
P 3.1518979050029095 3.210284266320894 10.126010017142036 -4.307682029356987 2.254932548660039 -1.486717005974801
P 6.514710446635878 4.442575858511815 8.010631272388622 0.3277889135910742 -0.47814985467655075 1.433959254656795
