# total energy = -340887.89161083364 ev
CRYSTAL
PRIMVEC
9.09086264653006 0.00000000000000 0.00000000000000
0.00000000000000 9.09086264653006 0.00000000000000
0.00000000000000 0.00000000000000 13.30539640167831
PRIMCOORD
 96 1
Ni 6.764865548673817 2.0608804136770913 11.569348353685795 -0.3848710033160469 0.8908592203611044 -1.3635012578455485
Ni 4.479904457987106 0.5540953599853093 5.931705246241862 1.4394249057570567 0.3873480041016297 -0.7531041409650966
Ni 2.7533950687365967 1.9046175731108068 4.553971353515046 -0.17873203602900187 -1.1565503361801694 0.9083617480212419
Ni 3.551100097185623 4.5235769628495435 4.663581704395016 0.9190842766450686 -0.8285233384363602 0.446656926274592
Ni 3.7060720352351573 2.7878221661375227 2.5863695557084805 0.3669511856128325 -0.2710366964016945 -0.4764904646962567
Ni 5.183246330634281 4.741912214573347 2.606660361464717 0.516142274759924 -0.9655695646908016 -0.27751381948560594
Ni 5.342100067096859 4.48383171071412 11.664016053391245 -0.11495787899583428 0.7100232506152223 0.08762705239136521
Ni 5.852306559685235 8.015886450346287 12.303992794191593 -0.7797865353522894 0.4276528743682635 0.3489642621171086
Ni 1.9763444805555672 6.699447700008101 0.15218467951689021 0.23560869461138778 -0.2004447451157451 -0.3251861858609045
Ni 3.064611665626827 1.9542536839661162 0.07841232794347715 0.4514492054569128 -0.9333680402575925 0.7599602446549816
Ni 8.225421746885486 9.05357207483166 6.739462950768507 -0.6451535465250309 -0.15363678362327088 0.8061699104418244
Ni 8.629428780314203 2.470978325177798 0.671020219069342 -0.0013889099277266403 -0.5897377887588876 2.2731411012482656
Ni 6.677075086672036 0.8925354545984905 4.583749383683114 0.9932904276448378 -0.5541357232845618 0.000829180769514701
Ni 0.7155399923441809 7.664688238887988 2.2198323314578445 0.6326304743573556 -0.5045340010970343 0.39065444276704336
Ni 7.7676149874418 3.978425193680984 3.6121752406946386 -1.208090155930674 0.1181838421322997 -0.38400556999195795
Ni 7.869996284227971 4.278423665883404 12.603923084923057 0.026908908575702044 0.16775959617789818 -0.4782496134792086
Ni 8.150113039499884 7.081418482024133 8.647057781444353 0.8803192400617291 1.8505741260433421 1.3066616231486852
Ni 6.9628554494646195 0.8272476052707295 0.31133659627911175 -0.30944589230751224 -0.5236766354637561 -1.2546312369150072
Ni 1.6209099270352585 6.693684092996698 9.301257177085933 0.9898137819501468 -0.17699114207849517 -1.0167304038353329
Ni 0.555299899305516 4.942665737653529 1.1474177929267835 -0.7476562304766479 -0.3845498725312022 -0.18187932340873192
Ni 6.407712822085441 1.7835727350085278 6.853356916197016 0.8475021935317082 0.9149468574379275 0.7309026651673929
Ni 3.4849367977707986 4.387723109255818 0.6273349869989933 0.3837530876615198 0.1470969256222241 -0.08937797364420091
Ni 6.138477829577959 5.7468252786863046 4.590002988199116 0.7786436799970977 0.07969751313164339 0.9320760609190463
Ni 5.64448034535131 3.0335572783224802 9.11837447208622 -1.3579530743338097 0.19312352886398354 -0.1892085100802935
P 0.4232460263596875 5.875924621224079 11.963214529667791 0.194170224960943 -0.6285233941675175 -0.07969082826342404
P 4.2228603124863975 6.409649175860565 12.610762141002992 -0.349108758114773 -0.18696136591732962 -0.49600539480073286
P 2.562659676455416 8.533138361600022 1.2366700656658414 -0.557093263250989 0.7953442805812302 -0.6522485056985994
P 6.593966419009172 8.066140739871589 5.615449584104909 -1.278596746591669 -0.3926509043717818 0.7713769711323555
P 4.942474829534855 1.2006120674796692 12.418352211795154 0.6308551276244878 -1.4685423919483032 1.2071298488999338
P 3.8762166232878994 6.232913712282164 8.128639512494146 1.0151561173696775 1.7593251606286733 -1.96431175947883
P 4.644439983695943 0.971376871265845 3.6387869233515517 0.4236884904038768 0.8784281936866033 -0.4158083163248516
P 0.576432518956478 5.779106932467843 3.3798100604208354 -1.6841723294449187 0.06065026669220523 -0.6166916916399121
Ni 0.44677408835687177 0.23949696213570582 4.866647942969995 0.8478855450130559 0.2555846235126824 -0.8781314883817909
Ni 2.0810984925309755 6.58523919072692 4.637010930620676 0.7051877768997921 0.15563221678674488 -0.8370208343844101
Ni 5.962006001020585 5.8366702756795314 9.25475468663572 0.8910147721023622 -1.1508735975103663 -0.7883899607505842
Ni 8.967363422956039 2.6735500208167835 10.264487726202065 0.4516942315881834 0.35660043850612777 -1.067454926773394
Ni 2.383406043883074 5.373536270638555 6.698734976365051 0.23447098146251874 0.9178131232421289 1.0972925789601167
Ni 0.8865400305858392 -0.10157766451518031 8.705295666675358 -0.3958472998218925 -0.5568050425866088 0.7247459015373775
Ni 1.8956267098075283 1.231757363411957 11.358790335082269 -0.895095369929639 0.3657376249207056 -0.43225334925475234
Ni 4.037752164274711 6.717293063672748 1.6381871117752795 -0.1685268133612259 0.7252801767742929 -0.43116063041120584
Ni 5.568617095335274 8.062022579025902 7.903219751394969 1.0330371114151564 0.1765453127903282 0.23735833031264283
Ni 5.214118900682748 2.746613285092263 4.976484656333535 -0.28817772695735533 1.2100994730512191 -0.24450779687323054
Ni 1.057949157653228 7.460580187436815 6.482535168311561 -0.8931919822593393 0.6029985104235357 1.6812500135918014
Ni 5.538026342033421 4.685312502817824 7.296213751775947 -0.550795088947103 -0.33355075577551585 -1.3214922604036143
Ni 1.0824217602947102 7.916750591577578 11.305608787737295 0.17872483694015026 -0.4974999770683884 0.3389657561435001
Ni 4.855620726400857 0.22337977148820068 10.219462500955878 0.4580934502463078 1.448819716708395 0.4839235239355343
Ni 8.342802967281777 7.23641769266205 4.657048101304959 0.36243787112351133 -0.01078706331317497 -0.90053582421892
Ni 7.18070888546034 6.313231485067266 6.804033531021821 -0.03625718255982143 -0.2660269018919289 -0.9575114702730154
Ni 2.482532811788988 4.963211087567998 2.6426647235604044 0.15903327204849385 0.9713584034584368 -0.4336108917239113
Ni 2.815785660091906 4.938056670216965 11.832808830146519 -0.7180060117103828 0.495567793042682 -1.208741673471744
Ni 0.9211589451917189 3.704317498715913 3.890817458021363 1.6111062055868641 -1.8902814719352927 0.04583582738719203
Ni 1.2592663142266394 1.1978484451902893 2.8206110900629677 0.1445685027734155 0.3700110554850789 -1.9624304832957173
Ni 1.3436567935434591 3.456136944439366 7.988799315565246 -1.5797091793328215 0.6510969085926593 0.9090330630566538
Ni 3.6872175858003753 3.2744742332266106 7.50727722235082 0.46307264862845415 -0.909575308713369 -0.6152184495284952
Ni 4.273005511658171 7.061273130072601 5.973657759863672 0.4044424976900712 -0.4221154894898021 -0.02296637898818625
Ni 0.6219895596761138 0.021198073863078818 0.16030463816450236 0.9497367114236032 1.1725125159363807 0.19713522112653792
P 0.36101997962095 5.587126091983883 7.589411349522165 -0.20061418081407387 0.28242488363397816 1.6954926395537444
P 8.813727841737224 1.637000754180661 8.092368788118595 0.5179911550432046 1.021831472507324 -0.9817387182514962
P 2.172307118943305 3.3473102259322403 10.358078158666425 -1.9015665579308092 -0.4537552278822702 0.3124209157754362
P 4.258669221032013 6.3513494727625615 3.810173323261956 -0.5426084393712526 0.495301940975805 -0.7823684371468526
P 6.988173502345945 4.02537950001206 10.271885870343832 1.7501900310966247 0.9245000483440015 1.33340829511491
P 6.552421176040534 7.7856148957739455 10.080435027160762 -0.9952650348727052 0.4443825284181186 -1.0808079510415323
P 2.625013904359549 8.68811939051235 5.430744161114998 -1.6974178816009151 0.3699539769948983 0.28943576773417246
P 7.184254321950005 4.08113376152774 1.4174773266896803 -0.4895498689833762 0.3774335732013951 -0.12588403899003484
Ni 5.4260541849995665 3.006221053900884 13.698038422029706 0.46861029061723164 0.1741405600035775 -0.13150395627997352
Ni 1.7687455377914931 1.2602844908595687 6.902813027969003 -0.8097242034519861 0.7561308436065624 -2.0478849535157955
Ni 7.080627576961055 0.9130498955794596 9.1229917212993 -0.2868664643450995 -0.4199123111908962 0.22832964445147128
Ni 2.59508678404166 1.6759914647041814 9.008857757093029 1.6089634482122483 -0.956301252014998 1.290621538966687
Ni 6.271204426370545 2.2035615052291204 2.5249253231700286 0.4580024331943983 0.26941278764502635 -0.12170136836725494
Ni 4.2851418134881785 7.045173212064404 10.176659082576549 -1.1913715576244126 0.1337081630201439 1.2450091404442105
Ni 8.341148430253266 7.319380906520209 -0.179225450897681 -0.5997563493371542 -0.5628193671014887 0.8986054399654266
Ni 7.891296175754343 3.786498898373788 8.12468771443759 -0.33337257832643874 -0.2841313248021236 -1.1570110778666718
Ni 3.270401526694893 8.615219761767163 12.35267709171237 1.1489545261107825 -0.4643342889496971 0.4550022129154938
Ni -0.16939913730363268 5.151864672269349 9.828989034968606 0.28704849844891855 -0.2010145015762861 1.0819369224396527
Ni 8.835545912442853 2.4297694441325386 5.858499255420515 -0.4171278064672235 0.45471527780269433 -0.036835680771110754
Ni 4.0384612515726435 2.630386604270811 11.173739459306184 -0.037657919562089984 0.19889951211581228 -0.9872601622903578
Ni 1.161712265584089 3.3277557800623194 12.57459777972213 0.3163241074845842 0.5235627355937112 -1.2387593028797568
Ni 3.252510708716276 8.730900990820974 7.60956942868161 -0.5629474080389207 -1.4456721722183488 2.175416812521899
Ni 6.164823149955009 7.861178147317778 3.3166758364889763 -1.2043222042478097 0.2764126160016272 0.606436075350175
Ni 3.1757929175976027 8.327703044180922 3.268031538764494 0.34831403012761947 0.8551167726541724 0.7910695644652763
Ni 3.4446370030049405 4.8327026612971515 9.498748898595624 0.5363529453798441 -1.6933388264355353 0.5695651704657546
Ni 7.091054796585787 6.149423228381951 11.353374908115875 1.0067174996840211 -0.08434863875040957 0.19964667469448197
Ni 8.005222868288909 9.145680696660596 2.2056087675303324 0.40354955356215666 -0.30942300948937673 0.881842875795107
Ni 4.912956798042696 0.3787653437948627 1.4709379635224311 -1.2958956428814328 -0.5547566446980123 -0.08413498007770671
Ni 5.962533271062638 5.798897740770409 0.4944483910212332 0.42231346443322104 -0.246724087798259 -0.9578958501956276
Ni 8.074222516895466 8.84072770423544 11.082330833912387 0.12902104195711972 0.10008199032526635 0.33287969785042026
Ni -0.1543073959792922 5.038283432520955 5.590568801723975 0.34358448586243406 -0.18485974619329454 -0.1317006456718119
Ni 7.64878831986126 6.173295834079028 2.238300419223881 0.4224667021816337 -0.2974313843451394 0.6220429286494965
P 8.337548448586839 1.8418088020669732 3.3095440546270734 0.5131533673349291 0.1052013138297027 1.5620950657954837
P 1.7764182259896397 3.026948221071233 1.4632207300965936 -0.30218021188403443 0.46202029610453976 0.41541725153402004
P 4.855075274633217 1.2690026282790268 8.286734161913424 -0.7620556937314296 -0.7858659087771498 -1.426454718749634
P 8.831845931285692 1.544619406467904 12.01396154395653 0.3235746183994105 -0.6702683393147876 1.577509600578341
P 6.4892214978965574 7.814369294791407 1.2114738303459556 0.5643450597173958 0.3604190409212696 -1.0107988688422462
P 2.1426072701952656 3.4495733415020893 5.908088093789297 -1.1886503020385075 -1.6660121135961243 -0.25654364499184207
P 6.970455410760414 4.022679513762237 5.745682557233097 -0.29664128434367626 -0.7839782048361337 0.7857080430430469
P 2.7696677131378795 8.649255952067946 10.053610618314469 -1.95117136544213 0.17957355809369072 -0.36059798970129514
