# total energy = -340892.8824877559 ev
CRYSTAL
PRIMVEC
9.06408893576494 0.00000000000000 0.00000000000000

0.00000000000000 9.06408893576494 0.00000000000000

0.00000000000000 0.00000000000000 13.26621036964072

PRIMCOORD
 96 1
Ni 6.469430127341621 1.5174010235589086 11.295833675797113 0.7774866835745191 0.4334100885670148 0.6150963221283342
Ni 4.72105798602055 9.25325661211282 5.854497851578216 -0.24913295435006771 0.25485237333234817 0.08577020168828453
Ni 2.827325048233275 1.519295418175198 5.034354599198559 0.3035922617402126 1.0552750968777502 -0.3263804632793218
Ni 3.4768304789484183 4.326742919071042 4.810553175893264 -0.2634750820043527 0.07657285145973264 0.26438859495755757
Ni 4.999669955951221 4.717668016707189 2.641567419585829 1.0145323677427496 -0.4957392856235398 -0.4054405999372824
Ni 7.445569071897016 6.176877588416437 2.5853455942917645 -0.27400426367045067 -0.6483913367360381 0.4028849233949642
Ni 4.893330062944953 4.738977690118179 11.30757439037357 0.6733279520767178 -0.008566658623088473 0.2962674459440252
Ni 5.539971241512979 8.002131333256017 12.477295991673266 -0.44806897613077024 0.05901761618478868 -0.1964266250952875
Ni 1.751798366990724 6.476182873701122 0.3891295015907552 0.9000015489820048 -0.35851873857476324 0.5094332381708645
Ni 2.710797119108781 1.5736708885250612 0.37810303723326083 -0.6138195122984397 0.6348380235316358 0.07718888777717675
Ni 0.7921207146010879 0.0730348041158622 4.9311300336067365 -0.7761247702299858 0.6213574725466977 -0.6550319819810073
Ni 8.463547851614099 2.3658269530735345 1.380243227703911 1.1804456547405282 -0.3897077625830579 0.07618101533795268
Ni 7.112418478013164 0.8403425748791854 4.730797349729656 -0.9232972862851517 -0.8006420386450598 0.21116855929115247
Ni 0.8793172514848492 7.442713883838971 2.6398171439858027 -0.5899843575520549 -1.1025913654652109 0.6286118401162657
Ni 7.817532095192121 3.914671301627221 3.850822951787003 -0.6201894203805254 -0.7040917156221357 -0.16703403086578328
Ni 7.344250684237277 3.7013026448451276 12.651228609715872 0.6681734044589718 -0.15465339781324333 -0.36117545947131985
Ni 8.069196528308298 8.725581602629967 7.080986029925275 -0.32059419561484787 0.23596813483333556 -0.7893991187413889
Ni 6.669293291404712 0.7075192264189712 0.48383563627162623 0.8307051765790273 0.2575862273237434 -0.4882951706406687
Ni 1.9565652032423924 6.564729959856784 9.128757723057394 -1.122200655055706 -0.1777457608563326 1.2067968910405475
Ni 9.115573099091579 4.752365349679231 1.317082842224345 -0.24902676778950664 0.7597632981528271 0.9191326133845009
Ni 6.241259813103063 2.1114795495917025 6.738372527049049 0.9671641628714311 0.5346056236714342 0.15602405290852484
Ni 3.4206965753183627 4.413205264739878 0.40463634517711056 -0.18125711644370077 0.3267134211387083 -0.2983217573698927
Ni 6.2092454504966765 5.7652047908918345 4.673195063669749 -0.46932480018575295 -0.24455381961981754 0.25753120571609195
Ni 5.174126478342255 2.6624673961707126 9.48246204532353 0.5637308231721646 0.5685714390939176 -0.711068404050285
P -0.013818203792026402 5.57012746585937 12.344540623881102 0.2228501093941388 -0.8042189573630407 0.4500962909734442
P 3.881777722380738 6.433391309186752 12.658910425205374 -0.2243644891561362 -0.8351439290766713 -0.09383009587828356
P 2.272113336146174 8.593119004914865 1.6090054269589456 1.4102202591686424 0.33620979066491774 -1.6382801948984949
P 6.437796456476306 7.921334043257903 5.705571242470634 1.0900662364150067 -0.8443939869200298 0.6675195729250569
P 4.7084407740307155 1.3045671480321313 12.731940697276697 -0.22480929000303865 -1.6275208994994614 -1.4496404128374776
P 4.0964425439002925 6.009744849996511 8.26434545964444 0.031697073992964765 1.138342040702259 0.0030498425699173283
P 4.690992402564891 1.0261273957938504 3.7683732783508535 0.6477390478640199 1.1898978012923636 0.3414990640883151
P 0.20803081472691187 5.54928006099111 3.7985802615960536 0.1334479673802218 0.6584775173274466 -1.2524244590716753
Ni 1.7630378374414375 1.3287320095011652 2.7689106197924134 -1.392210452854783 -0.8930279458776491 -0.3779544787018717
Ni 1.9471838710516758 6.258952914973864 4.8618541072295125 0.38220914021316754 1.4214282120693198 0.5166408116628973
Ni 6.111072301745323 5.325043561410303 9.171316340482582 -1.8390303870698006 1.6533028935595722 1.2515214876414318
Ni 8.570214051827 2.2253154442614695 10.121548305649082 -0.19255068707964904 0.73202855124172 0.20510075583051776
Ni 2.294057495792285 5.2561564844543165 7.181331840827463 0.3555493715337941 -0.7251469936305383 -0.9199520239620027
Ni 0.25609767908185843 9.288153355044471 9.198922836572693 0.8847294533142827 -1.1351196771102192 0.10799815984854948
Ni 1.360719179840333 1.199423714783521 11.38827197539188 -0.029944352967916168 -0.31195708876514017 0.8987818176422909
Ni 4.409235193725835 6.863681745667616 1.7140473424099363 -1.1835502618077811 0.8281122190408705 -0.4570210431177355
Ni 5.644842752089396 7.699073515095044 7.906077368529967 0.0843147001886806 0.0008883161422242766 1.1017382734362962
Ni 5.3426550864794455 3.0805666328481816 4.50399752575896 1.0635957009283037 -0.9725868765488992 0.7180085828135441
Ni 0.7987239034908822 7.1500707040230544 6.9668038870529125 0.06415750851451532 1.0583686482014094 -0.4110222077901179
Ni 5.2535550908903215 4.503048515633 7.028119730406091 -0.3031855132200972 0.4557408908537313 -0.30151223928273235
Ni 8.122040167604798 7.141849575233702 9.204693942085571 0.1254883462135129 -0.27500313724861025 -0.29518655417502065
Ni 4.438548457788421 0.4547562257071269 10.629922243859557 0.31320355957773155 -0.5510776531845284 -0.5820831004271071
Ni 8.426539175928403 7.395281505719145 4.7136834431506305 -1.0947153051512437 -0.7992143050595977 0.22860629515162564
Ni 7.1901792981717705 6.145135148482244 6.920438352216998 0.7893695510550341 0.06413256881385085 -0.06582975401061567
Ni 2.4762547502517944 5.375358319855392 2.6404534430387385 -0.35449341946545404 -0.03284892820922084 -0.8212005795227019
Ni 2.4703902846214625 5.307105729134527 11.354284360594265 -0.6716279386664756 -0.8648046893658977 0.3568835169641854
Ni 1.1785219253808232 3.5559509124679973 3.5506611100849033 -0.5890286785070049 -0.41696505563711417 1.8008561899929245
Ni 3.5465061316537687 2.8273884968567873 2.609928310267071 1.1791019962284404 -0.08335027939288225 0.8324327007930953
Ni 1.1517375421696472 3.3141663364415597 8.468870284717855 -0.9515475393800967 0.513173164829271 -1.4006554982983423
Ni 3.58120346462581 2.9824931890766333 7.196388199186883 0.02021247039213293 -1.155455560454094 0.4106774228561895
Ni 4.408147503037056 6.826491788200458 6.158784760217509 -1.3504876191947 -0.8282500301703155 -1.1787785514507507
Ni 0.9847770214421125 7.234593334630235 11.493367368968402 0.2664771020554701 0.5814598650208115 -1.7739169423999193
P 0.0271134096445317 5.428383240933355 7.96230010023294 2.0424239304012244 1.7638263909331366 1.957846206359144
P 8.267174361844173 1.725657534103742 7.918415406576347 0.4447764214224275 -0.34983406631657166 0.6643455460724494
P 1.6294966131266293 3.1835618769864538 10.547419998706783 0.7187218068304848 0.6527257024453339 0.14650402923323158
P 4.07989151725271 6.239909263831162 3.901924473163642 0.09257179799115026 0.7290193321017508 0.24078689637821754
P 6.94838565805626 3.6672760544645002 10.500855960320164 -1.4748259109641697 0.5610049396005693 -0.17081612361603485
P 6.309838711030562 7.876883750443146 10.321748653825694 -0.5409102257332233 0.8079930796934922 -0.7191200707101679
P 2.4692844657545376 8.492462295757466 5.947414735076047 0.9437596679045618 -0.5964190574338052 0.8784896430521579
P 6.835311146868638 3.9730259070802 1.530283813358585 0.727061951265064 1.2539583792176985 0.908285643367668
Ni 5.17267622409055 2.828231457140591 0.7664249284875978 -0.5607077200751247 1.0355459938799392 -0.425220610777687
Ni 1.4925926117656805 1.1040060491104073 7.197993449361738 -0.38320210025405615 -0.04008221273286645 -0.7045457724404189
Ni 6.5983486662291195 0.5120965595928194 8.844158015884995 0.5647628639811048 0.9296389122324635 1.5057477973540068
Ni 2.677994180753029 1.5716133403054546 9.219287125493352 0.8244347701892835 0.31451816462409704 -0.19773711637659494
Ni 6.4609733322363665 2.0688783309478693 2.5492351698332176 -0.16225023632389476 -0.9561852952624242 1.5528486074965515
Ni 4.084777061263141 7.029482062993787 10.389844435805594 0.79622359786239 0.14582525799865206 -0.20656602752213457
Ni 8.064945470532988 6.874948408385549 0.4405029456395891 0.8886218463901535 0.9622399860969365 -0.7649697820544309
Ni 7.6308843729976905 4.033628406623322 8.32303452998422 0.45127359911099707 -3.0715167124566523 -1.0710488147722392
Ni 2.980145590006686 8.516835631275184 12.45959835775793 0.5120441934311504 -0.4854170777619252 0.044717397512032665
Ni 0.026374686385069485 4.802879518083929 10.263775646522694 -0.10643724311933282 0.22101202774413548 0.2540373336302206
Ni 8.740836464540088 2.264263835008821 5.904392036290311 0.46778368095087824 0.674573908668677 -0.6246181455758404
Ni 3.6395036855443497 2.7332398036539147 11.275562746993906 -0.5819141789494107 -0.11801903441966126 1.3239129540299652
Ni 0.9416682138101823 3.5198849020459093 12.76667156737831 0.27657742371426564 -0.5350774211015301 -1.2497091170230412
Ni 3.1659684800954584 8.30855192846313 8.11919948208927 1.010042707402512 0.7070428278306597 -0.9536550726414026
Ni 5.796938166736953 7.99459001114715 3.598831305055284 -0.7669302482149114 0.35047555655531254 -0.35381207712771323
Ni 3.066997691505667 8.420738158921584 3.6580379348811394 0.7556297356004277 -0.5233045968363181 0.5867360258180864
Ni 3.370363688695127 4.297203052781626 9.271157281623395 -0.1494415145950007 -0.42444362340234637 0.4942053654775166
Ni 7.0061782899867024 6.158994140675099 11.366263460713348 0.8981611533391564 -0.9225020440773661 0.25560544944828884
Ni 0.6910606534799346 8.657011768791541 0.1242224343386964 -0.7835467737256699 1.3752316589085993 0.6376294702338439
Ni 4.480941202383573 0.47157645580018265 1.6986184499896102 -0.2028207015470894 -0.835111276066523 -0.2589800223474766
Ni 5.886862994431735 5.609365907457062 0.1924061379826055 -0.2323621626496321 -0.18964019830107337 0.7678465893815937
Ni 8.107347279217212 8.582876584262198 11.49667032302666 -0.6484157622160704 0.634398879111688 -0.10782692437800785
Ni 0.135490909874444 4.72100360148611 5.930261852914006 0.05290893218388953 -0.04252938872177837 -0.6070369421589674
Ni 8.036339205418107 8.75279199802758 2.419358556730687 -0.3475578686878853 0.8996367094434184 0.003245760630807314
P 8.75152302555734 1.5549263523217747 3.5867987268106694 -0.054300156104461324 0.6918404090586086 -0.48797841073119835
P 1.7930127800063644 3.3405518997335166 1.5503027604855575 0.005889626011557599 -0.051267539925724616 -1.4408606097623187
P 4.726668657156834 1.1963781808549405 7.90260219677932 -1.468974337279399 -1.0980896209401154 0.9461510509548738
P 8.598403368844513 1.476784840422096 12.622056745442828 -0.7859250441498594 -0.4050207387910444 -0.41647886002931495
P 6.335870774848666 7.746895649045015 1.3204945653514812 -0.26556230355068455 0.5689946426742652 0.6699909172836848
P 1.9313579715299454 3.3655597214863544 5.981548281707737 -1.3924701342740728 -0.8073423334833708 -0.39403595764476657
P 7.06274726989227 4.09080468049679 6.012697930216546 -0.46118108803269603 -0.5877035319376782 -1.3635318539731678
P 2.3748275935231784 8.720224725987732 10.140372605836212 -0.5454772762786154 -1.4488019760965822 0.49959028393851374
