# total energy = -340877.5884419734 ev
CRYSTAL
PRIMVEC
9.21468692219110 0.00000000000000 0.00000000000000

0.00000000000000 9.21468692219110 0.00000000000000

0.00000000000000 0.00000000000000 13.48662574545338

PRIMCOORD
 96 1
Ni 3.289440566480506 5.415499244329602 1.976262881646472 -0.047023162827073854 -2.2443110643904505 -0.5202246723594138
Ni 8.264744994038933 0.4563380270766194 2.3514471595592945 0.04244171410397852 -0.27952493637836373 0.5547016230903609
Ni 5.734161553127424 8.471319849126251 8.426713391881773 -0.3334695089156192 -1.5415995169452936 -0.35802868631222207
Ni 9.234222222325869 6.903892361160883 9.13748551583144 -1.1835281503205939 -1.7711496640674271 -0.2655000828541815
Ni 4.504839363710715 1.981784322148226 12.92400408393188 0.08936151858396868 0.39387577791781847 -0.7665862346119313
Ni 4.230398338237188 8.929197650414892 3.119132876825104 -0.08448387877669321 0.06125370460415902 -0.1768114219675213
Ni 8.431153028119667 8.650766665433254 7.298786854750028 1.0518866400214917 -0.9193940945760036 0.43088912191737405
Ni 0.63813274565306 5.521993382979086 11.007541757065503 -0.2863702414349713 -0.7732762450375973 0.8518854102010683
Ni 4.074319968379531 7.239896711054001 11.760365105530779 1.2649758133741247 0.11609019282806457 0.438137061729039
Ni 5.138432033036649 8.85176663483372 13.311825383714037 1.035469632116049 0.15458526357946925 -0.06984787403107326
Ni 2.976288640559935 5.70506157131077 6.563320290879384 -1.3847467974878862 0.5890906420931918 0.136785516393887
Ni 3.3644389046710526 7.5221241471149485 0.5586671271633643 -0.7555443749754729 0.6770015442735631 0.07002939391426004
Ni 1.557162326551892 5.591942072646666 4.623094207487683 0.5478128663903276 0.4546360878253266 -0.6703737545444003
Ni 5.21944756189416 3.979104606722949 1.472564127355459 0.37141693469367004 0.0035087844842068604 0.27826766693249494
Ni 0.4609195694956315 0.39560494596345175 11.198444272357452 -1.094606033266889 0.40847758699139325 0.15719827572228412
Ni 6.02042502213191 4.988370853845956 3.895423268891544 -1.2451340960578492 -0.4710178716174598 -0.26788298126406124
Ni 3.487537909448974 7.855963045542925 7.758154670940426 -1.1228771122974404 1.270055027669245 -0.7636675183032396
Ni 4.703738384455641 5.312598833643544 10.558382892697356 -0.49355436215707893 -0.854039994650226 -0.4577445515473213
Ni 1.0823018569642986 1.6269912252873582 0.9059668404861375 0.1230897640743493 0.8981732375240143 -0.6107894672228642
Ni 6.7612029316387545 2.902866013861044 5.214509411084931 0.6148723790429862 -0.27802829722817923 -0.23188342324100064
Ni 0.838991730341114 5.78651019046131 2.060864766717739 -0.4439912065169709 -0.3036465120169157 -1.131072246513723
Ni 1.9137891461428151 1.8143073843655528 8.594500864619235 0.6034065444952318 -0.45826237172400436 0.5449921091120807
Ni 7.689490508652593 8.692794853231149 9.636720675698136 0.18815152957068887 0.13646052895430047 0.7286532070115838
Ni 7.3302651473035025 2.776551083290211 2.6324951156732723 -0.07891666910156087 1.1878643158021027 0.12795197726265703
P 6.127637906374078 8.688123006878698 1.8170257170558355 1.2350499723489696 -0.4212341153261132 0.4100282193079648
P 1.1547845855804475 7.155600753593979 7.175747745438163 1.7338720106628913 2.487195980948278 -0.14107463068754414
P 6.338239579717848 7.684486933565056 11.463915721421756 0.14478447543896356 -0.377737220484743 0.23905731528162052
P 8.799758940922004 2.1196083968891037 4.089792349465137 0.0662331600966214 1.4926467411956745 -0.7083057537034834
P 3.574671990531393 0.06327541328011345 5.576922132696968 -0.09210848520148653 0.13326953282082854 0.10981567267326248
P 4.392761124687295 5.5226844845105125 13.495932067280282 1.0769734077867903 0.5068605923476819 -0.43997282938619714
P 3.8350421888250503 5.981290246078925 4.016262832396051 -0.07565265363830842 0.4926737593243386 0.673054386700357
P 4.5912178404521065 6.135875836628698 8.225911538253651 1.6159193107047913 -0.6540824735835444 0.30213238936523457
Ni 2.3738416135836817 2.9021933417037875 12.45092020601441 -1.2373485385751595 0.52112481557618 -0.3264815076335603
Ni 3.2715364294729827 2.3706994052874566 2.135081699443418 0.12579893547539625 0.6186166765767669 0.9471702362480074
Ni 0.24278028211575653 2.741830142351278 10.461885768067152 0.6488371660242052 1.0022175549311383 0.007821810037263949
Ni 7.702252850266294 3.7133991046066694 7.423416419052885 -0.6337008246033989 -0.6119333510193202 1.3362262241796794
Ni 7.645895824050127 4.188600517616433 11.388713738646617 2.000432416460787 0.9748404484697663 1.9244758584288149
Ni 4.946480886354345 6.9363833478250765 5.659770462815826 0.44064080198749916 1.7877219666038113 -0.6415100362351727
Ni 7.721760342826729 0.5017166750988782 0.051968070757245854 0.09601810466853786 -0.12555185246159667 -0.6230621139426301
Ni 6.198950369730343 0.8468463296129682 4.069859138361341 0.2728786347064397 -0.9442774880812446 -0.47300507725081764
Ni 8.514601234367802 5.065184485392387 3.720987399421747 -0.41098621234585997 0.05030543312277143 0.17497205476593736
Ni 3.670762747461116 4.0149220954250815 8.227718538391157 0.27758426771222516 -0.5907999114748147 -0.6927477513642263
Ni 5.016945598498725 4.655296774446093 6.265616787857995 2.3156046697291153 -0.3928085129955686 0.77506521861722
Ni 2.375168528524023 5.519422485282174 12.855438518795864 -1.043671708310867 -0.1693145993698439 -0.35475464354664066
Ni 6.447009746077499 3.521871833530308 9.678973701860926 -1.059711021161917 1.0299160492876713 -1.953882079505074
Ni 1.6488668924288197 0.22436749438110246 6.74986794505463 1.091410666258043 -0.08375291414793964 1.34868450454769
Ni 8.744664326836578 7.019886842195728 5.241793178076993 0.16952491560843708 -0.3858457085244903 -0.7617823854653848
Ni 2.476336578037969 6.011606566590891 9.161775430989357 0.149312188105988 0.9777910464576579 -0.06570942638266748
Ni 4.222501351404739 1.1078173255046133 8.055817629338637 -0.35374471422488757 0.19881440860117372 -0.44411590502029324
Ni 1.3303335892501977 8.685819335107272 9.04384770860393 1.427091581002684 0.8379150640639054 0.17546544946258813
Ni 6.815154924525552 6.26991267497735 9.87341097111895 0.2868242982532544 -0.1368971022710868 -0.3628384489960396
Ni 1.1883997640690964 3.490569541500171 3.3670438967101806 0.09004774601771588 0.29544160760862026 -1.9054684640883766
Ni 0.8023108254590513 8.55134940646559 13.609759253912568 -0.6708905462798187 -1.4018086380661794 0.16576390590410808
Ni 9.268408711413834 1.7773657038389645 6.9775352188811235 -1.043057728875952 0.9952953738900084 0.05802208504073878
Ni 8.553017264828103 0.2394639162336116 4.838353905153276 1.4904631032807942 -0.5074372907867584 0.4857186681627441
Ni 3.446458834420905 3.868574435129928 4.633640416857271 -0.4349206116742703 0.8566005562885505 -1.9073916492530183
P 7.365925986325177 4.941219300028408 5.650006580379814 -0.1570039003232909 1.4885828555389462 0.34489600558500605
P 2.176435372146641 3.6280342434447057 6.362639149652083 -0.18629339331602757 -0.7292070226325248 1.0482197326928657
P 0.1366740817925815 6.13289027801293 13.244837373007094 -0.28785248240745265 1.6060958968564663 -0.5043496530003702
P 3.1837849643558216 0.5400064643461048 1.0990071631819716 -0.48652470900380723 -1.2281473316918654 -0.9893268150113995
P 6.9731683786712075 8.17863374322303 5.474221680720669 -2.097285615436111 0.18208886831637675 2.3369965051413297
P 5.638688180232443 2.782162827725405 7.614872737038686 0.4089542695174957 0.8218796078675974 0.21305934855596206
P 0.3727967524889168 7.9645212740996065 3.1124301134389634 -0.9942440498073586 -1.5244548868452068 -0.04088722513266507
P 2.3436266546296576 4.343388831282093 10.499486298720369 1.4304378717670978 -1.4135678354846364 0.576458298041162
Ni 1.9496434935932898 7.465886911830896 11.106330574373919 -0.9469542635824595 0.8319498476194059 -0.05464751214155105
Ni 6.923667079646805 6.617748683088512 7.337844227431494 -0.6372828855277025 -0.41587979299273536 -0.6098443297007755
Ni 8.075134377876399 7.250899047434332 1.4189410987976208 0.33961624524330547 0.9801361496510668 0.009734453678944524
Ni 6.411265974872053 1.3573694811596537 9.074152971491396 0.9925010989743229 0.17020625794617783 -0.22179672842895995
Ni 0.11768721905248805 3.8501450609585195 5.583543806836755 0.4197685865241803 -2.2998175820981874 -0.840871832699384
Ni 7.087587148214396 5.60405017147728 13.266739762741105 -0.0587129404601763 0.11791001964562274 0.05788221702876484
Ni 1.6037149257088694 8.1651803000779 4.996835465402884 0.8994230507707155 -0.9254958365983674 -1.2106563739959535
Ni 2.432585243755046 0.3470481523653336 12.344915367249179 2.3286535324932736 0.271307690674894 0.18654921808057548
Ni 1.7578582112785288 1.8158738811701223 4.8296285179518215 0.363598981311148 -0.38796584019128666 1.4134544498352237
Ni 3.935288769630426 2.838114407709801 10.211708856627702 0.3101917693346013 -1.1087339880278388 1.3947980110763012
Ni 9.167839616560459 5.552189912558938 6.986409884013365 -0.11013654634779096 -0.5811531324136701 1.6083481832257527
Ni 4.452288003260945 2.2509084731733022 5.917661910283429 -0.4885787633193585 -1.7578195226174245 -0.5413524554769644
Ni 1.2021665065751383 3.9743682575608976 8.535900983566409 -0.32221450482709024 0.5997293527539607 -0.84166707490717
Ni 1.697677089921795 0.355618732823747 2.9417704227368873 0.664366629118372 1.213719843412626 -0.743547864735229
Ni 6.853994830591796 1.7795495846782763 11.441945143003311 0.6166083878974865 -1.1247709868860436 -0.13617873604782355
Ni 6.835206083624045 7.263182225319575 3.607132568728203 -0.24144432745655836 0.7851398292444026 -0.9399222964363424
Ni 6.925814101737774 2.9274968724411314 0.19903816251991882 0.27500519413113933 0.5306975468662795 -1.1747830571381124
Ni -0.1488724845566367 4.019990173322219 0.3004116995558762 1.0556720752058528 0.4472953311895393 0.9686330341074737
Ni 5.472833027376854 6.5036892863416655 1.6570476916235082 0.48835507734432665 0.4952608033252245 -0.006726262980240029
Ni 8.560066500448666 7.5140981546633 11.495379270475892 -0.20462741573852503 -0.6445637354598319 1.7167872872664625
Ni 6.769210494716232 0.8288795327332622 6.649216839486193 -1.3835851730796171 1.0330337689810467 -0.22291412986285483
Ni 2.498709838282059 7.280063532060586 2.72966583392944 -0.34303761222002854 1.6676995286008762 1.600951119430733
Ni 5.561386170270471 1.5446764255507628 1.4578906596401835 -0.4557128658292732 -1.331682313562739 1.6499550601332618
Ni 5.246124081007274 0.15121946535736555 10.830515639055914 -0.5270000434100344 0.4660402158972103 0.26038358756322255
P 8.558527647705354 4.698191142830046 9.41045495577738 -1.6836028300946941 0.1322655170363464 -1.0212064373288154
P 2.11753509229482 3.8282417497558003 1.0260222341196517 -1.5047872332129504 -0.32949046966321316 -0.0691557330600551
P 5.031173075359052 2.6216153346311812 3.5979888347330586 0.6930799378926644 0.4485505437528791 -0.27326224329810356
P 9.001496085289325 1.1604608328252413 9.092979498676197 -0.33755550605953477 -0.8552761810501722 -0.56664465438485
P 7.454368552973765 5.176792775374436 1.9271983587899317 -1.4832118210350198 -0.875996444316659 -0.45767050377627627
P 3.423514263577502 0.15910631603401976 9.775335370590968 -1.898926806315117 -0.4493558132629938 0.17764677338462306
P 5.665226479039271 3.494375207266567 11.783117089414093 -1.9145385447104446 0.7197412492339347 0.08633764415598034
P 8.74697721329509 2.391036219685606 12.46157514869161 0.38673428177703073 -1.9385400498313647 0.4558712457840085
