# total energy = -381163.3772972933 ev
CRYSTAL
PRIMVEC
9.32678624987307 0.00000000000000 0.00000000000000

0.00000000000000 9.32678624987307 0.00000000000000

0.00000000000000 0.00000000000000 13.65069444269915

PRIMCOORD
 96 1
Ni 0.08797491269904226 5.240059075196418 13.382581433694982 3.050774337702978 0.28295838753994496 1.9959545831950916
Ni 6.446581490426824 7.347353193958317 3.0565949572794135 0.5509853505810381 0.3502217886732936 0.6081474016143268
Ni 1.7988386390075677 6.90675580451726 1.3828294565475334 -1.1811308537330112 -0.3454320805941341 0.3816108445075363
Ni 2.8725009819986034 3.4954183919475708 2.7231222383697533 0.2696588422175614 0.31902093759045697 0.860020380603377
Ni 4.859992529478318 7.028656902738993 6.606894958428678 -1.7964719448822997 0.935768422168969 0.20160559819306567
Ni 2.397114679293045 8.962090396255956 2.0407241808462437 0.07893415260305761 2.0392126225527787 0.12992221361515044
Ni 4.38386008386092 7.520019990544308 3.957322824914835 -0.5663062972088246 -0.7062565844839385 0.7825761822822844
Ni 0.572299074809795 2.7335505182413464 5.801708825296988 -1.3689946768599521 -2.318797208524484 -0.9047295505852934
Ni 6.3666042970640575 9.212262787809246 5.462830300991053 0.07591130661633379 -1.4723946758148576 0.8285372223934311
Ni 4.649608208698854 4.7873461902243735 7.449211028210767 -0.057920012245235734 1.0149918238776714 -0.9141012216081806
Ni 8.692107910393334 8.841765524935484 9.86759544388443 0.21883584602842315 -1.461396010711509 -0.6518857230425419
Ni 3.4322853748195756 2.3201034040048403 0.09120571150730605 0.945489763221791 -0.3218239542568909 -2.487354360903013
Ni 2.8896622689709055 5.2424933664462925 9.169281225372748 0.4963123845181904 1.0767821177115906 -0.6878711399982153
Ni 6.5946162441357234 6.16835412538838 1.0147198509916577 0.9888239072330519 0.11372914879505576 -0.6842677389176731
Ni 0.6995294987793381 4.795954814069718 2.4763727774245257 0.263855605272223 1.456791164949646 -1.8622186522608057
Ni 8.677296973593327 6.686186632991191 3.0940933019925327 0.9161005114263964 0.706397480937177 0.07525181865546395
Ni 8.085969389174352 8.470578079868272 1.2790484389398176 -0.8376816078968605 -0.6967740989148 -0.4403338122700417
Ni 4.641699093833359 5.506805166178936 2.3453528801414794 -0.14157856690715614 -0.8081373185808405 1.2139386442916513
Ni 7.101694967021653 2.64489941352845 6.979354577160576 -0.731747015445559 -0.8515660791884366 -1.7500565908425538
Ni 3.73756974719859 2.830744959294802 10.958422804562325 -1.6307221800455787 1.479691466586587 -0.02488853571156359
Ni 2.3740681901036114 5.99984707553589 5.55101413370541 1.0036810268505423 0.6553168602112779 0.034628902927779065
Ni 7.6659468905272625 7.9427379304604155 12.345619995180037 0.9528197212243011 -0.36036993285088903 0.1689746995319219
Ni 4.356551253287605 6.768122451497534 0.46000270122071385 1.2667683864981731 -0.8834912100318074 -1.8347024491184079
Ni 3.646344449439848 4.985288577948919 11.782665427662389 -1.7250294726705968 0.7817842825086084 0.1257400572130028
P 0.8999071104323987 0.4875894700286892 8.343345790541449 -0.5047276051650791 -1.1150493887229054 -0.735299765793824
Ni 1.7646186597133418 7.474514599708514 9.668759550022955 0.368623688219249 0.6041015136797273 -0.1648262245811871
P 6.080523777878506 8.384622416424394 7.8238139424569235 0.5938415265146161 -1.0674996639684005 0.36769192043359905
Ni 4.727374953685296 0.06589934197363932 9.568768005728742 -0.2779071982692827 -0.7271815075620637 1.9222012034620248
P 7.682697798898053 5.774026923267752 9.925583805635293 0.03397584272481245 -0.5696952682857156 1.5739370527357346
P 2.48498233394851 5.823113800080375 3.1468260196081292 0.6605068890526495 -0.03301913523849797 1.0762486138056238
P 5.988058017528831 8.943082405576853 0.09315780790040538 0.21503472711477806 -0.3245858332727442 -0.14275124705901865
Ni 6.867620608791294 6.6985166446093345 5.733523487977202 0.9505201265568469 -0.7248490027741452 -0.8272866378157817
Ni 7.467183745599694 1.982632291766362 2.334392040766561 0.03590417009577688 1.1743493120348032 -0.882652516180596
Ni 1.6982212673460495 1.8496976052358078 11.94976320009014 1.4325271501959587 1.071434223136116 -1.2500839838639568
Ni 9.363813739990189 2.4523199279827486 8.140618761394734 -0.6655053707085055 -0.5354309477862069 -0.980432340735247
Ni 6.510721800485802 3.8470289123654022 8.850578405402945 0.2459931231695054 0.5480488936605337 0.6952219239363318
Ni 0.623828636980051 0.28655991600640907 5.569005504667133 -0.5785190372249327 -0.6876014312765965 -0.2350271110763049
Ni 0.6479215916033392 4.6911030813835115 4.798014168506395 -0.7862137790348719 0.8161756155042846 -0.6071194745704447
Ni 4.095149410911135 1.3791145975252141 1.98426541206465 -0.8393631093643416 -1.0734767074874416 1.5470314865941421
Ni 5.5143971703069 7.780470500708184 11.858631170195379 -3.018761018021175 0.018719430786374214 0.946495835888802
Ni 8.819269316143533 2.9101905258328817 12.411511875724559 1.4317015689708699 0.9166962360288664 -0.06890607894309424
Ni 4.730434139623837 0.566572427961429 7.421596279043598 0.48533223135760284 2.4024776175632754 -1.8342537916167634
Ni 7.82498725218579 0.8653308478977696 13.041655679774689 0.99503029315408 0.3597652093873546 1.667066780112884
Ni 6.770155690932296 2.7190566921788695 11.424771451248231 0.4361791666717198 3.1239152806630264 -0.37921071970647596
Ni 5.718569851345303 5.012466833512661 11.17696992879731 0.8546683722628443 0.14302249844253434 -2.0943573860457216
Ni 4.611517613049462 8.317917240105968 1.8253164529128219 1.3305849667335021 1.8433452123950707 0.14671948767814733
Ni 3.0287060005921433 8.432170373481348 7.646272967299342 -1.1272379603692975 -0.752263390231356 1.4644188566982328
Ni 2.5604080555490567 6.9278529953495145 12.922730759092556 -2.065462814498559 0.34603886094019765 -3.043531797207952
Ni 3.075302625436502 3.404538185285555 5.221472655262503 -0.844514571658294 -0.6132407569768342 0.16052194077887838
Ni 7.99070559290528 0.10006056251355791 7.601634967598561 1.276705443106227 -0.7022754883490034 -1.8168895893067032
Ni 0.15057163960915323 0.5294639429197456 2.486801989974758 0.5943295218946281 -0.9470486230684786 1.0448526159928457
Ni 2.892301749521537 8.533403313045135 5.3564237930123015 1.6532658696740494 2.0585635162755644 1.8046616797819437
Ni 1.5649228361459742 4.1579559905152 7.138657954195528 1.1506044030093798 1.7113877135174462 0.768173119483077
Ni 6.9250456326437195 0.6148870468602977 11.069785566832968 0.6282012349414083 -3.2960102709914842 -1.6177108553875754
Ni 2.5085138160306393 1.3280411152098197 6.717124516151965 -0.22114495377757398 0.7638701212323491 0.10979433251702382
Ni 4.627680933877179 6.675479482206299 9.536348096209329 -1.0641767702427543 -0.07402514533721445 -0.277270078905916
P 1.6431186133067237 6.699318748239562 7.497111537793565 -0.1530775686856912 -0.58795112917211 1.1747324064058349
Ni 8.365138759638993 4.5698548582096405 6.822630989243309 0.23865056676150512 0.9603414835226428 -0.04352080610077021
P 2.7985302390761437 1.1596180064349135 3.9771571688688008 -1.3737807853946857 -0.06171804583508726 -0.6607665704719394
Ni 4.627093346334106 1.3681276431483818 5.0072662174171425 -0.38467020015915043 0.14333540169726283 0.3749707134831993
P 7.759074852711194 3.691141004509395 4.854541955507333 0.679434836305404 -0.5768714743191807 -0.209200122710872
P 4.723653565912499 3.3737877705313815 1.5995475979698728 0.7219315720170342 1.0889627189381825 0.4582235480662689
P 0.1346013832598747 7.467687392065185 13.450902942096178 0.8345482044742015 0.012783524917913468 0.20960455723814223
Ni 1.4091188693675485 3.7632184097930623 9.466852345400625 1.6142640344895556 -1.663924634939476 1.4293356398418544
Ni 4.530896871425235 5.2284285725581245 5.002529142605604 0.9035658692944954 0.45996907000246595 -0.6709525098660059
Ni 1.6220587296200621 3.2306309261086303 0.7079114817152118 -4.440715792017927 -1.6668384661521616 0.40990634901811984
Ni 5.551555087316493 4.153572400908145 13.422004827120647 -1.179577393202962 1.306635912117072 -0.6819010384577094
Ni 2.892021945929597 4.907633754399252 0.43715020918835834 1.630283292735947 1.0649383309991272 0.30119599359389415
Ni 6.583134970079797 7.631353839777117 9.892303966409983 1.7806069528255852 1.4558604256052603 0.07993713994627523
Ni 8.668968153339922 3.9066643845941513 9.842846816177362 -1.8161856212611431 -0.0570869748209791 1.2895869270545854
Ni 1.6260972281303918 7.8655494462306494 3.8621364409728667 -2.339537783505945 -1.753803716589812 -1.546919129385994
Ni 5.800132598395727 1.9175033423491965 0.295530419163996 0.9688960579608733 -1.1838107145580192 0.347265277148131
Ni 7.583153007672303 5.300487324268996 12.40839952710355 -1.9832325076427328 0.49417939733558763 -1.662088610172002
Ni 0.058255107841846586 6.591034758158895 11.137274193208825 -0.15521569807461658 -0.4948769376232445 -0.1499498216899869
Ni 3.197502180822969 9.160872194756319 13.207838494456798 1.3714688494320573 0.4866334666675297 1.9150329678483602
Ni 0.4374094938502225 2.763237679346149 3.2023026777820145 -0.40849352783099324 -1.2594325149583923 0.8839918038173098
Ni 0.060303270134845224 6.937021226378739 5.8250248586133235 0.8724249249153169 -0.7326497297654866 0.7576801903715532
Ni 7.619630069274843 3.8641342386193163 0.627220789193 0.8422784832389235 -0.849085478858428 0.2202530380909239
Ni 7.895273914481045 1.320262575353896 4.502094822349602 0.8497565367835237 0.7932958826926338 0.8551453118992628
Ni 6.684535791798747 6.0971254576669285 8.102356552875621 -1.385296242233453 -0.04471071264381332 -1.458988943931913
Ni 5.875642261073855 0.7399816367447011 3.2158032010931055 0.18022224742128315 -1.7419082507038064 0.07466714979658752
Ni 7.543971178014346 4.624136755045943 2.739012284356009 -0.2767653713553556 0.16553739171559878 1.53724175419723
Ni 6.970504389547524 1.4508655652849525 8.979153751971078 -0.8195345046741885 1.123612447801568 0.9448433878870437
Ni 0.028265758857749002 1.5141851181409076 10.369135921007231 -0.19945461328833392 1.4036423488408085 0.06337846425664569
Ni 0.7216153289697789 8.89585155925743 11.803756089744164 0.6847230812875369 -0.9346139968495516 -0.571689415897609
Ni 1.0912246817784517 0.6840003994266846 0.06676486775137282 -0.4719264994746582 -0.41889672544218826 2.5055575141746007
Ni 2.4927981809500257 1.4565269246285324 9.2845882856111 0.5145479336896106 -0.09137006437356524 1.0210218321218352
Ni 5.707433668386104 3.3914806843283687 3.9175039757458956 -0.06715695746247144 -0.5642756399320411 -0.32850882247623425
P 9.08736779115376 2.0445808070218123 0.9519748281778186 -0.6124614556086484 0.835870779940367 0.11679853174899885
Ni 4.349089824169213 3.0947489750763117 8.861867547659072 -0.6264613694321662 -1.464859543780077 -0.4244171410397852
P 1.627981238982786 4.158907322727795 12.303766973897696 0.3986839979397392 -0.6531417069368299 -0.7001396729529232
Ni 5.03479516014945 1.419070550454204 11.710098366092826 -1.7320190166145526 -2.485762333825545 1.890697476426789
P 4.685255186311973 2.7730960925688244 6.605639572979508 0.14930498901713643 0.42939273987750565 0.7465460281316045
P 3.16974566450255 9.023805741851456 11.213568238623024 -0.3874351644987973 -0.07080998083402643 -2.4305478934369305
P 8.141109350359269 8.10597534599804 4.661070829181984 -0.40502819499021214 1.7391947084273853 -1.0264908256562062
Ni 8.806463638419093 6.9531845472064555 8.42283332761832 1.561067652972234 -0.2506738164746264 -0.5434576747454253
