# total energy = -340857.038779851 ev
CRYSTAL
PRIMVEC
9.41780083593372 0.00000000000000 0.00000000000000

0.00000000000000 9.41780083593372 0.00000000000000

0.00000000000000 0.00000000000000 13.78390348928303

PRIMCOORD
 96 1
Ni 2.1961275144691625 7.20106698213018 1.386839894833975 0.6896727119833285 1.6938916136152116 0.2328882103564312
Ni 8.056815437684431 7.9776870766701045 8.345244058440047 2.6439754239655886 0.5641925932999315 -0.03188476452373864
Ni 5.978551698280051 2.0086756104428396 2.041823443370967 0.2137851709783931 0.4254322125678609 0.3519192309803746
Ni 4.968746859784552 6.440588997894772 8.100551703877068 -0.7847593059765323 -0.31128963038447033 -0.39056831081114024
Ni 9.23827852852558 3.439710418360834 12.968089227256412 -1.0735787802829446 -0.06993349176634407 0.5376968610022482
Ni 6.384185789835405 4.70068800004273 6.971553296865796 -0.0388074597855009 0.2744824888584499 0.6407834424817932
Ni 5.194576301436843 0.5869625416026814 13.711661317555038 -0.04615284440697858 0.8218078740893975 -0.6625732846633751
Ni 7.19190346210317 2.396726668195081 6.978156116897591 0.7387656128552375 0.01189520877568919 -0.46082833267896767
Ni 1.8316963007330997 1.1170735878353215 6.830874899739932 2.0084676280604374 -1.2115050951494941 -1.0205428356028876
Ni 8.080849664928964 5.452011882051772 0.2644264140332735 1.2678351371997905 -0.9249222234830844 -0.33423698320926304
Ni 4.368070116883482 0.8536605291513863 3.7386766162574787 0.04581191612779207 0.8308069922642144 -0.0033048960035168893
Ni 0.7905622066139084 7.441315076569061 3.219327290821205 0.28312988012080265 -0.8238616712946328 0.6124262314953389
Ni 7.166277626549731 6.539221624043671 2.3095752828117817 -1.1929088202045455 2.285448714971025 2.0334564367952916
Ni 0.18400028009014688 0.21668664078669828 9.561865682646904 -0.894949074159762 0.2202208993014078 -1.2591473796178059
Ni 5.445692537819373 2.592447401187195 11.116897137409321 0.6718606235025719 -0.03900286362575864 0.7947097323210248
Ni 3.222620695706555 1.2923859468310006 1.2794892106285467 -0.4022354627364234 -1.4251545118809714 -0.9715882600810557
Ni 7.49219003565016 4.3212542298801235 2.1971267431175345 0.8299677841923707 -3.1445823220940747 0.9720184056399388
Ni 1.539989343573166 4.899064552816568 8.58560705004679 1.923706584362958 -0.121349641454791 2.25211924758096
Ni 6.56666509512148 1.2641702161003503 4.972335983610137 -0.8767438640056449 -0.9824470571724305 -0.9939766550785848
Ni 3.402726715230239 3.2794100335923435 10.515574333384043 0.8232466634184531 1.2727086632420082 0.35925818784394903
Ni 8.347712463988946 7.913909730706164 4.772221846617406 -1.658172048726415 2.1781259839229454 -0.18502686789877812
Ni 3.3797378638572355 8.430768047871991 8.322541508206633 0.6747546572209154 0.3796704329517138 -0.3061253125747115
Ni 0.763529351644196 3.0097689833422603 4.758176138736333 -0.7525716655003942 -0.1775128189099201 -0.29110004281047286
Ni 4.484568310854825 3.290325264539214 0.416545555381966 0.13534544151325076 -0.513504837137077 -1.9603244926963077
P 9.199477189870613 3.697795827220227 10.053592598793124 0.1292051329434678 0.0568486335579279 0.3785080372124965
P 0.5505881701737793 0.02773636467784986 11.713643832101477 -1.9340984691202436 0.42985116757116293 2.344569689502898
P 1.3622848632138067 8.626291007050574 7.931119819603759 -0.7833336292735994 -0.7911382129196826 -0.8488803048261574
P 5.396013639420113 3.143972642525093 4.022074247908851 0.4417656596205618 -0.3160430859090557 -0.7314677936422435
P 8.188984851928073 2.580251349352685 0.9394698779428574 -0.82832279238978 -0.21715203056809695 0.43930202857141765
P 3.7170269761361108 6.368288542347642 2.7731834715739896 0.8384100014224529 -0.028672942454660295 -0.1776657995480166
P 6.327782581776038 0.5932752933746289 10.841012085331993 -1.2285430244683875 -0.9860136914777664 0.32628970333772833
P 6.9062427329569465 7.145351273517854 6.441590110103273 0.19450575392349082 0.050397221505629336 0.2147169387640431
Ni 8.836345632623479 0.7946627170144843 5.392180594557838 1.1848095881361789 0.5150896651256935 0.004406356597811766
Ni 8.895357571461348 4.593014285275198 7.993298964798342 -2.1199079808213166 0.7601687611213618 0.05459788985053823
Ni 1.5223968919694093 4.0027442120862 11.532978395219516 0.3979193518595727 0.4056192916069918 -1.9380492262378752
Ni 1.8051569385171546 8.497907548665985 5.313253774477302 -0.6466578989846992 0.3712801520054896 -0.17199805973927798
Ni 8.728775513663036 7.76299889318015 0.8870296803946575 -0.2596379676464496 -0.696538071644594 1.4468258262068179
Ni 4.652581874351087 9.228710043070858 6.097557852563001 -1.6366899675932394 0.25365783880361475 -0.13505439263539323
Ni 5.388149775882032 5.0111269626843935 1.7914804084213432 -1.8446431052708876 0.4553966201404351 0.26510798962208537
Ni 1.4302719660657974 4.114919635561759 6.4877797133637785 1.1505303552383346 2.2577805596317955 0.02106941907578952
Ni 3.7370303847048363 0.8643911712056263 9.89611190353757 1.4741923911452288 0.21918320206551284 0.926508851243914
Ni 9.590334752214886 6.920039810901005 6.784010040173222 -0.8561706678399836 0.6994758141166793 1.4500037097141674
Ni 0.0664614191475965 5.876698184310764 11.619734232975752 -1.478693621449692 -0.7045414015650447 -0.5220624968991009
Ni 8.198704022193102 2.3628979282803626 3.6711905403997704 -0.6467864541427635 0.2762328958906533 -0.6496900009428036
Ni 4.6540981402548365 5.534841438719352 10.737136569564353 3.3905309651788897 -0.9276658476664927 -2.0591255594266213
Ni 7.026913012613763 4.275549643352805 9.622060497245709 0.005521444038861459 -1.7494927479192837 -0.7296456528318401
Ni 0.8178813627232109 7.002841114166652 9.515993459268115 -0.29872104969084035 0.28902464833868285 -0.9260781914643987
Ni 0.24171632955934488 2.4519432333732523 7.415532905524926 -2.1793300315333757 -0.3379442568575212 0.8698844178816504
Ni 2.3541487914817063 6.68439702097724 6.883640011410363 2.1072756367692866 -0.666138376306814 0.2329244629110053
Ni 4.986235715581221 6.4109135080642385 5.747211901470717 -1.152236539296164 0.8825471009509833 -0.12988930349468597
Ni 6.9316048700923405 6.424870688619253 9.283761796737755 -0.9678930706176556 -0.7508659956631972 0.9401506103970648
Ni 0.9621319316334995 2.244384324971116 2.5090565436012082 0.1896869923786088 -1.1169070107569345 -1.067780942654245
Ni 7.318770654584006 1.7097546179892882 12.42266012827564 0.6325744243084396 -0.36604564307942766 0.8068263130789007
Ni 1.5660013089530245 4.609438929599048 2.710783949844327 -0.8725239123870263 0.28653067827223555 1.6909299598837266
Ni 9.028186231750096 5.879693044915687 4.922658968771007 2.5514820446208573 -2.0245005131535843 -2.048363178703795
Ni 3.9165995895917884 8.004499555104738 4.241968591595034 -0.05463157130195107 -1.109254122197367 -0.5529334754463445
P 6.732117016842463 7.179584978860282 0.39388161813119504 -1.8659619213533218 2.026446838246678 0.8698815896681727
P 1.2911427971459386 5.056831549211712 13.278778703395217 -0.3277462332785968 2.4796173972700712 0.990793629364913
P 8.479919549435165 0.5935484095933168 7.484673688955857 -0.9232468926631905 0.19757590820838228 1.50095526106137
P 9.108294044031442 5.720372111414215 2.506423326541032 0.1464844888492058 -0.1460304320309227 -0.6158344858459394
P 3.6983985664614694 4.930576513772761 8.94722799207056 -0.6850596386913493 -0.9456440294114681 -0.8350989347713489
P 8.325024982236563 7.435626724979838 10.563294329249265 0.01863381305110339 0.3537359724741392 0.5579502119346456
P 3.4015589079503323 1.9204025650027912 12.554585621482591 0.19630321214354582 0.5777037404124888 0.10638145018073292
P 5.430558132183807 4.660210292873058 12.677097081165389 -0.02525800323584037 -0.3716154238577213 0.18770030096588322
Ni 2.884022509138107 5.2226884363604045 1.0024533033124736 2.103907234517686 -1.3543203626772289 -0.5394038163910259
Ni 1.4770030928633564 1.819829871921144 10.969339978692778 0.09093323394646274 -0.8298551698739064 1.2381887750882674
Ni 6.395458897206763 9.061289801015196 7.443638447988037 -0.649466829188404 1.3831092618844631 -0.7661059525414031
Ni 3.41793646327096 4.13324667561578 4.538860048009716 -0.5940209895152738 0.7537579724990114 0.6537867967199966
Ni 8.125942094414397 8.717125694265901 12.677055642842552 -0.13927203026116658 0.6148443540185282 -1.289024369682896
Ni 5.535331164352861 2.453760868897624 8.614608225351184 -0.8742182693703138 1.284453205372446 0.2530806261439061
Ni 0.9248581602430563 9.164367629068256 1.4180052807264543 1.6836300837882037 0.9411695385798823 1.0957643152410483
Ni 3.857323952335876 4.576909846173258 6.713518744129883 -0.00870344131126888 -0.1452650146198079 1.854186783095265
Ni 3.527804525588639 3.1745334056162013 2.5272507926661425 0.23417273349580964 -0.4560905608836661 -0.3871312601051332
Ni 0.19804033729083229 1.212183956543211 13.685802862325684 -0.28655767485542905 0.04965957200865641 -0.7990710946135141
Ni 1.8414060531974858 3.241541057201174 0.3702354042732121 0.993540853092747 -2.1493303998474915 0.2722289169375828
Ni 6.852052708049015 5.688492856232889 4.669724155084041 -0.7693344867810299 -0.86670062083703 -0.8106523716932102
Ni 6.998311152056692 6.618698443681842 12.314470318032793 -0.6147412527817606 -1.4542547716810375 -3.78000012938858
Ni 1.0149092864447693 7.383197828792412 13.13377188509318 1.0090276358744363 0.9852531591626581 -0.7929487837658602
Ni 7.373874206154446 4.049654277096003 11.848670607060631 -0.6098880384545173 0.9796414694028355 0.1534624628289357
Ni 4.685082704374944 2.2648115345688398 6.049217223635313 0.058570244234724934 0.7552646389515252 -0.08175928075667856
Ni 4.709587821651697 7.79830622779604 12.797402891937267 0.30718640684937415 -0.30882779910753905 0.7448763537386656
Ni 5.380709713372949 8.253063567512633 9.467349577159677 0.760615104630161 1.019762248683121 2.3155373068262897
Ni 2.103089061903043 8.76545784717301 10.62851919117225 1.658409618658518 -1.6175131375544725 -0.6649680101477967
Ni 7.491182330981209 1.7079369824649173 9.55319565537366 1.884457151944032 0.749188093740142 -0.6688969128885577
Ni 8.018145948238487 0.569293805813705 1.9789549151692125 0.6841335273326541 -0.18971630295464745 -0.23004662714257798
Ni 4.882875353508828 8.670488745474787 1.9470455230258252 -1.5400707390055928 -1.0378435316648642 -1.370450435469872
Ni 2.163833876059483 2.433748042528254 8.879949107827029 -0.39551125663871234 0.024591316186118938 -2.2080070877530944
Ni 3.307955387345548 5.704700891141918 12.366504608373221 -1.6021991329052212 0.45731826264318015 1.9450878782522114
P 8.292853775235262 4.221020577621675 5.965217976127697 -0.5002690551730934 -2.0192487778363417 -0.13320268413863512
P 2.4008234114753986 1.7387049371702024 4.249770297648864 0.7335527011957302 -0.0741578142603368 -0.0583622419889769
P 3.955429181648688 1.3725879371187906 7.843054907557951 -1.6074842925635608 -1.4301694485970595 -0.7465010338262821
P 0.6161483057997058 0.13835408392682383 3.642754433134041 -0.48686100929730347 0.33887011110590026 -0.3981214405680498
P 2.952828960646162 8.795905596656384 -0.01373774579999986 0.09847479373914654 -0.08358553533213992 0.9677310911184948
P 6.477553865424079 8.921652070860539 3.1426193045724915 1.3785977471673547 0.9616308917580279 1.8013678395220203
P 3.8230431579902264 7.426284266740584 10.841853094929538 -0.48514608348872573 1.6742242170932715 -0.17964657742347126
P 1.8021620779122323 5.760812147381308 4.930254424990722 0.8213525317195338 0.23856340636433748 0.20628577727755437
