# total energy = -381165.7477983589 ev
CRYSTAL
PRIMVEC
9.28839042131469 0.00000000000000 0.00000000000000

0.00000000000000 9.28839042131469 0.00000000000000

0.00000000000000 0.00000000000000 13.59449826649111

PRIMCOORD
 96 1
Ni 2.6338717002868135 3.1877105521696274 1.8781208899604465 -1.0504082557037524 -0.007955764511966943 0.5653048525275038
Ni 7.943877276989826 0.8020014212755225 7.5332003856965075 -0.3478188356587558 2.7694087485714496 0.6550481799309236
Ni 6.611002548991908 7.0975005707784495 10.31768054912291 0.1890737842746421 -1.099734612742706 0.019557096196321157
Ni 2.2407591551606747 1.6244001477774468 3.687602432852558 2.531207867752854 -0.09187554325507404 0.20685244841430184
Ni 1.032311704399951 2.7689899148261885 5.672983796990347 -0.2955218260272523 -0.849197321845944 -0.14819915754746735
Ni 4.398015681001972 3.234403290499828 7.852793463460163 -0.18173585585233215 0.2616316010377107 -0.4065531162751708
Ni 5.3322512716106765 8.348563156502166 3.4559657675849924 -0.2744655195775854 0.48751844037564424 0.42317966908825827
Ni -0.001258576893523424 2.7502738082546037 11.244838386278738 -0.8866973756739308 -0.23508496089743383 -0.30551930355959644
Ni 4.848864860594102 6.613306069800719 1.8879907335549706 1.6117407538470696 -1.5881336559510906 -0.3361920500531049
Ni 9.24032293800325 6.938761979558411 12.783817852127857 -0.42386718207358615 -0.7574793872146568 -0.07217420817140474
Ni 3.1653998385294555 5.59079361722857 7.038238782615659 -0.6327122354378845 -0.4920638936544816 -0.31310457210602205
Ni 1.098528639262892 7.216902828831909 6.709361029850041 -1.6311389558680232 -0.5667004473234498 0.6542603939223055
Ni 1.6314407476688912 7.6211335772167015 11.366155910424038 0.5651523861100396 0.804999030062175 -0.834175651626131
Ni 0.9931611390405323 5.438176075254523 8.906000330809709 -0.2340907153049646 -1.015093382452542 -1.0855104987235242
Ni 5.436532030161138 8.603092917485357 11.77313416467676 0.8242712480282255 0.5634546866926425 -1.3918628397073771
Ni 7.984625445490839 6.032958151835869 7.114272617248083 0.6426235810143255 0.8773470448072826 0.6732675311524275
Ni -0.1282735996844859 3.851951211848894 1.7619695685323256 1.495518920537147 1.0671911315890459 -0.2887557109480124
Ni 0.5546181478338584 4.849180665866276 6.3446886071613875 0.843682819785618 0.3553837924902073 -0.002232231764628414
Ni 7.23622268077677 0.47025912892346405 9.980944818114335 -1.2650722297426729 -0.6497990157168422 1.390950612305753
Ni 8.087568675829733 4.793970473577692 10.560152121743208 -1.532305236127561 0.3851126870132077 -1.2509429894301423
Ni 3.170536318397488 4.898743516817133 9.622117579478036 -0.0001437246667158815 -0.6900789462828115 -0.8523497514319965
Ni 4.480626624846971 0.782980655500192 4.720444504341957 1.2445823373194371 -1.2278228584729112 -0.7622444127034679
Ni 6.663212591194824 4.8610047867921455 5.33354328670949 -2.874671768877023 2.3828680708624637 -0.6446632371521736
Ni 0.19859414540763823 0.7027577568162624 9.420701621079605 0.9376085607015013 0.4678898675114393 -0.9608991557983257
P 2.863805803601739 8.7527846164966 4.1804852941712625 1.848401029651423 -0.4196708846040514 -0.8642189920657567
Ni 6.2804751780986905 1.0698460898370592 13.162519459613394 -0.41381751114706794 0.523032317011538 -1.309932837700789
P 5.854045176758023 4.367540472237025 2.9535270102658684 -1.334907762478572 -0.012532585249371965 1.0263818108821678
Ni 3.2254028402428228 5.243862948962936 3.07041211453228 0.7049872308532116 -1.3599369375330577 1.53519027098484
P 7.213280356592247 7.018892923177795 4.688184995789217 -1.1770463992509923 0.42590246733606 -0.32933157548784575
P 4.863642689653849 0.34685357462566174 9.522918499292496 2.1140710624245656 0.7363562320827963 0.7090953394843144
P 9.15512053324834 6.52284643610312 1.4521097950249302 -0.08451216091146735 0.18855673542890755 -0.1508959876533401
Ni 1.917532459088928 8.371338289660242 9.042502515512442 -0.1486781540664149 -1.809085519881252 -1.1268260696428594
Ni 3.9621022331056786 4.20951708707456 0.37751362235873537 -0.9694365038453756 0.967043835243483 1.1505763779849216
Ni 7.06193532409726 7.6577669887890725 2.264136176013957 1.3397859165064796 -1.2362074829921808 -0.16674760997361607
Ni 6.9238076710818595 2.5063699658410865 8.811654434586279 -0.8984092647942205 0.5449699976248937 0.46620913737490677
Ni 9.185084880543592 6.210691501338236 4.408967622073216 -0.14572344231346515 0.0481189669944139 0.4959514016343459
Ni 1.925984894314805 1.3319551773524652 12.387511029557565 -1.2912661145292212 -1.1468341373336701 1.231019768143654
Ni 6.028908413639735 3.5912075177161293 0.08621112394780082 0.9351593278300604 -0.8491178747582602 -0.6179656732563293
Ni 2.151284090841035 3.1759607383666224 11.28189720612951 2.761857932807385 0.8178959406295011 -0.8374370959862223
Ni 8.552889167599792 2.156671357248737 13.586328277195005 -1.754907748287268 1.4023349428832945 -1.4262518587102082
Ni 0.9745193395918126 4.074909734004881 3.693760635659983 2.0562307543773293 0.37486324137105764 0.5559789471408876
Ni 8.22016973658206 1.8160660828169732 5.268275625341147 0.6633423016189156 -1.4631525883912995 1.3745284621939875
Ni 3.2108943745034613 8.100265905449264 2.1804078388088777 -0.6231852697840558 0.6648011455526291 -0.37745157092352416
Ni 7.675609986666996 3.5667047439514445 6.85261958969926 -0.5959020085880705 0.37492803317072204 -0.6778116988796843
Ni 9.356195607720629 0.29240595918547757 11.56691982381933 -1.1607160375220849 -1.0566352104500705 1.1498099321325423
Ni 9.059347940265903 7.080670007449561 9.883472449696365 -0.5920245279105352 1.1584822630955598 0.26277857015796036
Ni 4.553614796280971 6.348261850932151 4.786840705138809 1.6424865196703586 -1.144058374360746 -0.1644819538678909
Ni 4.619952480218568 6.515787259430959 13.090863243356747 1.4885741137881976 -0.20450965921373812 0.6598828823154055
Ni 8.10195639249444 8.599851269250378 5.99052414048486 0.033246163647639514 -1.786295261459614 -1.9516495906301292
Ni 1.2077322447031493 4.017637519056796 13.580318688633309 1.1856799065562742 -0.07915963835030237 -1.1647938071358843
Ni 5.781354233815482 2.1263261859488027 6.076060927292663 1.124685883371405 1.0980443695244768 0.07538628735079919
Ni 3.1024152635111353 0.2611393795620196 10.581644528192829 -0.09594894199349926 -0.36812078044090146 2.588779238409419
Ni 0.8831828818444087 5.106803460838717 11.387717050962308 1.075609437559728 0.8783423188410162 0.29285687760057955
Ni 3.153343507844633 8.056341107445778 6.560229420777391 1.549294571596706 1.1735802950792626 0.4560370819379113
Ni 2.857629024013598 1.3056783210293819 8.675233987718698 0.36961561981887314 1.6081527793854948 -0.9926425096481938
Ni 8.226653033052019 9.000097298171543 3.696792366272869 -0.03828244051996633 0.4743284240479315 0.26510593273955635
P 0.6950586100484281 1.1841118680224847 0.9491973297975428 2.4997038836073013 -0.3693752216732929 1.783467819313148
Ni 8.070589498255115 3.834944169103201 4.226380159769702 1.610070822343814 -1.1888773304476492 -1.27977019807448
P 2.936701091132158 3.983307628293235 5.573649106305577 -0.8792378340720921 0.044596812773768355 0.45268204942274937
Ni 9.512333449640398 1.679851838215342 3.14594344724633 -2.3909310503762566 0.3752154825041538 -1.341722214297244
P 4.982961352194083 9.078612061868617 0.9392299581042588 -0.24578846335786697 0.07266323199268131 0.38559065509089074
P 6.845961671490569 4.677076080920922 8.697610648930413 0.07623757960750097 0.4569004583794712 -0.966911680540993
P 8.881726051447835 8.175511155740285 7.92235700536913 0.9077706514044623 -0.4975897085687173 1.7833019831592447
Ni 2.3963582704396735 6.711595816570201 4.726562767070842 -1.9135406995735496 -0.323359674175127 -0.30330069864172277
Ni 2.9588724789169585 0.9846901270339391 0.8729164239815936 -0.3256986067209488 -0.22224795703376565 0.8040209824196216
Ni 7.006762285370108 0.6845599424266603 1.611070378774528 -0.6866863756614948 -0.41716868700748805 1.8935897103729193
Ni 7.266307777146676 2.9637581722453223 2.13623968497801 -1.4263019952218532 -0.8188369643865316 -0.5063725969676698
Ni 1.1744240768789795 9.165282032300109 5.135512017757553 -2.28466144318304 0.4789345553613752 -0.1954786593597214
Ni 3.4970511046560047 8.568382202717114 12.751231392234512 -1.546975693655542 0.49300851695593806 1.5802995046186525
Ni 7.19693278956198 5.242952686707842 1.5119660401706398 0.029294120978426968 -0.18983405947943435 1.316404561468062
Ni 4.398052834563404 4.522294343993436 11.724874474893145 -0.6239337179143061 -0.5254728081322305 -0.815784293603137
Ni 7.021372923403409 6.857516429096053 13.674162082938368 -0.483091257842226 1.1171468946818823 -1.8074410422992935
Ni 4.343985114288867 3.0701473954070737 4.296405334679466 0.6816228450956583 1.073619403712893 -1.0353277072215459
Ni 6.894140552278067 2.7063397218607603 11.369173708451386 -0.079884689441785 0.06757604727776104 0.6442271780560196
Ni -0.050716469033332844 2.731427664218006 8.059266950408581 1.7736809151297133 -0.055811707652981296 0.5478123521696953
Ni 5.685033625801918 6.02609403136123 7.179893237450033 -1.3708988358612002 -0.29323225866212727 1.4415044139939044
Ni 8.136555646578387 4.526474119654584 12.935287349053644 0.9143236220316319 -0.060968055042940165 0.25068667199043276
Ni 2.6149233839562767 5.931686831761435 1.1083018835976914 -1.7672896668913889 0.9775457632160715 -1.5563334807213582
Ni 4.8148136215412825 1.9948118668683739 1.9615910099135703 0.5619891578907095 0.2708654609311528 -0.07731487183207976
Ni 4.152486370275787 6.805965862608563 10.729634594090468 -0.45957157745373106 0.7667407579119246 -0.47782666700917714
Ni 6.667457385588479 1.51440702915675 3.7598168813697286 -1.7803174466096243 -0.4375981585064335 0.5900316658502226
Ni 2.931778244242362 1.524977217384275 6.037098916257514 0.8503098381838323 1.5135870908927676 1.1772191773834306
Ni 1.2700109020542532 0.6802324813588185 7.210480835738314 -2.127814123042271 -0.4521146069550536 0.9376885220098174
Ni 6.6513048747557315 8.314223977348247 8.037828416623038 -0.98621269486245 -1.41470657707477 0.7804074567657399
Ni 5.581625975945119 8.050043578782983 5.921885722255561 0.7411631665531364 1.0839277276174366 -0.26366122987322976
Ni 3.9481882243492343 2.324447552287214 12.779508039001696 1.2838775353746341 -0.6755023340202172 -0.6891587484613872
Ni 1.3355869379824847 8.417529454911106 0.49808993295345844 1.948162403412477 -0.7870398744805929 0.1737438387857911
Ni 0.8709500717427825 7.891918021326578 3.010433262633843 0.43725748733756303 -0.3680264209548823 -1.1332499708913322
P 1.6754212760145255 3.065884024232703 9.18750171971477 0.714491570799221 1.0287888776617635 0.6475475006785042
Ni 8.51444451990759 9.010370257907608 0.26914504321167154 -1.6745353205757871 -0.6337054525890893 -0.6246248304440597
P 2.6751121534768063 6.201477418102995 12.465720205211857 -1.0929862382752789 -1.160722208169672 0.03856988985339809
Ni 4.861097670695727 2.7058195720007068 10.17455759977292 -0.9982801675499453 -0.9306668392763456 -0.05165243406896911
P 4.027371752152092 6.921383401198393 8.539111698181612 -0.2143785815880179 -0.2795136235244541 -0.1401528902042231
P 6.327483721701067 5.300169171313777 12.038064136343921 0.6441970961490324 0.42754540225612175 -0.1243593748153923
P 7.547866754071958 8.274952662914172 11.949333072091965 0.7356694904284169 0.4704560855767188 -0.38466145840840205
Ni 4.801178264495583 0.6010628861414982 7.441016826748443 0.12611903781897635 -0.2929504657556503 -0.5238625262223171
