# total energy = -381173.37080033304 ev
CRYSTAL
PRIMVEC
9.18764826660372 0.00000000000000 0.00000000000000

0.00000000000000 9.18764826660372 0.00000000000000

0.00000000000000 0.00000000000000 13.44705193988887

PRIMCOORD
 96 1
Ni 4.119511782778283 3.882047826184611 0.4182373672084709 0.21523810137483573 0.8717741787051954 -0.5539318348038719
Ni 2.316206123085375 4.482405513240901 7.889009080406685 -0.7664301686500413 -0.29528245632293665 0.226393603771023
Ni 8.962541677364777 3.729330737021878 8.120324662793418 -0.2206443599920716 0.7467162351608817 0.893069854859178
Ni 7.077861017147605 6.692347296700709 4.897389534205086 -0.44004713426755826 -0.2535267125423892 0.07790853955202066
Ni 2.9891002930522523 2.0005185293161825 2.8104878173051633 -1.389133613701672 -0.465213863341173 -0.29339809481603024
Ni 1.0262786844937823 7.820673190274655 8.054959139339667 -0.6462506362439514 -0.5705411612257787 0.1869829631838844
Ni 4.936697968465333 3.363405082637727 6.746291654618533 0.3871500291582106 1.3279452151178097 0.8545256760373929
Ni 8.620990853780093 6.097134692662776 9.162915097985042 -1.272210640559667 -0.07474042623668417 -1.0486125972559102
Ni 0.05414281111996079 8.13819831369326 12.71335405475312 1.0339148860344194 -0.36948449355764756 0.7648931631802246
Ni 7.000354016535355 9.25517746168208 5.8755148354711695 -0.7117132367231355 0.8341486550429377 -0.6215636750202327
Ni 8.010416501873065 6.48653478831818 2.7890934595970447 -0.28043922066251703 0.18744344776007074 -1.5185462346702556
Ni 0.5853469073502334 1.0605210495105981 11.909045276849156 1.0482277031126657 0.07553078334846346 -0.15814624145785022
Ni 2.6135184203604354 6.615740685616672 6.5259755247131865 -0.7548411782608613 2.519036265387326 0.35380616359044226
Ni 3.929943036496567 4.787178180892579 10.142277975470007 -0.3685491262275717 -0.2937909593790747 1.63587107123637
Ni 8.69243400654928 2.0165509755073128 5.146885634943116 -2.4221164748401254 -0.7030720161083698 -0.2733316630834583
Ni 3.018849898076253 0.4039689494807772 11.625891145522825 0.1874951269336126 0.03330144236560716 -0.9557569494757541
Ni 6.94350084918251 8.018988577687578 11.357352725027926 1.8577953263821294 -0.08427587653094518 0.19624870475652653
Ni 5.051479258015931 1.0524175437566856 7.075247131221315 -0.020509175696945325 1.3516672413250979 1.5674753562707908
Ni 0.41104619492549227 5.720900496945418 6.895836248841555 -0.13279130763282937 -1.5770527155465808 0.714975195303859
Ni 6.08901281161237 2.254005744452737 4.940675301391488 1.5435103608147611 -1.0310730457102502 0.295437236733246
Ni 6.801992690881197 2.2426498112193634 11.574697569490173 -0.3971698752880579 -0.6823108723016185 -0.25477652578909027
Ni 1.5399876609319918 7.160641727853671 1.5934753927319367 -0.4338471761044334 -2.081439135322157 -0.8345165799053176
Ni 6.327165841824572 6.6980528262621375 13.2272330026839 -0.7809589583938358 -0.319574753211398 0.03993617407330542
Ni 4.6819796084636724 7.616900339802975 11.191268526430536 -1.2366263156971542 -1.4738694605881713 0.9274262208518609
P 2.381300610915839 4.742921279286462 1.6309931543488314 -0.0729977325139646 0.3655756454215446 -0.6649672388168484
Ni 0.8974752061885128 7.260980034359879 10.414217663345969 0.9787279564496307 1.5860379497643267 2.2937346091289013
P 8.285301749777037 6.643763012770223 0.5647436061561877 1.2744238461609019 -0.9994988704483946 0.7463097437510825
Ni 5.760168505553379 0.503613588544333 10.364167030755251 -0.6307121742887202 0.17876468903915022 -1.6801305552753776
P 5.99732008210665 2.1435702125230023 0.2919127164002597 0.27894335284328087 0.3443195642562457 0.3044163003034048
P 2.2694318058595613 6.235546613504828 9.157617500005784 0.3680873560998048 -0.7475410450550223 -0.4871803403099352
P -0.06605184077780793 5.317360610637778 4.206103529977232 0.39888814353074525 0.140920364497867 1.7436208625195388
Ni 5.838658584528064 2.715988261259964 9.287368224845325 -0.19904915031979914 -0.5344426157310086 -0.23215133219040665
Ni 6.271810261135998 5.714772335564624 10.597110664411368 0.22009722923934993 -1.096703796336182 -0.24677268164800722
Ni 1.3452462686871778 2.152840549604292 0.7059274404743789 0.5164649482066653 0.5821124110031458 -0.29982945226367075
Ni 4.341963122136248 5.14799550285136 2.3803699021484106 -1.3435338135846862 1.5293667223245273 1.9386007278659712
Ni 6.078263263163302 7.489348219188956 9.153569422188127 0.575206685022248 0.1831641036584265 -0.8160753424809946
Ni 7.381696544678082 7.3392128591836485 7.1265472839736335 0.4298678797417113 -0.7408116967509887 1.0171155550888933
Ni 3.8347773759534554 1.6690924940997653 -0.10334266748299999 -0.20121093385780833 -0.2690510334302334 1.6406245267609552
Ni 7.102713605655919 2.532437424580077 7.182675545879785 0.5097212017249285 -1.1899895896752215 0.14562882571712985
Ni 0.7050665578336288 4.905423213832321 13.325826574787992 -1.7255028127625895 -0.9751788056457914 0.798876719214521
Ni 5.024596199245016 0.5138872168142025 1.6683354318842072 -0.5329192371079468 -0.1274336428653418 -0.7090140926244176
Ni 4.4257360988529975 2.295065344468876 11.217974263590284 -0.08866886339231826 0.7369041341664664 -0.9599758726531079
Ni 3.503149212475603 4.86960057331701 5.60409884354529 0.1893218957297062 -0.806978779496365 -0.32585518690347104
Ni 0.5326667698312056 2.080644009678846 2.970077267356702 -0.9012559902143962 0.08160552878763365 -0.12308642164023964
Ni 1.9663680407818374 3.923337117406926 3.9130515451943357 0.2221299433986626 -0.35350328763804284 -0.3151622259659992
Ni 8.915850048973187 3.149029686088933 11.93376096939859 0.5410763189974424 1.7059626858471328 -0.3835594835934749
Ni 8.448648947961626 8.679672363134104 3.8903534601999588 -3.05162562995968 0.3991102868438804 0.5192623084461444
Ni 5.109003123690813 2.570529414212413 2.8132036861269962 1.4132850141368951 1.5800580780318079 -0.7912081469256697
Ni 4.289547588886736 0.6949335005819397 5.025969752657952 -2.0812776700436286 0.10627089274479762 -0.36127856070808745
Ni 4.866954530621855 8.01159252084869 6.7878299311083445 0.2885459089300515 -0.6856728467953158 0.921529909972084
Ni 6.693927572199204 4.233264055725209 12.639932801316341 -0.6499990475427901 0.8394962925080961 0.710592235744815
Ni 0.98620216284008 3.4324502592144293 6.005668898068758 -1.349674636375101 2.004075412530013 0.2080446689501901
Ni 4.309365346155658 5.7879611415007535 8.154050681978749 0.944766254792205 0.379632637735243 -0.9590497612944127
Ni 2.2489065996756157 6.259875506063059 3.8356639840092974 -0.9993106656969886 0.620730123375344 -0.13190916213819218
Ni 1.4842645743135356 0.3391004777971914 9.746221428659602 0.17262180936620594 0.5787321816770032 -0.13210996529508862
Ni 8.260752353660877 2.751498521734875 0.7353315899242895 -1.252911426010423 0.07604783219419807 0.7083013828281092
P 3.9497607937654884 2.961978355426913 4.650058043394066 -0.5493077057682991 -0.44931441850209713 0.0008263525560372866
Ni 0.18189705999541553 7.413917627080543 5.588608468600738 0.9659634576951106 -0.6485947109960958 -1.8740498405677788
P 8.289619944453158 8.464635455911521 9.768086193957972 0.19184594770314056 0.6279857764964927 -1.3219303763822976
Ni 2.7517190252928043 2.462445920233927 6.690782640204233 2.88274708968599 -0.002273369415208988 0.8079120899439118
P 9.197203401243092 0.42559942974884507 1.4367102257515458 -1.091429178200804 0.8464750378187745 -0.9740701459626449
P 5.356086547999162 7.13762666899477 2.7614864141442603 0.5375523650045838 -0.1809439560786561 -1.5304054480016869
P 7.9126874874690225 4.272963883800782 10.06397532451956 -0.03020146328404476 -1.3426241572862232 0.749509995855935
Ni 4.322420994314738 7.226728481694817 4.629699133643391 -0.5102685895879664 -1.1076829210555053 0.5860783376294294
Ni 7.8671535027565636 3.632088667974929 3.6426985641706415 -0.9713833431591012 -0.09161817582862931 -0.17914752629986566
Ni 7.00469058650797 0.45616030411306113 8.09415732182095 1.349025947047509 -1.0241254107478235 2.367255818246504
Ni 9.057440896108723 0.11970035642207656 6.598495469856929 0.8534252438843625 1.418219732434351 0.9895607853990764
Ni 8.596000450548074 1.9444187491195963 9.902959951460078 -0.2890673286511602 -0.45396014480422464 -0.6408364072069157
Ni 3.427167361472366 8.826601233901187 2.9937033048240327 0.9280463709343629 -1.8603414898427508 1.3830223585976116
Ni 3.944441145430437 7.484910585085624 0.3495275397927867 0.5728140164203555 -0.2364198776587735 0.4266899962343619
Ni 7.653200738027134 4.372530427854238 6.086525715231889 0.45502201040983575 1.1297743536379057 -1.3832517009995984
Ni 6.291582080163685 4.556402832222772 1.6926882123278804 2.2610175785118543 -0.5914791969300265 -0.4402672206981643
Ni 6.934055946784525 8.413258126913927 1.3282904638472173 0.5441444163998049 -1.2536822427381764 1.0958905564062675
Ni 3.7773729497057866 7.896553977147175 9.124806570585863 -1.3156414580497922 1.3658641016507702 -0.6533831335236747
Ni 5.433565985666671 0.0551295645416957 12.649426398250032 -0.998279910439629 0.5843839806461419 1.1369402752587259
Ni 2.5332367499775716 5.739872990575609 12.59596071680588 2.7837981845239024 -0.10289914805908731 -0.32516407437371736
Ni 1.6247896542524123 1.25291959145241 5.154255047602087 0.6353879824978348 -1.1633305923267965 -1.0447245750554137
Ni 7.611176434945053 0.535856721302587 12.987081658977962 1.027772006361475 1.433712942973944 0.5448509555485263
Ni 2.3863997556929606 2.9409937668306143 9.785755879066729 -0.0005257905964829654 -1.6171657815173823 -0.4582616003930559
Ni 2.3961570381313444 0.019677186250741562 1.044330575769618 -0.37888624648752167 0.9665051891311934 -2.0156242937098767
Ni 2.657049497755035 0.1653923686843859 7.252183779928139 0.3823616066306318 -0.5768442206256711 -0.4015127256377859
Ni 6.0012615832046405 8.795473481640126 3.986969850401282 0.01662706703371975 0.07300827403692588 -2.036336072335932
Ni 0.9268315798675385 1.733782725407358 7.959995607057991 -0.29840094734726025 0.251187008665619 -0.23829909695935733
Ni 1.1549608858421907 8.953556157379147 3.1010242239980124 2.021432929971854 0.0030608983135108573 -0.05744332971913333
Ni 8.382553006472232 6.111697115134376 11.790267360311086 -0.14243191604638697 -1.122988441064324 0.1688119487018125
Ni 1.1532336079717425 4.924450833351994 10.81571972927241 0.06615602700178283 -0.8360587275814568 -0.9425489354259123
Ni 0.361386037385275 4.511778424686772 2.1841777802453852 -0.4979303797375876 0.148020465877758 -0.3220831214555485
Ni 2.4118311660408396 3.099839017374141 12.208067395462995 -1.2374287569937914 0.7167248310051141 -0.49410175002011675
P 3.950247739122583 1.0165765279448806 9.0201748760538 -0.4726803469215472 0.5469057811950259 0.6232744870637524
Ni 5.696268411995033 4.493586881157581 4.488586044216703 -0.07616558871898496 1.2511875013407805 -0.546336024734485
P 2.266602010199465 7.820976382666809 12.351628074382702 -0.8094596369366898 0.21388878643579293 0.6900804889447083
Ni 6.50798794697508 4.679067123969352 8.20786549405629 0.5678363607001059 1.0591119541253373 0.10189796048808257
P 2.239663825539067 8.304412058130934 5.006122594914639 0.5894140868708816 -0.21089782212826907 0.28759742897385304
P 5.427630764899066 5.967634790620378 6.272579267294277 0.8588045059184047 -1.0234373835418633 -0.22978180351696556
P 4.826124621811893 5.545903360783549 12.213755468492755 -1.065321682480475 -0.7773576141958226 0.00021057334890931475
Ni 7.026658253466705 1.2565946507512367 2.6805625271489264 2.0030364297425374 0.873625115871005 -0.15056354401458585
