# total energy = -340862.5787765131 ev
CRYSTAL
PRIMVEC
9.33404787528415 0.00000000000000 0.00000000000000
0.00000000000000 9.33404787528415 0.00000000000000
0.00000000000000 0.00000000000000 13.66132256549606
PRIMCOORD
 96 1
Ni 4.1673163025330515 8.049542784098977 2.7807621747451905 -0.3651760959902807 0.6156434528810558 0.11787119598788734
Ni 2.369214674622034 5.508497624122399 11.462205058237183 0.16850701586688396 0.5514602333349277 -1.2433767470471102
Ni 9.266301248945641 0.7422481455068707 7.466458821125959 -0.08995852873801927 -1.8800358829478847 -0.5179443609656693
Ni 9.40741338309687 6.59928378029695 6.973873118284123 -2.35053799127119 0.752980985123671 0.4960704437107134
Ni 6.4786505469479305 0.273640677975335 5.830379461175244 -1.0589157789541312 -1.296881918054102 1.5926336007039734
Ni 2.1565197281407484 8.568403831406727 11.39057837588262 -0.27373249806630273 -1.086328109528813 -0.0936873996528322
Ni 4.874417091170861 3.770535265978307 11.644911576050584 2.2007218669455906 0.7930786244755051 -0.1645634578381037
Ni -0.004425272046639638 0.8797209344334964 1.6070355369169147 2.314631764292885 0.5909194677718146 -1.6400393436814467
Ni 4.305366869016495 6.384582013545622 4.726066402975825 -0.22462365635479378 -0.26771637377920987 -0.2299296419487395
Ni 2.214605507398792 6.779346895782556 8.540635039297989 1.3231521646045408 -0.3313743169494873 0.5774977950492699
Ni 4.5936489343201545 3.5710199949449333 7.005088974233453 -1.958449901381414 2.4466108604370636 0.8646496518452722
Ni 3.664687164293233 3.821069800592327 4.4566923182350795 1.2949674746402087 1.008212853282625 0.6764140472012092
Ni 0.15030057077369777 7.008320421570611 4.027112371229613 0.9543346152069306 0.38512579963933025 -0.3467466856404996
Ni 1.628912678074717 1.2489142594061948 10.642457247520348 -0.06987024262857645 1.820794580788064 -0.1611572603700321
Ni 0.764999886940501 3.6371517233786856 10.49875398170882 0.039537395972989976 -0.09651998400562087 -0.29655823771156664
Ni 0.12985993956733594 5.539916028908286 9.08089999154172 -0.625077344600446 -0.306800227154549 0.7013601756235855
Ni 5.383048022125275 6.746556385974825 12.611162866909241 -0.6122799357254617 -1.8418876540129376 -3.296421390386975
Ni 5.855957552272917 7.3965608044179625 9.924349749754931 0.2337626425415845 0.8030527049690814 -1.1381008712257301
Ni 7.8470406177799585 3.921774841957429 12.11218334134657 -2.41290009844818 1.0274645024233853 -0.9186898694201275
Ni 2.2878871164225587 9.043152168964594 5.184622034466385 0.4794582890753291 0.9500820105781638 0.40413525086229757
Ni 4.647553060178294 5.52516823343541 9.389222257402512 -0.32591483649681285 -2.240453638317574 -1.7579395931350563
Ni 9.528195961210173 7.790550960690181 1.1207792518663193 -2.7012166649762444 0.7033556087870596 1.2006694379865708
Ni 5.829952895192263 7.702213532617206 0.7703361620492626 0.7705292784200795 2.0133727786715387 2.3582052780084615
Ni 3.695965558362605 9.344221879709927 9.641328353773117 -0.39457306109515916 -0.7196350626733735 2.0154574291147096
P 1.337121010810423 9.218594930805217 3.3185536043304973 -1.2318337794045173 -0.141854189166046 -1.1229128506313821
P 5.312277271951004 1.7273682139278175 7.491432065928287 2.1229390543381568 -1.560491725864106 2.036065078062732
P 4.042305400781006 6.82205949836729 10.797403373868002 -1.613943160815027 2.0098585948706935 1.350965587272383
P 8.954768070652783 0.8977440472680387 9.533007662834395 0.11639306878046407 0.17162782088405282 -1.237619789958675
P 1.9006734788296487 8.80028024605052 7.4488902764177 -0.6615268456767317 -0.44955095999293543 -0.5603151126223963
P 3.552314563218577 5.911411130060485 0.1466117550959252 -0.5330303087645143 -0.5909657476287178 0.34180451114387583
P 8.556838946222618 4.415620641247895 6.910484666489282 -0.9369488156303155 1.229118180245567 -0.41087616913055697
P 2.1441427808008537 5.770756364249871 3.771850433308768 0.9543549269219047 -0.7732968138628876 1.9179316295523936
Ni 7.756836380153454 6.727440256146692 2.221112272097616 -0.9805189869117825 -0.6428848050955122 0.33764960843523784
Ni 1.959496647861336 6.430384185941447 1.8613827381565313 1.2946887670575251 0.8752256275889055 -1.2996242566859295
Ni 3.7564315198013984 8.139560340770128 12.85093308575013 -0.18705418274145205 0.5190545633107125 1.3169709754944932
Ni 6.837236660037479 5.7014510595751196 5.9049837047676865 0.6130026728240991 -0.1600874243446211 0.4076250091831109
Ni 7.440673514167844 6.348599259401357 11.706099992786593 1.090064950863426 -0.10364142554175053 -0.625725005486774
Ni 2.8789003529741906 4.07286507317227 2.142682935729994 0.5291577131829854 0.8829890735844084 -0.15885612304068125
Ni 0.35606685359706175 2.881187194677263 7.73587397567688 2.6131628094601056 1.2317977839602592 -0.6071603551107091
Ni 3.1627674136837554 1.7847539396032877 3.301108269052772 -0.5021508455768383 -1.8824743171860485 0.322779890412257
Ni 1.4521538154988576 7.093148247682952 13.164200530118217 1.325524521491459 3.169333818007142 -1.5194952288470862
Ni 8.841480732896896 9.067187341966276 12.3136326270774 0.5142856811671594 -1.076942811659171 1.4647960375319933
Ni 4.161211835293012 1.5085314640154228 5.694517728893314 0.12388217806865759 -0.5916494039593037 -1.291075081564338
Ni 5.940682703859815 3.3072958093179428 5.2151957079293005 -0.17896986307142082 0.20471123370158295 -2.449326973816646
Ni 5.30564076398821 1.6744161609419774 9.889772703204475 -0.3601429044417475 1.3777058314807045 0.7775761579645317
Ni 8.113798368931432 4.158038259052014 4.679330825803235 1.0902392716577611 -0.6927207547810328 0.09962536240382196
Ni 2.8142994083743322 2.0493928619115076 0.9106773038548851 -0.3065667709875043 -1.0562328328053292 -0.8842915944459159
Ni 0.8522582990915366 8.449338718082672 9.310901195988993 0.8254655254466429 0.7121112434925027 -0.15936417302535133
Ni 0.23942112545437827 4.827896197096928 2.8603806687984097 -0.34022636802347855 0.3092222063324804 -1.0357413977201968
Ni 5.2643749388074585 7.046496676940272 6.99690581455556 -0.40782838344316863 0.5024290389388896 0.3169447717877187
Ni 0.4409264154718131 1.547818471069433 5.0916427844385606 -0.4407073935593765 -0.47846275793127924 0.18839321326784975
Ni 4.854572905616853 3.2202651479324373 0.4209972900831181 0.5860922215865003 0.8831325411408081 0.19581521676353372
Ni 6.071564721657707 1.3793015726724027 1.4024985481845496 -1.1443391388259583 -1.6217328320627749 -1.3794145866416954
Ni 1.5414899866829705 3.2413040916007057 4.17562453845103 -1.1193765553433495 0.07311317504590634 -0.8052348002220648
Ni 1.0533939608173728 5.023388493542447 5.540336061057831 -0.8070037191970295 -1.1914741446405481 0.2747115741501205
Ni 2.7970967583385655 3.410698390487894 12.558293886948531 -1.0253335721233114 -0.1318299721608246 0.1276375313460318
P 2.5296389536045174 2.7248325605214725 6.25431697630517 -1.613789408845982 1.8836397982490591 -1.4936330163683438
P 7.594246602088877 9.254241659229846 0.6390919831979852 0.029951294946451646 -1.1835898567964647 -0.5126255198559171
P 6.175181985926315 2.074557454693074 12.389808724313914 0.31789967950182024 0.34702050812717655 0.2275642270403565
P 1.0280706892237568 2.9841790777454387 1.7135528898269285 -0.4129947581354565 0.24736789202984497 0.22223587284890756
P 8.597152698531067 5.279542766429879 0.6872846052271038 -0.7842376291451074 0.24620318229778246 0.1581074178001148
P 3.4084395509281245 2.7834503805022717 10.519983339951548 -1.5724226729737372 -0.2583966390401808 -1.2629479843108185
P 6.4128175080427425 5.286356621300259 3.871317779939881 -0.1301060474911824 0.6797233140801003 -0.1852379554683197
P 7.3191628803286655 7.682406683254267 7.569998612798093 0.4711240581780209 0.04455541801287165 0.02673510200199912
Ni 2.1057145061414664 9.044216250410106 1.1165929314425314 1.0072805712763429 -0.1068884717241385 0.1704489700846032
Ni 7.804094664001031 9.246802423159034 2.8739458404191254 -0.5145741589418558 -1.2021359952297686 1.2395972254000198
Ni 2.129525661996724 6.904833833970751 6.1594942518432365 0.7138084286892674 1.4983113956806196 -1.656688007981721
Ni 6.789100975699743 7.636903200387007 4.503072268187721 -0.657954297834125 -0.5683133003365245 -0.9059407972845752
Ni 7.385378615192325 2.297827877295099 6.626998434928637 1.3765110398416551 0.6324001035141044 1.7130262775621337
Ni 2.435430409485695 1.540043209278986 7.935465785901949 -0.04676450984904849 0.11079834830150595 1.5098224816440127
Ni 0.25793800941582884 2.846707222223589 12.630930513271556 2.39771619161889 -1.0963351001428538 1.3604542434891085
Ni 7.710016796550956 2.538655643748061 0.6577134084944333 1.890665080526957 -0.26195581714634886 -2.7607107065768193
Ni 2.512734993097316 4.377929756362152 8.914395513843393 0.15264562335459517 -1.0460412369843084 0.010471074734652934
Ni 7.923187779468392 3.0413127841311822 9.070817353143113 -0.8432081941420445 -0.6623249160979948 0.5534767495443242
Ni 5.204357011661513 5.601688757034549 2.1220266880202 -1.7447117815908726 0.9310162521959644 -0.2671270769346432
Ni 6.813892206570603 5.458616472852114 8.222886318596656 0.7035579546058528 0.1776092352784683 -0.07369732968415049
Ni 5.706090081315637 0.9498046986920686 3.487516670210821 -0.6726687212261641 -1.089119299120705 2.654308173350164
Ni 8.549129022766545 2.580276162743982 2.921938713826017 0.1413433109678985 -0.15947370202002215 0.9151612874415788
Ni 1.194207405440038 5.121610678201357 -0.15767260170058237 -0.434646017856645 -4.906210676934628 1.1164665807854062
Ni 6.462670657169725 8.951342475122058 11.558872190538002 -0.8082414482588726 0.6453060129424951 0.8649468713707168
Ni 8.000436358793406 1.4873711777261753 11.168444840298694 -1.6433390974786406 2.2072028466842437 0.9170795875102141
Ni 6.972375003617416 4.166196216800935 1.9014780737472194 0.4269687038170453 -0.04349689484137025 2.69383785601367
Ni 4.083403213101939 9.150213696859462 7.512893841960429 0.8054679992787935 -0.5451085800852871 -1.663768826087902
Ni 6.7315845733555255 0.3090717898965317 8.761210722309494 0.8162576336951296 -0.701119006147057 -0.8388725428811682
Ni 8.10866464265923 7.912957663115054 9.989527538506831 -0.9272344165560289 0.45098435000535236 -0.7071639267895563
Ni 4.1712926068820675 1.173280470344982 12.527214308096612 -0.043962778734195254 0.3615986630516676 -0.4158016314566323
Ni 8.864983865175821 8.727698690609325 5.454801647529479 -0.4278097116611019 -0.26079419273807986 0.3748064199911932
Ni 6.51203843581279 5.234309970947881 13.683863372129206 0.4040748299380073 -0.21331697309272296 -0.1950631690888576
P 3.4862201709758955 5.656759638863644 7.060662961237224 1.4622871550672107 -1.4511424513043008 1.2544265771033685
P 4.948202738774081 2.819190449404577 2.7489993435966773 -0.23794994115005472 1.8405373106326304 -0.34148775123440545
P 4.539744808462015 8.584383721184931 5.299431755413173 0.43104904453400605 -0.8816058200836365 -1.1809002257794434
P 7.336122845122472 4.766599505406815 10.10275327154745 0.18932806637729327 0.5767704299649421 2.010057855365693
P 0.33773478378141053 7.293839608735048 11.283705395752659 0.6093121113463894 -1.3914378363548165 -0.35925664518205225
P 7.601573829586477 1.5337707291791298 4.601338322871139 0.7649273588522697 0.5282277451695483 -0.7995732310609133
P 4.25405760843776 9.453243557635998 0.9139796899550773 0.11571841131094263 -0.27943597620898325 0.3785766856669028
P 1.2446112633853113 0.9812137694301879 12.98198591662217 0.9505918603350468 -0.5006894305399635 0.11882070438535021
