# total energy = -340867.55971883127 ev
CRYSTAL
PRIMVEC
9.31905494047680 0.00000000000000 0.00000000000000
0.00000000000000 9.31905494047680 0.00000000000000
0.00000000000000 0.00000000000000 13.63937888989586
PRIMCOORD
 96 1
Ni 0.3973225745251064 1.8400101570213592 0.9505613283402904 2.1594908853202615 0.42355016505379955 0.22726289374985378
Ni 5.821567137548787 9.143987349511034 5.925246285274956 -0.7760715483945474 0.4619125668820819 0.2826334001003584
Ni 4.600202454600658 4.197777697397912 3.045755171684572 0.9094914907503111 1.4070842846428218 0.4587025445852164
Ni 2.5146445142493974 6.0694260465481955 12.22002479080472 -0.46450680997181937 -1.4178122125832873 -0.04947008170566964
Ni 2.883641820740376 2.976823052875018 7.492370278869385 0.4086053708185092 -0.2740364024599668 -1.3179104565896271
Ni 6.217077155853253 5.728404543524383 1.5762622590440967 0.6442503179844711 0.21491568503841052 -0.45459083640968806
Ni 3.4749545061496487 3.792790200037448 11.644783747853634 -0.36196813057594435 -0.4850668935113581 0.3620522056493184
Ni 0.07947476586565215 0.09508884271749664 5.684033726386402 0.1559896001261636 -0.19307056413886106 0.7866711782872646
Ni 7.65072059535654 1.8535787012745881 5.842155726023141 0.5522243651944619 0.25855116234017406 -0.6248462024262464
Ni 3.2246446856539497 7.531101203849362 0.2628048095992218 -0.6740080088628779 0.5236537526456208 2.918610893462135
Ni 5.598012324299669 7.674549419295761 13.242282269702853 0.3519755381396067 -1.0137936898045121 1.1597729568825252
Ni 0.4964325895264412 6.690997703928784 6.382438197506413 -0.040167830468137274 -0.5231840120980538 -0.4636573174873305
Ni 4.745001933039308 0.2535398049999357 8.193461433580197 0.4006321228050455 -0.008245527838243864 0.018988625287360845
Ni 8.766286045538932 8.03717249208536 9.772028294955216 -0.6533939321569522 0.2696588422175614 0.29439851105608655
Ni 8.1895297242255 2.191310577841402 12.066403894790446 0.5047939396266403 -0.4391315644318244 0.6630826201996258
Ni 0.31107751511551807 5.423056383496012 11.169601399714994 0.293669603309862 0.3479419915001814 -0.9256783849228186
Ni 5.157770841424118 3.7375468412921578 13.49516974084446 0.47889264637984624 -0.8652590032944969 0.26683731360836627
Ni 1.2447089160211644 2.114437692164968 5.626339456144821 0.19351510787544737 -1.0386914814874562 -0.06123082178602357
Ni 7.748999350641261 7.918680706247579 5.110730114994551 0.01612261659347546 0.3863159632926895 -0.1737304690493524
Ni 3.7613011127904277 8.446539945351743 4.498198872984881 0.0030390439366399275 -0.06865462505392048 -1.109555969708502
Ni 2.848956297587547 0.49518756376254597 1.9064848409960393 0.9032568226945089 -0.09706094411075541 -0.198986929623296
Ni 3.104857551154631 4.99565655857441 1.2850194208438075 -0.9316361451681503 0.27557880724642214 0.10140199468827053
Ni 8.406179117631458 3.62111456663567 0.11339612649872523 -1.480690854385379 1.3880810040674416 1.0930574578328467
Ni 1.2193517670424303 7.931289387823553 8.134307799306985 1.8218867854109784 0.9352439171240668 0.803407517205339
P 9.040536518635282 0.2993932838073458 11.645369916420616 -1.7078647879658522 0.3950988516916421 -1.1561240472760281
P 2.08073998885475 3.9843526970631213 5.426058983055346 1.5262058080980425 0.7323548242328871 0.007563671279870845
P 1.9214866559265673 0.570404453344338 3.7445277454817827 -2.255074216444226 -0.25248618709301673 2.0812185346709184
P 4.98937551542422 4.342036670639662 10.261996255945624 0.7407625886806081 -0.20779038684753892 -0.2522768992956881
P 1.9441040027003222 0.5062669883934967 0.01253040151297529 0.11848131876806046 0.12156021480370033 -1.2929275613920441
P 4.412535322614716 2.3041643353322026 2.35410235599826 -0.21543401943572577 -1.9971210926993668 -0.3508555656025506
P 4.642035693029742 5.754022626046448 13.670203961711117 -0.132504629630346 1.0859097910444717 -0.8121204715983045
P 0.9087075879899448 4.348923452372586 1.515362233841588 0.9410127012870438 -0.8811859589373985 -2.232738786171819
Ni 5.625997446821955 2.4854013192860505 8.786433842706158 -3.245902555701816 0.25317190030613174 1.4132004248428887
Ni 2.5696083013411184 5.338476639236185 7.1241343391816265 -1.349418040279605 0.25033597351923337 -2.014399163053524
Ni 7.178207224603973 0.628044673066229 7.8359051310587855 -0.0074312594670646204 -1.5740149571615216 -0.41427799572325436
Ni 5.21273462851584 0.2494105316767174 1.2888886925292065 0.6497645629344809 1.1134118531194825 -1.6544141243458799
Ni 9.327162696929628 2.020809145384615 3.572685300993375 0.15938474185064164 0.33265472632380777 -0.40697863384836364
Ni 6.2045150695528735 8.698527195768857 11.134534727207798 -0.6334385720809478 -0.5205429749307809 -2.6983797097480817
Ni 3.0484306724092307 1.783881488039766 9.419819266261074 0.1488175078577566 0.7560686229100593 0.6155161832745722
Ni 1.1562151686113673 3.326884039364237 12.903370600757976 0.4147670195445308 1.9709578040404379 0.20801561548446756
Ni 8.637944018440393 4.9943612099128725 2.689031060785285 -1.971814238503462 -0.3401127252637497 -0.32053686001435117
Ni 3.1588894327344548 0.08863166942555809 6.423288275620445 -0.8634013812604678 1.0752394558148193 1.5664011493700056
Ni 4.99300994692062 6.673375370698799 10.295753601208604 0.7528238907205164 -1.1162608925325033 -0.554440141898858
Ni 6.3661074853159185 7.457974578330757 8.157453536505985 0.352359918062219 0.7381066391149997 0.8521790301820872
Ni 5.835387296290229 2.345736640217955 11.494463661162502 -0.38768199040228074 0.19585198353874012 -0.4590031065447708
Ni 0.955725016781715 0.6607014379196571 9.766900018923243 -0.3735627773920792 -0.2627942538872442 -0.18099460681093346
Ni 0.5261193715134516 2.7576575145869375 8.671221432364746 -0.37498973964659293 1.0710195041962005 -0.012230223517604744
Ni 9.292188283068112 5.817886110776792 13.51594284661017 0.7761124289348118 -0.23067603319646077 1.5860199520421976
Ni 7.790478464975823 1.4781885229719922 9.874910663468711 0.2828511725381193 -0.21549495458064824 0.5532553775621375
Ni 7.537643180542882 4.1082122586494325 10.736605482194447 0.10730421910531844 -0.5015258103983298 0.4403099010106417
Ni 3.10395360280809 8.73527223010298 9.78419525331855 -0.31110965316318034 0.6364092246734976 -1.1182534974824998
Ni 0.1633099176214732 4.137157243848972 6.289458256962341 -1.3322361291836797 0.39802759530266285 0.2988904853891691
Ni 6.992515732303255 3.280875864241852 1.9641250607179306 -0.45949958656521506 -1.0597125638238136 -0.5264606259667965
Ni 3.7531935348369183 7.972293230347048 11.825178289224727 0.7263304724156782 1.435341222605986 -0.8173943184027342
Ni 1.1287891893962205 8.147044151938088 11.751825210666729 1.6929071382147551 -0.6102626481851168 0.4746708949890148
Ni 7.606455083541403 5.9426868969301205 6.4701808290736205 -0.2541571470375365 -0.523786164458427 0.10823135890527812
P 6.813226430869274 4.222445236297842 3.7669922597515866 -1.351787054732414 1.023551283411908 1.9819487558343025
P 7.441647593762309 2.7515442144288893 8.090948099649411 4.324475189654927 1.2967068259288184 -1.2397646042158197
P 4.906808687070091 2.0240521765660184 6.417273757446657 -0.6407487325891158 -0.9962847343864714 0.7749418056654783
P 7.845088127973025 7.633843786536074 0.6609148442818816 -2.6606834807488884 -0.8570911227717238 -0.9231139666297521
P 8.444331329288547 8.128359446424541 7.5740704350974495 -0.6277080973550737 -0.37089448653129675 -1.338816867724991
P 4.69357006783768 0.7459008993448962 10.439089987993574 0.2423886936476987 0.5918103550172001 0.35403576310274515
P 4.31439635315678 8.024507896178672 2.385063984725546 -0.004365990278179578 -1.311206305096574 0.28871971550375436
P 2.197498430440402 6.921709551509275 10.164406178834193 -0.5260790742576618 -1.0922668436107512 0.12379424634054163
Ni 6.618644559985054 5.503973739094081 12.460936344212932 -0.3868430394407531 -0.2103337220946829 0.0662537289219117
Ni 1.5181579503772809 4.9757976521158715 3.5783317164899624 -0.56718458604872 -0.4821324934733826 2.8176431580978054
Ni 3.8092942466531547 7.085175097351235 8.091616275901442 0.0720255984086824 1.2588930975151544 -0.5789113875673448
Ni 9.257381612198737 5.326100934038184 8.454027806139841 1.2302744053371975 0.29733265398374603 0.38641777897787644
Ni 1.279962901536251 6.677531669281863 2.2780355685896176 -0.24689583748943283 0.4581261032564562 -3.9154579281099795
Ni 8.326100476994096 7.425385842579696 2.7059162567553585 -0.35833901846378935 1.36450733051256 0.27574850005506707
Ni 1.1713772712899415 7.6198186085820145 4.263628936585134 0.786254145354504 1.4618747501201403 0.7213767279548285
Ni 4.255583796300921 1.2392013544458498 13.02349322124158 0.21008201109519303 -0.8564712297995379 -1.163658150869544
Ni 3.2774278138478303 6.372882438387415 3.3521368149256388 2.0153494427819356 0.4132346420604044 0.10922894693185704
Ni 3.0773011051678187 2.721602090331619 0.6170547113644206 -0.6020420600475372 -0.2805307519350588 -0.21262071835664673
Ni 7.016680042226761 5.022569989758013 8.707611410698835 -1.1251661654419332 -0.31409624659533003 -0.9909219274126612
Ni 5.600565745402268 2.093973047123696 4.348506890608768 2.359748197015549 2.3588377693861378 0.1844180306701856
Ni 5.773601960851417 0.13123186609093362 3.440301599689736 1.4852586762617195 -1.9873817539244159 0.8527449299878863
Ni 6.274724830819239 3.790777284131749 6.571111787445203 0.06255159747997614 0.14429288051452568 -1.0005185699621608
Ni 0.45668775134951994 8.260857772106144 0.6574220624232894 1.8229165122270734 0.9614843388778344 -0.4154542754195425
Ni 7.9990202804282715 0.7294387884772249 1.6015765403692837 -2.082984625432406 -1.537719208054281 0.8976011670706283
Ni 6.166847448761971 6.5977885146287845 3.8159573710632224 -1.101892025405341 -0.6811212228688914 0.6276908709638932
Ni 3.4012128229931906 1.9346358426994426 4.450188032917429 -0.19876967140616733 -0.3222348165420644 1.320237819171223
Ni 2.181889013116117 3.030211919651632 2.807979480323897 -0.10849232587614864 -1.2152077408120618 -0.7943050406834384
Ni 2.1449855548449714 1.6458756007828483 11.768438290227328 0.23317977345492097 -1.391034687379127 -0.6817349451934904
Ni 7.070413714042777 0.046280291531859204 12.976818733678188 1.9117869501072362 1.7103045077555963 1.8438059540815728
Ni 4.6753140388596055 4.874210632263913 8.123287084723282 0.04478116087043255 -0.3930748792830779 0.250109202220408
Ni 2.530356441179991 4.917711981559293 9.321355993684996 -0.5333121016709912 -0.6621199991760404 1.8938913007737381
Ni 8.186193502492907 7.231698600986897 12.090981970761232 -0.012484762730572047 1.9801186446040995 0.3954312953303964
P 1.2646516939757733 0.9579243137897933 7.458926053858404 0.6734487939252982 0.21182239082506746 1.114164929235423
P 2.6039117432340695 7.29638216256771 5.999035495612522 -0.11874202862861487 -0.3500634087185584 0.6238766394241255
P 7.989039572395849 0.42454912596070704 3.8104470137713724 -1.2167599157905302 -0.7164841757492177 0.5391436207511038
P 6.508707666746491 1.9595549960875847 0.29466106761792976 0.16635371696930706 -0.19838631992481962 -1.3884152474784088
P 7.456632634393624 6.410633930674387 10.320713758439268 -1.013555862762093 -1.0843499027565195 -0.4226680195591624
P 5.50371280555075 6.381185716498422 6.525774584291384 -0.4378773803097491 -0.38899068191137526 -0.38050604147913175
P 1.0820354898643174 3.42014914299495 10.776814409316293 0.49469104686468357 -0.1804652166700247 -1.0669841577845625
P 8.901030263504207 6.1503061259257885 4.445250797515395 -0.1426111219367286 -0.38918917107542655 1.0827373068537611
