# total energy = -381167.73106075154 ev
CRYSTAL
PRIMVEC
9.25897887270553 0.00000000000000 0.00000000000000

0.00000000000000 9.25897887270553 0.00000000000000

0.00000000000000 0.00000000000000 13.55145149212969

PRIMCOORD
 96 1
Ni 6.261273230601475 7.177773236118893 12.863620385062584 -0.17692172229314046 -0.636658364569826 0.21749784394328991
Ni 1.6109974790118902 8.439892398134305 3.424384195490099 1.2335859862089336 1.0745601703596075 1.0272757834513468
Ni 0.2567875890591452 7.885742523605666 9.844208177159718 0.5154326502874091 -0.7198332947271087 -2.3579800493715326
Ni 7.635481588624302 1.0454035068238117 6.390335986341319 -0.8290586421145401 0.1462831714716771 0.6402645938638457
Ni 2.285236307135124 7.030157338882298 1.6401725208605074 1.0024294138316283 -0.23373127508301683 -1.583957413086214
Ni 6.602957321156704 0.2419639641782705 8.381613608572975 1.1318266081812443 0.6878086621913961 -0.16589657482723041
Ni 4.779938489148466 8.122337206042262 8.231178352325621 -1.850312130631207 -0.6559727486277219 -0.596602634199521
Ni 0.3069110701913222 8.19088142527594 1.606687424432223 -1.263356789713463 1.088995629058647 -2.2684704352454736
Ni 1.2685171162894195 1.832092631123325 2.373793808804784 0.5019055623352517 0.10494600328578702 3.0749540202729753
Ni 3.754876958504094 5.2943303091871154 4.933269953929698 -0.8142357181690945 0.39847702413525565 0.06585469371128012
Ni 7.551808198213019 2.76257369446093 8.60404668310495 0.48015377248045693 -1.1020411493886957 -0.5176749093543664
Ni 4.825001938427179 8.89723039149216 2.7278395618075173 -0.42512470862977103 -0.462776457544274 1.0110140701768457
Ni 1.7110500027237776 4.193530332867818 1.7395185844984347 -0.41163850121787815 0.7008158730843415 0.11382427961202332
Ni 4.8603619780399585 0.06543875778143049 12.641118794088309 -2.2690777298121696 0.5032541059433462 0.8936912904932609
Ni 6.819561868604039 0.657497668755895 12.05572357007622 2.204409343099507 0.3580608251017382 -1.6508446618270665
Ni 2.6303184428691653 3.5006994755373406 3.9449897161268455 -0.5351062174569364 -0.24798958477424388 -0.3197673288381783
Ni 4.4866603391786315 1.1366877777173432 7.939822366331596 -0.7682376541724253 1.352826551740522 0.03685419271387201
Ni 5.096808516817533 8.871277474227268 5.9723412452281925 0.5064291612372182 0.04899802716525755 -0.1584555451681529
Ni 9.055114496094706 6.440341878444147 7.762040716526676 -1.2040666365935782 -1.174164706827823 -0.9647632667394223
Ni 4.133430302198387 4.561028456007604 2.199550014756881 -0.24715166225398083 -0.28266091090418416 0.1878262850207862
Ni 0.9976642127040177 5.726696837021098 13.449137827593363 0.5887983076637536 -0.41029638536768687 0.3638352656916702
Ni 6.300929436325889 5.0246810728312665 11.107989325849783 0.7870151918902446 -1.2203219221101758 0.9178794577036903
Ni 2.6054858620256267 0.06918586645681463 6.1982168080366895 0.9187430912555662 -0.2858753040764238 -0.41417180916269314
Ni 0.2939762769629762 1.3862079944035972 0.5373920489996609 -1.4297069071383444 -1.7725599141513926 -2.872041273232712
P 4.224853457772252 5.457797577939047 11.196235725835498 -0.932600823074265 -0.4326469851487452 0.18808133845438577
Ni 1.0604586061719081 3.0636479044867913 9.529082541075635 0.3856847574665938 -0.8988229552928714 -1.5268010184798804
P 0.23844647817437026 3.5754101745778013 13.272033935028468 1.6570335642465979 -0.8989291418534324 -0.11186407056185896
Ni 5.314764875153442 6.405546636531388 3.305998893974256 0.3638933726231152 -0.8251341102491532 -0.48426625198693374
P 7.358091846084561 2.6299943786150557 10.896464254111159 1.3287949647126147 0.2646541899141184 0.586399468414274
P 4.672182495167442 9.25685838274641 10.418721323518781 -2.112814307199329 2.932611835726917 -0.3696904389208665
P 4.779734791617312 2.1226301234012563 0.5113900591477181 -0.24736660647826428 -0.21733432178223216 0.4971911875787179
Ni 4.349405239094879 4.284499798485927 7.206485329033066 1.0630822516269949 -0.9115293471159464 -1.5232531532276217
Ni 3.932140105502437 2.190766947572622 5.716015679205623 -0.2255150578208116 -0.6002944812288112 -0.9035399011525664
Ni 6.376158638172926 1.408364730406054 1.8892353439995313 0.2519174590737403 -0.9688227815207766 -1.102801167483172
Ni 5.62101485426638 2.590310395954575 9.756733050098786 -1.6810720932530403 -0.32695201951207564 0.28508417563369615
Ni 0.988377457079085 2.1973223044843397 11.639029715468881 0.17797741725116445 -0.6487739168864375 1.0868703551855283
Ni 1.7546968282630928 7.387840944611888 7.437239447712726 3.93057601469834 -0.002483685653802174 2.1293243890392097
Ni 6.80476602065923 8.091828871262448 2.235677623702968 1.324776587581841 -0.10262712534462325 -1.1564948003518856
Ni 2.28012535089887 2.752481407690066 7.216350770826053 -0.0878391684021713 0.7097589412102422 0.25686631843858343
Ni 3.4984588026946346 3.985471822750306 9.412133307154434 0.1195462696974651 0.5260369081658166 -0.11323935364283079
Ni 5.332208791003267 3.7733949158818265 4.534979245364348 0.8259789747479518 -0.4436068265943586 0.5113803345949063
Ni 5.58868250068486 4.967108743343897 8.970166144317966 -0.1816109002386937 0.60161551403308 0.12846722633617874
Ni 1.3752083277212244 6.975307149129456 11.581910150039397 0.17553461213762675 -0.8632604848072294 0.016553790593623104
Ni 8.54960203661868 8.408976668292182 3.7347933078300746 0.5878058618434973 1.4956263926492885 -1.4430810144524049
Ni 5.7591125214108185 6.269356318996856 5.844903440248246 -0.13647981222801012 0.45329268642355486 -0.29425067262431254
Ni 8.56471268983891 3.2437165220278597 1.6319061046870875 0.4939248581226204 0.5770223980747482 1.1077536263924406
Ni 1.8263705822936058 5.986531555966749 3.552187730128256 -0.13215058872503693 -0.09122891081001062 -0.04588133591314679
Ni 2.42490800065667 2.3949644635768768 0.3009834720347101 0.36151947307429994 0.5516504949688628 -0.5050765038640657
Ni 4.012554335415239 2.722852675885694 12.149282772033606 0.8330605641850816 0.40367502339642736 -0.14716043187030786
Ni 2.2193308968277745 4.384033819391239 11.264494768525555 0.6200158709171386 0.0826617379662899 1.4528468355899171
Ni 7.68310977499983 7.6925631922411615 5.502092531986583 -1.3470402840760478 -0.25832464815166484 2.34521837883049
Ni 9.150815299822828 4.403848033785413 3.7953275846000127 2.3332861461692787 -0.2786456190972039 -1.0009554003892633
Ni 1.0756155542855819 5.339986333101915 9.47850814768131 -0.68472950904544 2.1892079527687196 0.4691183406019017
Ni 7.9048437966407965 6.6998525331356875 11.151625040614672 0.7442423196990925 0.3348705030282039 0.19309293273636424
Ni 3.361111112823994 1.8453977834992257 10.20742772624738 -0.48010594996165706 -0.958348364352014 -0.6022004400022726
Ni 6.462785642785959 0.7393711137100628 4.183360270675967 -0.054282929713280706 -0.15371006006336754 0.3785466037599158
P 0.37560528487975803 1.5546195577753839 7.646921056794397 -1.690562806352295 2.105778740508786 -0.6416514469090433
Ni 3.8279210413805593 7.536975314353455 4.296297589131281 -1.8448228253818615 1.3587462596590665 1.5979449856145578
P 3.8280136311674484 6.5115989784336605 6.804142891393469 -0.47014498209420325 0.49578890791455266 0.5161754419907046
Ni 9.122964291926717 4.456179781334884 11.22240437730384 -0.9452293104715529 -0.6808828816058402 -0.015640020530102095
P 1.9320710830057017 9.031948531415162 13.523684642711032 -0.8583954434054443 -0.5291309737101081 -0.46113557950674133
P 7.382461477993656 8.435096247173473 9.995224897268733 1.0043196888758057 -0.291910197416594 0.48960874724576975
P 8.56757371425377 5.677022416355332 5.557423262733379 -0.33745883258067044 -0.5646970437401758 0.7766150796028432
Ni 5.671207777738723 4.213733424366923 13.239550660094318 -1.560807714442628 1.8360039415386509 1.2987608802443695
Ni 3.6574539847398446 7.306547111723643 12.298795834003549 -0.6930228594024839 -0.6061164872272271 0.33051222605950825
Ni 9.189017845893089 8.864194355530286 11.865379337986248 0.08273218619290912 0.7492431153477935 2.2297817604260244
Ni 6.490997750850934 3.631214039135598 2.484753409412156 -0.8899120259564868 0.9897600458940761 -0.43188182484794657
Ni 8.8581945373399 5.993781336280132 1.9518158550597091 -0.41926130787045857 -0.5859191863437457 0.07848112422603903
Ni 0.7840105017648245 2.9542160353630815 5.407950940269668 0.32540164430582025 -2.3881599153890227 0.06561301001411925
Ni 7.1632921934495055 2.7040013952751627 13.341512385211852 1.346028812092398 -1.617756621023846 -0.6410166415385218
Ni 6.67247373315271 6.952372658917134 8.045726564574846 1.0601110848138129 -0.16559806975020513 0.3443231638006715
Ni 2.9741506164802107 7.188041443484845 9.394692168998217 0.20328529988833377 -2.4000378977735313 0.2576049963768208
Ni 8.019479211787647 5.075975814767585 13.10768150791388 -2.2621653189630524 1.3027854280227305 1.4761289460463094
Ni 9.14270443449138 4.013146910051327 7.472134686595326 1.7674979262474528 -0.49318772284627965 -1.1006049311628012
Ni 4.286342335245012 1.9662552323249958 3.18174525176541 0.16229163108479147 0.02919899016145939 -0.32849005342315685
Ni 1.4549651701471176 5.005172404733825 5.587669568416297 -0.2858909878057076 0.6132677535600277 0.41661924226192115
Ni 0.40663212246614855 0.5213462389318558 5.477035883858774 0.4428411520729277 0.045629110693024645 -1.2565809044422103
Ni 7.180532411768175 5.384799789956027 3.8676790958705505 -0.19452863674162627 0.946803596937208 0.7554261042300537
Ni 3.2197542851810743 0.525909989527598 1.5553815717214776 -0.38381607968897125 -0.3698457335518082 -0.9138387119754132
Ni 7.81947601312945 2.9290779082228102 4.918147264037172 -1.6615944441444028 -0.36632332222084657 -0.36637654405628517
Ni 2.3933904371997694 8.908767078938489 10.53340766304842 -0.3400222224324725 1.5560632577791074 1.5313801532101305
Ni 8.921470397699611 0.994182836717004 9.762167144691281 -0.6612748775669257 0.12567038031733196 0.21108551265904293
Ni 2.256644580943905 5.0169127897113075 7.673685060592432 0.2871755109450861 0.9814461267117419 -0.3055434719293125
Ni 3.3388062331625155 4.7468561582931486 13.400609668489277 -0.1675035143030341 1.1160991701436584 0.12533073758972607
Ni 6.9224939346881635 4.491632410734552 6.978279281288582 -0.4820689872252988 -0.11971056318947126 -0.8842417150445867
Ni 5.352263738843351 7.381192997913282 10.474201123822468 1.3546270952843702 -2.3364691718829502 0.2299396692510685
Ni 9.232988735686513 8.7042640166375 7.550584161230351 -1.5734770823801802 1.185845999820493 0.2501763080129175
Ni 2.137314863601798 0.8727272578679334 8.424923407288015 0.10756158653176313 -2.4984779816200002 1.5830050764752739
P 8.255907232607846 1.5398237098305758 3.1635050637483437 0.31566821906814024 0.12321369124672327 0.319970703098236
Ni 7.904528991365375 5.023542218452536 9.18937431657261 -0.08131422279945996 0.4046384157509612 0.9913785553341055
P 2.2818012260415546 1.1605296478411735 4.301284475053104 0.589752444046907 0.7735133007490679 -0.12186669030052562
Ni 4.613591678024298 6.795479265034297 1.1316138573958445 -0.5329354350578628 0.24712492278110343 -0.7493932677724127
P 7.5210498710086044 8.681607295785845 0.15061210274031028 1.2651581045882598 0.7218536675912471 0.5336309184629906
P 5.839610082131821 2.321550021552857 6.658356568345797 1.1872315673141103 0.6813477370574007 -0.2118650711375448
P 6.627780643021553 6.0761214337602185 1.3666095142128742 0.8579827813480578 -1.649236179689366 -0.225389845096857
Ni 0.8676172275295481 7.288630987960687 5.548167061738119 -0.9452329100159784 0.7722850847689214 -2.736361588308494
