# total energy = -381164.62085889647 ev
CRYSTAL
PRIMVEC
9.34570326787654 0.00000000000000 0.00000000000000

0.00000000000000 9.34570326787654 0.00000000000000

0.00000000000000 0.00000000000000 13.67838141070593

PRIMCOORD
 96 1
Ni 1.2361468462994198 7.463684360548091 12.283008479031688 0.712815982869011 0.9984141220246483 -1.0933634191090396
Ni 8.819035654031273 4.221566385438792 6.117341390596106 -0.7067327527894086 -0.2139090981507671 -0.40949702939484317
Ni 5.290658783019297 5.808392061348273 3.9550633720058723 -2.065731494778914 -0.05764207599350073 1.307627329496064
Ni 4.980493577755894 5.801364092372797 6.45430820414125 0.2493910931074608 -0.5562103464254033 0.596694679692695
Ni 4.042932610176507 7.361788156107121 12.992301575029835 -0.07398760723105968 -0.39037033586772124 -1.1363250102722302
Ni 3.280753113067564 6.3998535939957675 1.561441810837288 -0.22075260343516176 -1.290031727901488 0.4104395958137706
Ni 7.238462253713006 8.872689337393247 13.565877300462882 -1.462511612373191 -0.06455731505609527 -0.72339890059118
Ni 3.3350516499658514 0.9291059096909383 5.184626170242496 -0.9688220101898283 -0.3330619890645554 0.01763365392136318
Ni 6.8993347135360406 8.82678324217046 10.964536265833244 -0.3553516537006913 -1.219172896107397 0.8647167576377818
Ni 2.6844972345631297 3.006774471465119 3.080617677935763 0.03840816746455321 0.060564648956934405 -2.896523574644792
Ni 3.465882152210108 5.509647305670017 10.977174460574648 0.8288359845807726 0.36720906725990954 0.2758271758118024
Ni 5.053044273442882 1.2549784387004612 11.243164394889543 -1.7983635054780573 -0.22869679798290293 0.5369417280037785
Ni 7.139855736877578 1.4060423888594844 4.028283220058079 -0.4728947769251985 -1.8436714853862377 0.34628851505715846
Ni 9.329189566882707 3.390396905647721 9.127378447126834 -0.9637937037373014 -0.6658275299346146 0.262056090169639
Ni 8.953716586086562 8.913959963717316 3.7464672715635685 0.45505183520650666 1.178741270454912 3.143131962800793
Ni 2.4492191508429237 3.600656541299645 9.937179910607362 0.93149936247997 -0.050265323913455374 -0.9114018203991465
Ni 7.031324083004977 4.402929106101128 13.507798426529249 0.5987250798591623 0.5643936535671441 0.5916478612974069
Ni 8.414161090260597 1.537377559088682 1.8891619854139008 -0.07678368191895808 0.8794990581532788 -1.873368241119722
Ni 8.156612195279012 8.357993412677343 8.45639993145948 -1.8740994628587917 -0.17102104053798933 1.522090243267772
Ni 7.5274874778294345 5.523749972138091 3.3524888634159073 2.0244904858512554 0.41983517809605764 -0.2546636543603098
Ni 0.18042815031985274 7.222079235609272 10.039754613116976 -2.485783416871467 0.125808448557093 1.2101460100184385
Ni 7.079482492753148 1.7746649690452272 12.04567527512836 0.38087088101771827 -2.1187157602854287 1.8547981914270186
Ni 8.494898622147742 3.25105246758344 3.527791829977581 1.2868661856893127 0.5014530481788655 0.14446900108107377
Ni 4.769878805373826 1.997859058237122 3.669239985882792 0.7628262533488669 -1.3825970981347349 -1.274681984918295
P 7.889063397632853 6.907643043880719 0.9097285282098867 1.0744799519409753 -0.3507087556120412 -0.06171290362876468
Ni 2.138895068621298 5.18555700230361 12.83323583359847 0.1350605632829803 0.4048975829496188 0.058491568477989586
P 2.572834770043208 3.736701946054959 0.6628328005622692 -0.37307349646048654 -0.7958183920041714 0.6514550632630265
Ni 7.253406033489316 1.428799176698956 7.652001219128846 0.4051294964547668 -0.34572107258946266 -0.4060239832445782
P 6.348536336490001 7.357582589565945 9.428248415763898 -0.38619743543695423 -0.0992900905515903 0.08845057673392509
P 6.996408535009796 3.4403870732671598 1.8507670320336536 0.026056587877735772 0.28507491966231546 0.23461547746018305
P 2.0208681800690647 8.183387635591162 7.7809476275626555 1.1214830601633912 -0.2450590413910102 -1.4130009072375729
Ni 7.2290885131778975 6.239518706039308 7.6607693580820255 -0.24715320491587756 -0.33571433908573795 -0.26197098665500046
Ni 0.3202230512892105 6.984287157667786 2.953121722673487 1.001982813212513 -1.4949085406466578 -1.7158717174307287
Ni 8.628243118613279 8.472852107768556 6.312723600966035 -0.019162174750747645 1.147979563792023 -1.2621247170785748
Ni 0.8113341588422028 6.305349840963842 0.5687664264506263 -0.9314230007160799 0.9627966299313548 1.7975510368790912
Ni 0.6102996670409327 4.88052258822044 10.953306468597962 2.0122093544910573 -0.8021343069198701 0.694598688530036
Ni 7.383273928280815 8.690691108898022 2.2490407254753686 -1.5798073954735825 -0.6354484034221249 0.2955395666390652
Ni 4.158445504507461 7.757036645350218 8.007516450261258 0.6236460114705582 0.34767691076425283 0.10979664650986896
Ni 3.118371516061066 3.1039230585662723 12.2622180271928 0.15306599872146542 -1.0035385877354073 -0.10847227127149062
Ni 6.357293260599071 3.5741708177936644 4.368751868676509 0.04461146806178769 1.4104742841609772 0.5713870541658418
Ni 0.5459077704438238 6.560169790545377 7.764888905367763 -0.3657039434692927 -0.6465622539470993 -0.4462355224664573
Ni 0.42829863483468034 4.162454811276715 1.6349766090949125 0.8226550525810413 -0.23676697658554707 0.20984315561150954
Ni 0.8397310786985621 1.4480232886438404 3.045053538122898 2.057813268373101 0.6814906903931682 1.1919307725619923
Ni 5.350452593531388 2.6747216287807527 13.273268933653371 -1.4335399077311892 -1.657902340004796 1.7953452874770242
Ni 2.267660170408666 7.229967009299832 9.776062787274245 1.6197973056029586 1.3344850731188564 0.6726180704938868
Ni 1.314127395676238 4.756925660427005 3.969397811918883 -0.9471571236218849 -0.4301499297585043 0.6352447720517512
Ni 6.1934350424514495 8.573617482095122 6.7856395585212175 -1.2287003759818582 1.7502501949105989 2.3985212040186887
Ni 6.339414929947363 6.684327460544301 12.202908324118118 -0.32607912998881905 -0.38674996550631463 -0.29830324542713144
Ni 2.3409491766662174 9.080668621409512 3.0339330856176874 -0.2548238340872579 -0.8777507080036046 0.08647519817510914
Ni 1.4562194705474203 7.93096953178981 5.481105527410572 2.798375053896813 2.1080924762436273 0.18237066122285367
Ni 3.6552167578938284 1.303071428524659 1.3846351205945586 0.20162128192234952 -1.2976391079351006 -0.3223718563405609
Ni 6.327387009639601 1.3821828080158822 1.2681409274039979 -2.1276318318281358 -0.39914705361908676 0.20221469253197433
Ni 4.503124392518778 3.4344712429992397 1.723394440056586 0.8820218245751326 0.7192427123309613 0.3839790876293968
Ni 5.734962869539349 3.8357383652479293 11.553855763255767 -0.11647148742688329 1.9069681885623546 -1.198607927471852
Ni 2.6985531725140803 0.381114981953719 11.960828437445317 0.08932089515402036 -0.9253081460675936 1.530955406967886
Ni 6.571515474503125 2.621376353631798 9.727381018134283 0.684905372501672 0.5159558697807307 -0.1283201592353532
P 2.787627071856177 6.2557615385916705 3.9448999195313648 0.592489897582728 0.8881716462266123 -0.7969766739783307
Ni 0.6559917456552905 0.336899524480485 8.365205492010288 -0.6320190660256019 -0.032799048807891897 2.7474265878734037
P 8.383712788502487 1.4263692938084993 5.815199471722923 0.04580625970083724 -0.3325274567173241 -0.08712568727491446
Ni 9.314142984368726 6.540824184455969 5.097276553182282 -3.0526610132027296 -2.5105197432758826 0.5408282075423783
P 4.539338993290011 2.631535133254593 9.097778735239698 -1.2969053150928698 -0.4889016938764161 -0.6393780774938344
P 4.925017482226076 9.346918366279619 13.61332730589145 -0.2923102610684901 0.40845753238673527 -0.1339588455783693
P 0.8414918092238008 9.238882034688533 10.708928473452994 0.19419593599255588 0.43613314392513275 0.6582414900572405
Ni 6.611253405465521 7.587860721953865 4.982295429376202 1.4127018879399154 0.3699462636854145 -2.843751168038767
Ni 3.4615550915244095 3.8827659448816956 7.232403434182687 0.8395083766929542 -1.682937428596553 0.26236410832836105
Ni 4.4442277695354715 7.929427490724712 10.672283970324221 0.5367944037926369 -0.014641404062258655 -0.495191897760502
Ni 9.171396710257804 3.121894846252229 13.235927241049104 0.31466857415903227 -0.2744745184386499 0.30623458445906615
Ni 0.9909623169488898 2.1763806850583087 11.220731902958915 -0.3283360443437959 -0.6372574316064058 0.1609034924880132
Ni 1.200717284615873 0.831333029601006 6.338083167209324 0.05318558288404388 0.7689565346163209 -2.750506512350308
Ni 5.27191130194908 4.765822770087447 9.411547643743718 -0.4513337629249711 0.8554528158373526 -0.3181457340743553
Ni 8.720307643051322 6.10366021535249 12.405512894094759 -1.4707566259908025 0.021542502057466124 0.6055572722896474
Ni 4.057315647747328 3.7628325328307963 4.952545251663926 -1.6930593475219036 1.7609773515201157 -0.3263791777277411
Ni 5.582730706452221 0.3892392019409275 9.129389642503858 -0.08809859271114505 -0.5167251438465875 -0.8433933135696571
Ni 6.464105305041503 3.739748645371455 7.664461845505177 0.3749480877753801 0.5059511931595351 -1.2089260215684081
Ni 4.624936290958069 4.9151671108163 13.558203543380749 -0.8429441418473804 1.0320276963140356 -1.2503380088562919
Ni 4.443209087862165 8.004426760709007 2.7888579009972276 0.6476272048765039 0.5872263351909435 0.5421204439912406
Ni 1.7784032504151608 2.294080473990673 7.9803101730212225 0.6535870220043647 0.8837267230813812 0.16714253141918956
Ni 8.106565953439024 5.345611519157323 9.890659802669566 -2.8629369969385983 0.08281420438375416 -0.436391539792842
Ni 1.508938583566911 1.341669183669225 0.2815533342282733 0.5091355044247877 1.3993457783479835 0.7254670959741183
Ni 3.6984593276405366 0.802923025759852 7.5318500521881475 -0.0074297168051678485 0.2762637491285887 0.22677978346584815
Ni 2.3949019225377866 8.283844601704706 0.5138164940236274 -0.6263294718399923 1.5053194515673365 0.9340162153645526
Ni 9.125378466593919 0.28919905420013026 12.987171718419946 1.588458129170045 0.6710489262345539 -2.3634780963716264
Ni 5.195940078808601 2.2640807659969546 6.118134840816873 0.9882520938899819 -1.1091967865968704 0.9372172388003536
Ni 0.24232754781355834 8.907296477175409 1.5217066835859197 1.0799664289768434 -0.7055130214496946 -1.0307514007047733
Ni 5.763756981791264 5.522021017004498 1.8761677193720112 0.5514291229866761 -2.391899584937113 -0.7067147550672797
Ni 4.009904894273143 7.586271952371643 5.179114074362529 -1.1045518316256913 -0.19169553816820534 1.0972437280000522
Ni 8.19167727452899 1.0055229228847817 9.994369073574953 2.0463708308641144 0.4664940156051772 -0.033760384279896694
Ni 5.7924950198226295 7.391778518397414 0.9271517231048054 -1.176232130879813 1.0888187371611506 -1.259871916488656
P 8.243050606255304 3.2009688429297527 11.351853056579682 1.5407875625669594 2.677831710393401 -2.4525555080562733
Ni 2.4380697266570963 5.8523449045552685 6.160182095095546 -0.4305049991050779 -0.6878649693506282 -0.6158013186151589
P 1.065494301761944 4.344172668669194 7.557689053017129 1.47821359648948 0.7549355377468805 -0.10266672033330707
Ni 2.8740935199427446 1.0257002965789992 9.826043609190261 0.2854963234704503 0.3554185023828847 -0.8009428577149303
P 5.1315014536943675 9.227284016738313 4.6472435504628065 1.3902343029650186 1.954327394572608 -0.818481637929642
P 7.028445606350128 5.645945044417802 5.483198030407393 0.4914167469887859 -2.3063502410103824 0.7850285004775189
P 1.822085068222837 2.6097970270884288 4.825090417496719 -1.2228323472368554 -0.4894544810560926 1.899165404688484
Ni 3.1087921700506107 5.723748025429548 8.382071682981087 -0.19751574439440822 -0.4976645276707107 1.040098646247628
