# total energy = -340891.84921817627 ev
CRYSTAL
PRIMVEC
9.08510154283010 0.00000000000000 0.00000000000000

0.00000000000000 9.08510154283010 0.00000000000000

0.00000000000000 0.00000000000000 13.29696444406978

PRIMCOORD
 96 1
Ni 6.513091196763962 2.0957875871243856 11.483471264578563 -0.31080060656319375 -1.2450973292826428 -0.11635141690925123
Ni 4.678436686128263 0.2772109808640835 6.0144036080774095 -0.36017170079715394 0.2918189232543684 -0.9053363309313568
Ni 2.510631498289762 1.735245328471721 4.638100651859242 1.2407619351320827 -0.41302072627738545 1.5988384439631045
Ni 3.4138995588170107 4.4884853810026515 4.989712255598071 0.3527692376854957 -0.6911937766135451 -0.628520308843724
Ni 5.274046864659447 4.268934814728233 3.1822430946049662 -0.4455639503207294 0.31574612349392717 -1.017932137452918
Ni 7.22214703949562 6.416334864279373 2.796218942867535 -0.16806118657871705 -1.3516908954741818 -2.103881523486073
Ni 5.407234454727434 4.449601145975981 11.602040017594817 -1.4195726469178198 1.0551097749444798 0.7462724627552438
Ni 5.670765998049542 7.968270096925599 12.509066584671256 -0.7697790305176162 0.5841135005935747 -0.6651747268419641
Ni 1.910787662393525 6.408330889732996 0.35474051274424584 -1.4403566735427065 -0.02805073548962911 0.7733029845104746
Ni 2.4969493352172933 1.5908103825712536 0.06047407056811378 0.46589597700986213 -0.6975048064332375 0.9234003875219193
Ni 0.5997538933899837 0.0021095606012132718 4.695157815699895 0.2541478910661558 -0.7979408376638129 0.5120596200501182
Ni 8.612394718223703 2.5543671775931243 1.5678586902937122 -0.7430534415973139 0.042370237436094776 -0.6310528454575907
Ni 6.987269906751576 0.6140138689268673 4.728918961910785 -0.7356885165918103 0.053772822846081585 0.8014750760693164
Ni 0.5176845362194413 7.460685468201286 2.4897103262291504 1.1581739878265214 -0.29545292046252986 -0.15243916377074393
Ni 7.804583820646273 3.9702348429509287 3.7477625079885253 -1.7970435011150534 -0.38357233910928135 -0.2885968167726449
Ni 7.774802857464631 3.7820097071372487 12.570857086467258 -0.46507065289508936 0.2446057559036755 1.0264052079209356
Ni 8.039488208695241 9.047253108305844 7.091417877931889 0.08247559009741279 -0.26116340315204056 -0.6639930478290371
Ni 6.9602326442657425 0.7246059027016694 0.31618424988684274 0.09131092900085565 0.47646501077496006 -0.042095900728785565
Ni 1.9130407676006778 6.4994272038947765 9.162605735340922 -0.365896261985757 0.4366157399885061 -0.5978285361868221
Ni -0.05247463857255699 4.9926903519162344 1.3734565938738093 -0.48158819093413835 0.3131768201048542 0.41644363591600536
Ni 6.309839302834835 1.8896466308731836 6.998351913734178 1.8844460962004383 0.7433632595282488 -0.8550810343202305
Ni 3.6311061688678583 4.667207500499066 0.9753374463207218 0.6432848687474082 -1.0058806056050227 -0.012308642164023964
Ni 5.984301940807815 5.604998947264947 4.93027479512728 0.46515087131372146 0.27827049514597235 0.4487138088036208
Ni 5.380342553867867 2.927483216917964 9.18340244150904 -0.01741511015265388 -0.049542843925134035 1.1741557079667586
P 0.09824356362334176 5.530782751953528 12.411878709858685 0.7157454978109802 0.9613431853142798 0.655155137822433
P 3.9543631703827997 6.193023065925273 12.886114655986644 0.3509000456872408 0.17040448999991298 -1.4371757047115636
P 2.28429436108896 8.691871187385692 1.4393562871423733 -0.7927258691217767 -0.4300154610631691 -0.654791326725111
P 6.397483278372753 7.795825782663631 5.824948349501438 0.7398619312432098 -0.8350765661738456 -0.6037682987100247
P 4.888157172426313 1.1033219986784812 12.640120992873761 -0.7965174749537249 -0.4145248216267377 -0.1266484279598851
P 3.9059940892421476 6.238475829438925 8.238493726117015 1.2234784654612865 -0.8107004513223264 -0.3998785324684726
P 4.850499426121279 0.9585690742205525 3.731713675938382 -1.008312869195599 0.35845240411320206 -0.1372164332837185
P 0.261680908117684 5.485239137423459 3.654830094784948 -0.5670640013104556 1.0885508282117449 0.59210988853549
Ni 1.2976159823888476 1.3775194513279978 2.5519796128816736 1.353275209242166 -1.813760042538786 -0.7888401609141253
Ni 2.0370705752137854 6.646269701730307 4.811107333912834 -1.007755454030232 0.17861427950421496 0.37109348991598023
Ni 6.031090214262804 5.75815559074149 9.242134898092432 -0.7376027028953878 0.10879545893886425 0.6788511958877922
Ni 8.749007391610627 2.432172560511649 10.275110046248713 -0.07888812985647059 -0.1151144591783566 0.05873762305052464
Ni 2.382222671685333 5.158602478097788 6.965003231137824 -0.7627774023888024 0.8524363976085321 0.8848011870924826
Ni 0.5735488262145335 8.942538226783087 9.204451713502799 0.0842571074778678 0.07159956661485734 0.2862167465762425
Ni 1.4567597078473007 1.0399079892190985 11.108204781695122 0.286679545145274 0.010007247724356958 1.4535459185394708
Ni 4.002396102762708 7.0317959898977715 1.7049101740899333 0.14029481509872613 0.4073427020560017 0.2893259816291856
Ni 5.88911733090725 7.952589211491946 7.863292655965395 -0.30748079816134144 -0.22883872287740586 1.1104406863063006
Ni 5.036053542052286 2.6496608087133913 5.0169584754216645 0.5728888355223488 0.3293431454520715 -0.03229922635333792
Ni 0.6105960536892427 7.313316034470534 6.8763126518907765 0.5217135982001144 0.06338103535980696 -0.0574700691920107
Ni 5.334935215862425 4.48941206137011 7.3871815448585805 -1.1909470684924843 -0.05251992427558697 -1.3409328856267293
Ni 8.044212461548948 7.314397161565902 8.93149165169689 0.3800440142410487 -0.6914629711145317 0.32116883717139527
Ni 4.79991358018004 0.47261879803572765 10.493991040532137 0.18173457030075155 -1.3211202217761764 0.37735284056213075
Ni 8.229693896666822 7.033467648599852 4.691820857866881 0.5047869976481049 0.9771773241330591 1.7704246129759444
Ni 7.242170603514026 5.907096747056263 6.993871141604469 -0.4982507391914838 1.4839307014789154 0.19110855531648377
Ni 2.1097059628395396 5.302664934830945 2.788054162022098 1.5857121909937917 -0.3135419167537568 -1.0571728281210955
Ni 2.234780557141448 5.293071067497261 11.368571984115409 -1.1119185564034075 -1.033718453752897 1.2458267512494996
Ni 0.9439965711871929 3.3067589551559076 3.875559907252465 1.013948984435454 1.0026353591948474 0.2259187210171335
Ni 3.705631257635096 2.5975304954930567 2.462477734058019 1.1931561603286611 -0.8325712832534887 1.00377615766751
Ni 1.4497005838716646 3.345888487926905 8.520921372343789 -0.902501175475407 -0.1464163546154317 -0.6434571326592144
Ni 3.8793020606187 2.535997102073515 7.20486717617302 -0.6763065750890676 0.5348239103298273 -0.3908369910914946
Ni 4.190257834510718 6.941063079801661 5.9229066409332285 0.0076796280324448385 -0.058481541175660574 0.7669487601576727
Ni 0.5845390736705529 7.289313195933043 11.127790443814396 0.16414153980933666 -0.0896008882882844 0.14077509716925432
P 0.08283886527959833 5.448689773518718 7.919499454292382 1.2368829117926503 0.7502551015520756 1.2594988494199535
P 8.68020591687769 1.800467273157811 8.079355451719548 -0.027989029013758247 -0.908779552284951 0.546160161278253
P 1.9092704504193534 3.2005813722688297 10.668660296186168 -0.43308278713458315 0.026574922275051007 -0.24346624298259362
P 4.108391983616951 6.190597343786927 3.774556289750361 -0.6405800682217355 -0.24364776286578038 -0.23549967983734924
P 7.024400717161391 3.9126443836439053 10.497874012973819 0.834747464969201 0.9640718970993525 -2.18443752796327
P 6.366584847689175 7.73752668542855 10.297474840960199 -0.6311464336126614 0.5466005912497813 -0.18765324977803166
P 2.4346891336664123 8.595496429170057 6.029668395855871 -0.3021241618351184 -0.7466481009271076 -1.7209640443519716
P 6.8086204680682965 4.085243144633783 1.6721601996917697 0.5787895172774999 0.4433240052466172 -0.8864531208736088
Ni 5.324596370194119 2.910902906421779 13.716217667462425 -0.1268967965252653 0.7036674836005236 -0.3890613872483106
Ni 1.5076453621427166 0.9184310951673215 7.364909418183842 0.144513481165764 1.258004524262614 -1.2379095532849518
Ni 6.970017298733903 0.8841911640999116 9.20155265756892 0.04611196386671413 -0.5209607791944899 0.2491681784633773
Ni 3.0110298116154546 1.4828430346607517 9.273303156294768 -0.23110643586566004 0.029628364389394132 0.14823489588140923
Ni 6.279040808269317 1.9890103875289522 2.397629187049405 0.5984232323480274 -0.1342259831968269 1.1620308996787665
Ni 3.9350300740891657 6.60953863579273 10.739559520888186 1.9208547167364598 1.0526595136317745 -0.999539493878343
Ni 8.031893063722741 7.258260318521558 0.4004631037766577 0.039746940880634775 -0.7997035859911905 -0.22997823579848778
Ni 7.616685748491695 3.7438704504452014 8.246591277210303 0.6221144053173803 0.04905099189038004 0.1709390223471443
Ni 2.852703745304758 8.130966097125976 12.358384722881924 0.7393615945680233 1.167446671377699 0.4275749699424765
Ni 9.135523955857042 4.8559232318014 10.084869834890895 -0.022316918329645438 0.3788790473986701 0.06053919503563768
Ni 8.78513884083985 2.231310048314301 5.832141932981371 0.23112700469095032 0.31974084647561707 0.7519965097232146
Ni 3.8052766524417585 2.7632881749467 11.530449416657863 0.015833881708463053 -0.5376783490594869 -0.028782214339014945
Ni 1.0191939574759192 3.560133354842544 12.93799967146265 0.933344900329141 -0.7208493946964488 -0.7411677945388268
Ni 3.4940937510086965 8.393834428028235 7.953246972850809 -1.338259195449308 -0.3162883691506424 1.2135627490094711
Ni 5.591625677648298 7.962918972058611 3.6595243668032382 -0.8678270211319893 -0.19685419955100936 0.052388798014361394
Ni 2.958254456178556 8.587665071554872 3.6057514672060758 0.683821395408874 0.1384004262894907 -0.21344732802300015
Ni 3.4715354436322428 4.417430801062561 9.45321088155543 0.7901280264876134 -0.15419059924421188 -0.20493929055198898
Ni 7.322292114892579 6.10218113460946 11.361551926076832 0.12667979541845278 -0.0708968841208779 0.5661584587770507
Ni 0.5217037851857494 8.728402381087148 -0.15713319246513516 1.430907612314665 0.9773704139804714 1.0717286144480833
Ni 4.407210061715597 0.38111183727974013 1.4007555072869258 0.4260353933694985 0.09013593485614799 0.1922915198809914
Ni 5.994422744036719 5.893641711524839 0.34218399376518954 0.2017593501621106 -1.2981358450658609 1.0089299339543074
Ni 7.916385081449591 9.022877780601041 11.300305621869171 -0.14768853645963598 -1.164045101895318 -0.6323903333220915
Ni -0.19142581712206716 4.742813716361671 5.868588635237561 2.207879046815662 0.040010736064982705 -0.7968584032329116
Ni 7.877355484796653 9.024394992575214 2.532512965593906 0.5750439341921387 0.028099329339377414 0.09586846646455104
P 8.583785733153846 1.6356998697831173 3.7508341808535994 -0.4338091237776464 0.7779939622282407 -1.3247904715389118
P 2.01913658457298 3.3158258865943697 1.5982419957142011 -2.2899774560793147 0.2672954841917074 -0.5186663267333583
P 4.949363502186751 0.9287336004290607 8.242123224222894 -0.4300807670834657 -0.14074295837973827 0.846525945661368
P 8.714593026591697 1.5012857909934947 12.423859233393653 0.19406480973133028 2.114677585660313 1.1660263939914048
P 6.297810628261164 8.026178534790084 1.4507789854365396 -1.0368444009763886 -1.0852893838516533 0.00401194937287051
P 2.0011026578141156 3.1475425488843203 6.315659218946537 -0.6727620522709188 -0.5604601228406929 -1.4381388399557813
P 7.006739279569837 3.793529616018982 5.963781421729605 -1.9243218493494536 -0.0016457631335391012 -0.4556776417159636
P 2.595749815571274 8.407943590877865 10.238954975755224 -0.7209638087871261 0.45046370161519195 -0.8173794060043987
