# total energy = -381174.7750179466 ev
CRYSTAL
PRIMVEC
9.17186093228931 0.00000000000000 0.00000000000000
0.00000000000000 9.17186093228931 0.00000000000000
0.00000000000000 0.00000000000000 13.42394558032148
PRIMCOORD
 96 1
Ni 0.43851950422112185 6.279853837926672 1.5053609995253252 0.04613638934674635 -0.3801890244593452 -0.23624504264380602
Ni 8.867776902123234 0.029987398801351935 8.512768107437573 -0.760275204792239 -0.7266945406233163 0.7387453011402633
Ni 5.247203205216651 1.4908951407122064 12.838755119606814 -1.78378380789167 0.4886510113181907 0.21327737810403913
Ni 4.602237955572647 3.802690164439736 2.6176830008507133 -0.8548725178538503 -0.011246519448096761 1.1023388831347727
Ni 7.977280939553037 1.8035088433411341 5.292296658713163 -0.588779024390044 -1.3259922051564972 1.9819520982684125
Ni 8.887267106268478 7.93686972098177 11.231466314111369 -1.353836738172591 0.23085652463838305 0.2962957280787994
Ni 0.4903515238284625 7.5084979635212585 7.014829894836834 -0.26428163706604807 -0.0032174784960331687 -0.6610218810158551
Ni 3.52601181232425 2.294396003838812 1.0647833297464657 -0.22504017506692212 -0.23726345660599138 -0.12726832093207113
Ni 2.984826167340683 5.1000040116509995 3.886433839238863 -0.6532394088569589 -0.2653789838952849 0.1561191837254924
Ni 4.590993254263439 2.102924238315942 10.37810629862996 -0.32832987369620875 0.10290866114078406 1.8389843643232135
Ni 4.755408030502324 7.346862261096966 6.4691335287245 2.2256679953679672 0.05940662409309124 -0.4937633928440916
Ni 2.418051030797009 2.75529117960475 3.254783379880813 -0.6516152429899745 0.7014517068961275 -2.4605349267173238
Ni 4.705375529978888 2.7254642883669473 7.987394750428782 0.2586468073777739 0.34814845108403264 -0.18279617879604648
Ni 8.672104424365767 4.305243931842237 13.118080470741743 -0.38137018925163996 0.49792446620031666 -0.5961766024056958
Ni 1.445090868005691 3.4196182273431575 5.18740175578258 -0.8229540718786988 -0.15341618297203255 1.3584559821121571
Ni 9.23441286471239 2.224433049852969 3.589415051484362 -0.18786048069283132 0.5585546782878639 -2.5217336097138316
Ni 3.372805049951477 9.246794876757603 -0.056132705124378034 -1.327824116158913 -0.08292836136411524 0.37843836031682565
Ni 7.109604566589129 3.97399300812007 6.707381784195953 -0.7202279590623661 0.4247552411054943 0.9485522041971987
Ni 7.265920589764368 0.6646113754224083 12.530581514778692 1.7241972065772886 -0.45229432706602757 0.26478300218249884
Ni 1.956532168498423 5.650645845092799 10.53721973934134 -0.9977024406696042 0.7756321468642835 0.6390644029081575
Ni 6.395465142985868 0.6752195495938853 10.36112459840647 0.6119549482858752 -0.8391643630899742 -0.05333393553645008
Ni 0.9315675551172087 2.767563129320673 0.8085068647371814 0.7434352504167648 -1.0089654151779333 0.84768602740774
Ni 2.610990294043756 3.595075923954218 7.390889027185436 -0.5737784372161538 0.8499167165104718 0.8019743843032381
Ni 2.8934377465862346 8.546514134784205 7.122289250039893 -1.6796968101720684 -1.0847355682307125 -1.0233939318984375
P 0.7446101794674157 4.43612638509053 3.185381743774353 -0.6380850697140236 0.3756687679914885 0.1652604839051283
Ni 2.995520557003438 5.907512977935944 6.193862140051781 0.6110836014245153 -0.7901257124947683 1.6851238947249108
P 6.109743336146988 6.934743040928394 3.8010979294093294 1.0183985355663752 0.8856691915197328 1.487520989933335
Ni 1.8507806137715264 4.2735551528672655 12.60562201088915 0.7888658719457382 1.128832558549927 0.4708816031499117
P 3.841789806920288 6.6179377979256415 8.318671355361118 -1.0030148540214532 -0.3724800858508618 0.5005007115679251
P 0.3617317686331731 6.355475830010215 12.761486778514294 0.296544867975128 0.2427121384253885 -0.7425057966239599
P 6.327428279762613 2.8202187820255396 9.769034208939837 0.8040487503337637 0.7228926503787227 -0.7372540613067174
Ni 2.3920946648059322 4.654847748973643 1.7218756137061586 0.3900790298795475 0.4232223494007356 -1.4472603426410753
Ni 8.180841217576345 4.110864686453936 4.748694228415586 0.491486938105089 0.8181157699497912 -1.0434343954890803
Ni 6.515488113077469 4.987327702039558 3.1314438649332486 0.4428807470616114 -1.1078461861062467 -0.4115377139739558
Ni 4.234051948512648 3.849310732755158 12.042218450366084 0.9709840508381535 0.5487785727377065 0.6592154239347356
Ni 7.747654233209362 4.070664420680477 9.02254196364155 0.20709310367019818 2.540178960903212 -0.5728366421281746
Ni 7.1846762470262195 8.637453134360717 6.904270450692085 -0.2840048265265883 -0.623799506329287 -0.3935513046988641
Ni 7.9949551152649825 1.0126559762221947 1.5782662864475416 -0.5042822900975444 1.9788171521838567 -0.8177213627248497
Ni 2.466239987304825 6.836026303415334 0.2386710782531458 0.3905865656435854 -0.5567399936766283 0.3936713752164962
Ni 4.235721227173557 1.7944745604785153 4.038929782401634 0.3936430930817221 0.11787479553231313 -0.4389323039368247
Ni 8.114482804874775 8.04018156074272 0.347835482374134 0.533587723929881 -1.1141284195705328 -0.6383851174529458
Ni 6.7896900627839125 2.542348088009403 3.3438375620682192 -1.1698647939008884 -0.6778024429083037 -0.1668849068824287
Ni 0.9655217837034159 0.29160738989770396 13.586778148468321 -0.886255660150822 -0.21200056827414457 -1.1578299742235414
Ni 2.788181472341147 2.0866625291632284 11.798506517431418 -0.25910652062301187 -0.5919697634131998 3.1453752503090153
Ni 0.12816574808696488 6.5409675423082865 9.24814497466357 -0.9765615449259312 0.07579483564312753 -0.9212802558551231
Ni 0.19512216611101427 8.78391857906443 2.6523838189039433 0.9716401963649136 -1.1332247740803516 -1.4020966016202432
Ni 8.482632124491678 8.574506653867163 4.6531821390570425 -0.27645092543873034 0.13380663627122116 2.0466976180759135
Ni 2.9789653483059495 1.6655548854359088 6.282487079154954 -0.7590490456946217 -0.04015343229043407 -1.0813944196726215
Ni 8.434443167983863 6.3980332640026525 3.4971259540018833 0.09855604059904316 0.3846699430488343 0.05427881594822265
Ni 7.141119080209391 5.923187687999107 1.1230338175236139 0.12868397033267515 0.5673938738460487 -0.06993272043539568
Ni 2.3984232487401527 7.382971876965118 2.631764558697392 -0.8028917539111851 0.3424290321017522 -1.185788149999364
Ni 3.8767070808877895 6.228729885971101 11.772746429260911 0.906188137408691 0.47071936654043445 0.003732213348922604
Ni 4.439730926374803 -0.29342158395884704 2.889867141186826 -0.23146793297013687 1.0091024549764298 -1.570387387711263
Ni 3.929005031022461 7.0880323500481355 4.325920057585589 1.3097310061026284 0.6820046539151093 0.5046764402121695
Ni 1.7162110724919928 0.735153073823105 4.059347261671151 0.9063871407933746 -0.08984694286081944 0.8297782938893838
Ni 6.365665767330388 5.273361352144761 12.444735649490111 -0.32686871576965 0.41662875534361804 0.7420383700692381
P 2.6241794298371017 2.2766484532406723 9.741931360351982 -0.8285547058949279 1.4630834257162608 -2.039700360822474
Ni 0.8631225440895013 3.1972831503149965 10.741532109948135 -0.4825307573530658 -0.07821038706315564 1.4869466054871034
P 7.471535364601103 7.861587087746873 9.514140860535308 0.38118249872086607 -0.38459820927063443 0.2895149577115401
Ni 6.701291668641863 1.5576020841231966 7.835758210620558 1.0373619640427554 0.5968003520326238 0.1337431300231374
P 3.6518038828428434 9.137457124467982 5.077942934930738 0.7247854965260614 -0.6161838987655581 -0.5043879624374733
P 0.6940512141355386 0.6092206738346657 6.271130481144299 -0.8549226543654954 -0.11973524577981959 -0.25672362221313205
P 8.720284209012807 5.352881385057354 7.279980135145188 0.7284151228588487 0.447014566724327 -0.006898269781730056
Ni 1.7369853371456285 7.805033394212957 4.884490047480635 0.02494047199542156 0.5366933594383984 0.4565335619583557
Ni 4.289697627829914 8.553282968035589 11.276382750694939 -0.3512216906927177 0.7887985090429125 0.036128113181124875
Ni 7.410725927667944 6.429309309242784 5.783787327649786 -0.2935508183438106 -0.06807895505610856 -0.0965310397492144
Ni 5.327099284420987 5.087612827745012 5.132055079126554 -0.12506205730937173 0.30140322450869383 0.9301747301312755
Ni 2.070877756770775 7.878793498559332 9.139035601707226 0.33069503149427565 -0.5461084821047112 1.2400659375063223
Ni 6.128811634696617 0.41081956749686344 4.56063806384504 0.15222344821551204 -1.24074085208616 0.35774843606764195
Ni -0.20098573670398084 2.55085957480789 7.312532903405093 1.13958851151485 -0.07145147107276727 -0.038720556498649444
Ni 1.6768362741882141 1.0334210690150563 8.275244428967284 0.02543875178807877 1.4699205032427523 -0.44770619347471285
Ni 5.435483163190088 8.08246383891193 9.106226938531721 0.027238009780346635 -1.6935766534779544 -0.703786268566575
Ni 3.590178150300778 4.385250073375864 9.600550795261503 0.42996249633804656 0.048479949878258446 -0.41620555176327023
Ni 5.4067202078020955 8.458464271351577 0.4234070292234196 0.5769743184456321 -0.3984533699861718 -0.9770893924049431
Ni 5.819518145667961 5.876649666430653 7.879950070202963 0.9954686662430792 -1.0607492326184442 0.2063539115113285
Ni 8.13395466529847 3.6879868735971897 1.7865253087454884 0.19739567387677617 0.33367699694073505 1.2162701206383055
Ni 6.819150079590746 3.0193765668772157 12.070597104787634 1.0927527821082343 -0.27600792436404076 -1.481010956728959
Ni 0.9968070008043217 4.309518018963029 8.838862611032468 -0.4251601898533969 0.7136659895741322 -1.3227397596574704
Ni 6.763596118881223 8.311008265684247 2.202533397882335 0.5914313744112265 -0.5509611822113221 2.0068100378523566
Ni 0.9682458263533628 5.805677807759645 5.289007629439523 -2.668683725345546 -1.7967321405222219 -0.03196601138363527
Ni 6.426695328922128 7.632373115138038 11.714754587957595 0.39201018546398936 -0.15534168212951954 -0.468544984596935
Ni 5.737485022903229 5.5515255457056725 10.334827039194591 0.04335419861591888 -0.20952819547425203 -1.2105607289583538
Ni 1.8793234445009368 7.949875419559631 11.69224317287332 1.5862518655473454 -0.8091343923867872 0.14237792287999995
Ni 5.766651540165287 3.657600498852158 0.7271157722266454 0.669335543087873 -0.3601583310607152 -0.38675510771263716
Ni 3.9009024496102143 0.480652281059712 8.920238111379687 -0.8934568058849516 0.4564749408062784 0.7402591666816284
Ni 8.34029401713637 5.28644959746959 10.985377952050102 0.16117808630563857 0.5774276039329669 0.4376087000293948
Ni 8.358417614026253 2.01987303900527 9.616230091255053 0.7426700901159662 -1.1583017716536372 0.8675909938617831
Ni 4.8124386607965 6.553211976441886 2.1251586632048354 -0.9331050164041931 -0.517679794450373 -1.1053195630296513
P 4.314232355400985 5.361429559298937 0.33592765553094844 -0.3369682660974971 -0.34171092298880507 -0.28869708979593506
Ni 1.3285807205906204 0.7568078371110671 10.677661105888536 -1.7786714263657688 -0.8534416989445947 -0.18733957519235475
P 9.069869682422665 1.9470759800401896 12.498417633415615 -0.13202563311139842 0.48451204944915266 -0.6253401113435295
Ni 5.644564901399484 2.636689847933155 5.596711634996005 -0.06916370347985508 0.1342617215307688 0.6682219983087202
P 3.598194356617457 3.7744408332551016 5.476916127051604 0.8526212599258284 -0.6903514832179078 0.22449458697609725
P 5.743052342393189 1.423592026350891 1.7160634055335275 -0.4196896536571288 -0.48207258676972464 -0.12544592301135168
P 2.1892956512268857 0.5772173000351375 1.85265167336947 0.6728780090234927 0.16018281227190476 0.7293481761960794
Ni 4.897920403212344 0.42713539062814493 6.8643884484874915 2.01947734890738 0.9449994538489338 -0.5488590482666547
