# total energy = -381177.6853300099 ev
CRYSTAL
PRIMVEC
9.08676767437915 0.00000000000000 0.00000000000000

0.00000000000000 9.08676767437915 0.00000000000000

0.00000000000000 0.00000000000000 13.29940299601655

PRIMCOORD
 96 1
Ni 5.996630470729775 8.790675172883555 6.091272788861756 -0.28437583671276184 0.640521189959342 -0.9824241743542953
Ni 1.3853049643964759 7.603598041316274 1.9897767288260066 0.3735072415637954 0.0964600773019629 -1.173024936796425
Ni 2.4176344455818564 2.4027684939656035 6.64642975743764 1.5883200609302839 2.0842125843022363 0.7308777254667284
Ni 3.1245213490556814 5.607117095434966 6.664184392439472 0.6210057456342337 -0.6334727677529929 0.19958368266703047
Ni 1.4057047574151116 5.381956083760678 11.97655128471925 -1.2534210186569898 -0.685271240481523 2.4705491164202162
Ni 7.31890052903704 4.097141681053777 2.0773131947795593 0.29415502758671275 -0.39503508833324225 -0.3550518630720853
Ni 8.21411977554171 7.128105672015972 2.8182100516209347 0.7375541090456393 -1.598925604360272 -0.6048977843287776
Ni 8.894391537032647 7.856619082119799 6.649408399821386 0.37188924634439824 -0.3663415770532916 1.183542548498297
Ni 3.1898097734828075 8.683487663552674 0.7251749317274137 -1.1171288969597535 -0.017541351317873016 -0.21172391757399023
Ni 4.5961778649248055 3.2419042115121344 5.752988791331076 -0.680810376496692 -0.16055793622313638 0.43240453012063595
Ni 3.9481005206565984 2.957034050650561 1.4974065975868127 -0.4252874594598805 -1.19446125229333 -2.056939093298264
Ni 6.555112287530833 0.6349496912730971 10.95392011047765 -0.6771105590476016 1.3765771171929002 0.12235314301864089
Ni 6.67922844469856 8.733564839198866 3.3338941022133195 -1.136704762209152 0.8912047766259813 0.8652003821424196
Ni 3.5979510221353896 4.106946303177209 12.470650627812095 -0.7754513983120452 0.3808631677082344 0.7661221504913194
Ni 6.418392783852261 1.899125318976334 2.1254975967572522 0.4402016575675516 0.3043538224965855 -0.09734710789260653
Ni 5.153251232764666 4.260267331062931 7.80908983607825 0.6260327665351799 -0.47060495244975725 -0.44322090400984954
Ni 6.051669021426379 2.358852146678714 9.07012598561314 -2.537073582505011 1.1611369271095875 1.2912362897325504
Ni 7.743079922312291 3.9809037513012644 8.207992568222126 -0.05441122776102887 -0.2883258224994454 0.7050792763463858
Ni 6.002291526877039 5.9029186375889315 10.140461780508875 2.4837041657449355 1.5717570143652801 -0.6181428222641419
Ni 4.316314512951102 6.175040063659794 8.675905664757686 -2.162355094241934 1.078354604405033 -0.5304972579300155
Ni 1.6464677488724724 7.190877061847926 8.020630691959385 1.5091367684308976 -1.2996468823937488 -0.5783112920895007
Ni 2.162060023113192 0.2085013321551939 3.4801210907183497 -0.5126707712715558 -1.4055081984049536 0.21336171028772935
Ni 5.381456311548641 5.711069715538839 5.667939373639973 2.5738953793190515 1.759282737426512 2.6442695581672395
Ni 4.651370890668768 0.5162065397231517 2.4752718117810577 -1.7769045642733332 -1.0075165985465486 0.8382503359161371
P 2.931518407534156 1.6911292110936729 12.735161886108747 -0.6786066839771538 -0.1447561933041894 1.289817555008153
Ni 1.6919742804703914 3.535443148560692 0.477784960738431 -0.9105181322426125 -1.2578674844641176 -0.9512996850353487
P 3.2688464771247205 3.3026855992634285 8.576186569628147 0.626260823385586 -0.2049349196766148 -0.5161756991010207
Ni 4.093297978404831 8.127577401951738 7.194578102247254 -0.9458481750024743 -1.7661671232511713 0.11242405683038703
P 0.5083619333476558 7.845996650922122 4.430948628241348 -0.6243304391320925 0.30960170115908614 -0.6158198305579201
P 8.830502474799227 1.23616384955689 7.320363498603187 0.22375025261090498 -0.18277869529454974 -0.5793466753325506
P 7.593857026565281 5.25555006118507 6.58647617420483 -0.0748664102915872 1.303888174168606 -1.7124146121200639
Ni 4.216478198520923 8.883260246855441 11.705030493979582 -1.438314446301697 -0.916185614941035 -1.1373351967042993
Ni 1.43186556102342 4.5622933089486395 8.061525689055317 -0.06543740366820343 0.4676088459359108 0.13054802012460745
Ni 1.5746095915489213 7.703597917561302 11.50540602498693 0.9847409954129299 -0.13274579910687462 0.19402264363948518
Ni 3.74302126513874 6.80899657124606 2.8101900706328506 -0.13629057903533948 2.415709028651885 -0.7151726560266457
Ni 1.4445052546042318 5.956657780534238 3.5481473581906946 0.021339127797408413 -0.2303469319918162 2.3334450403446456
Ni 6.6954755849735355 2.2673756583408045 6.750285149129352 0.601221621028771 0.2409694447026689 -0.8242311388189096
Ni 4.688399468197026 7.123634982410107 0.3283903250858297 0.8200325273565298 -0.8436460530104115 -0.21589913199760238
Ni -0.09389175113717609 7.198773462798124 0.06185453499205165 1.8951719672583751 -0.03841279545024352 -0.4551983880866999
Ni 7.304207226003127 6.118447675722128 0.6787778969153181 -2.463818996785234 -0.7071402726404725 0.27604212003608586
Ni 8.691102374710633 2.4883113231314997 11.488609135278713 1.2614392609757759 -1.1508828534817468 0.13518243357282525
Ni 3.5193050494956153 2.327648187112569 3.824828524188841 -0.365732482714383 0.6072110058429865 -0.5482489254864816
Ni 4.007791496308901 6.392286500848901 11.135191126490776 -0.1979723723158526 1.4162147861891803 2.282740572011243
Ni 4.416187174451247 4.301403127497391 10.099739431995284 -0.6177044491751427 -1.932141345393872 0.2829643010772159
Ni 7.691794206589717 1.1348918258630387 0.1118417516400773 0.03178243461791946 -0.4366519925430803 -0.032184298042028436
Ni 6.734430557210014 0.44569867604885194 8.217940761271926 0.9781281180821026 -2.025031960177022 -0.2501138302060983
Ni 5.194986755853574 4.982401830387655 1.1287855181086854 -0.3297673774736837 -0.8349382408237684 -1.1807130494693021
Ni 4.472625087341558 2.1432140673356193 11.442167575305909 1.1075155422397056 0.21100066625472047 -1.1920950660539986
Ni 0.32167520390953935 8.83729029011545 9.140200410478093 -0.1626857811994166 -0.07886447570738676 -0.42828819395941725
Ni 6.501936524170007 3.9161150990861757 4.590701270157621 -0.3889354031934076 -1.4218221050736288 0.854890001355347
Ni 5.16333754468034 0.7599091004640441 0.17261586997737804 1.5046432514359185 0.20996168346724484 0.47215507054569655
Ni 3.5007316967427906 1.1235515400335254 9.32741598978422 0.22527080302048944 0.9217091158624254 0.8826476310845894
Ni 8.193238383846019 1.7422059311639413 9.416907928101963 0.2978877551562676 0.5875603214915945 0.3044998611561465
Ni 0.3553698464451311 5.308535002428572 1.6024977896573824 -0.20942123758274256 -0.198744988815819 -0.29670890435681807
Ni 2.034381853088759 3.4779511706413566 10.659245327492645 0.6447745659190574 -0.4863316191563948 0.9905825417953713
Ni 6.216639285236328 7.212031056568365 7.868046600917231 1.9187862642432054 -1.3560874818799806 -0.4321371353918622
P 2.5034317042375176 8.339217303598529 9.610361573291073 0.5596813356931393 -0.6604652371814368 0.3206309623900543
Ni 1.4260136827588314 3.422621843385021 2.9874047536377266 -0.18722464688104531 0.40901469044178596 0.30827809725165617
P 6.46714329144468 8.115573782095337 1.3261937245101374 0.07499753655281276 0.39242541862453706 -1.080133807792643
Ni 8.378235883207449 2.1687751442894823 3.8119280403810203 -1.8735248213022446 1.721666469735635 0.022785373325631724
P 9.004368683983449 2.4192246298928857 1.794129537964426 -0.5118552173487958 0.4950435451080958 -2.015895030872761
P 4.758667441209548 7.773029907964596 4.447160330123106 0.4489130692986204 0.05633929802167716 0.35711414491775273
P 0.12293396871707006 4.060540181597623 9.822885617414796 -0.6309281469542682 0.404819935634148 1.0590026822409826
Ni 6.353540524264732 7.5584095465805605 12.037994189143932 -0.5304797744285186 0.7935560783325559 0.8453586648261441
Ni 3.8482005988539782 5.167353895911625 4.38377558348547 -2.9976972553723407 -1.9044973584243585 -1.5919232049005099
Ni 1.8096388327190842 1.0103940244606648 11.017837341690296 -0.9367976347644317 0.09198327247753191 0.40318599957515083
Ni 5.862791472346038 5.7919510329815465 3.172585805702485 1.1937138326043442 1.1645729493743298 0.4771149856541332
Ni 0.8397154533124953 5.583682322074137 6.091671697954637 -1.0956722697478742 0.9813851915668195 -1.0402989351838923
Ni 2.312954884078656 7.5606267178485105 5.498039538465833 0.4439863214209644 -0.24278490064485284 0.01847337621383915
Ni 2.1810513671706304 5.773359506693739 10.000073948793947 -0.2539596863147497 0.6939273734946243 -2.2366527765142443
Ni 8.051839194909274 6.213340788636877 11.451969471399094 1.3579078229181711 -1.400668353814149 -0.4319869829672431
Ni 8.510339309000289 3.939322703259715 13.168377160977641 -0.7675234017142201 0.36014701820680556 0.7106405724842471
Ni 7.0106410286520955 3.892107859373376 10.740903563555884 0.23249148913864476 -0.42610507026516936 0.11788250884179698
Ni 5.028653476919885 8.396218596073318 9.513102266121509 -0.3228732214570117 -0.40649269535088056 0.27437604518757264
Ni 2.177761957338672 1.3887579360432827 1.5506841327435459 -0.8500241886226136 1.513658053340019 0.6504099098279638
Ni 1.2928743654719486 2.389283731008073 8.761087749254166 -0.8879189067858578 -2.303687606576555 -0.4740880259023513
Ni 8.718253635975525 0.32575243648301905 2.2858881297514353 0.5263063597771195 -0.026892967736102072 0.024042642771500526
Ni 4.570553180598502 1.2518385234798954 7.369332088615406 0.5151498289396677 1.4142720606405126 -0.8493901545830405
Ni 0.022408877311027985 3.3283648041946825 6.10271030310343 -1.0592217402303241 -0.21132822479746832 0.8335488166754096
Ni 5.901610143070141 1.5831148059210562 4.564966635944668 -0.19003383419506628 0.03969294771424777 -0.39655975250788483
Ni 7.283925560961882 7.260327225786205 4.9976367047640675 0.15067641544336632 -2.5718953181698865 0.6157550387582557
Ni 1.2665409132813 1.8678032314327984 4.827218015166158 0.4015865162985148 -1.7673156350333177 -0.4817208598572607
Ni 2.7280202495598354 5.006681673125203 1.8611453568917051 1.0367484988284725 1.0163267406390109 -1.3392850656106612
Ni 8.796999563057707 6.240183099807056 9.054898380650721 -0.7320586331487069 -0.23371404869183623 -0.10077978772323934
Ni 6.155031001643298 2.9363798281421607 13.064295508775388 -0.058156296625757914 1.0888069100866087 -0.10010564447435018
Ni 0.7401017646858604 0.11531289682186745 0.20267762286982924 1.235743913092201 1.4432041702938305 -1.1412620425625313
Ni 8.185841755107859 0.3603321301722924 5.191262089858767 0.23719429393095282 1.2539144133536406 0.03435662310299889
Ni 8.35344718149037 4.812270282642481 4.048005894519713 2.2598199586593273 1.4320908339894884 0.10515503397279954
P 7.341553840393591 7.849031631264315 9.95566691606251 -0.18402336633492822 -0.3876511371643453 -0.7400982156237318
Ni 2.1055130690129826 0.34623673643932673 7.332678794584549 -1.1373953605182734 -0.9193280172247585 0.20005959386218447
P 2.0897566141825528 3.8972600565411115 5.114072726047897 -0.014521847765258862 1.1406503771204615 -0.3656121550864348
Ni 8.654219185462239 8.816263510139892 11.423894085880306 -0.5422765099531306 0.5073724989870939 0.39420924999783724
P 5.496685610109585 4.865564173980698 12.062624781106658 1.2545685019978714 0.6654637188372927 0.49878295754587004
P 5.092469845013373 3.6602589868252724 2.9826042143719156 1.429916452045989 0.5089534703209686 1.2786373700216171
P 2.497879689300152 6.656838649599264 0.04195451418545367 -0.1886107285952945 -0.1306439222725234 0.7588004200189254
Ni 3.640722436718338 0.4850325664897289 5.218658693845934 0.8351842953963036 -0.16228648887846892 0.8073631594189773
