# total energy = -381164.3245919614 ev
CRYSTAL
PRIMVEC
9.33378335996922 0.00000000000000 0.00000000000000

0.00000000000000 9.33378335996922 0.00000000000000

0.00000000000000 0.00000000000000 13.66093542060034

PRIMCOORD
 96 1
Ni 3.536038420896678 0.9600636040127742 1.347409072294668 0.4529530436959489 1.2179624207390638 1.206711787525909
Ni 8.821041133881687 6.022698266540358 6.32655677779902 0.9911170741426027 -1.084534250853184 1.1692230465518316
Ni 5.1489254880178 4.093181272636696 12.45155984162987 -0.664766435659952 0.9898117250676179 2.879786464395769
Ni 4.159908488583646 7.786559276582436 10.254649560591416 -0.9643588322121521 0.5256353018520238 1.2831589120410545
Ni 4.234205402688797 6.517276769631278 12.629357210650749 1.539071094096485 -0.5588729808592311 -0.11430276191033863
Ni 5.238324463306635 2.8330272056346386 0.8482439481495689 0.5470389643387804 -0.2229349557984612 0.7155948311657289
Ni 2.9711951980339535 4.5560622480515995 5.180814358248986 0.5404805943949724 0.17625632079499967 -0.2669015911873984
Ni 0.28753745799179387 3.6818321141532677 5.828410902777072 0.3007684191381723 -0.022439817060754905 -0.6923011507451109
Ni 5.658008690168946 0.21171073682359878 5.201906841476979 0.7816251312229249 0.37093253885808375 -0.5492244020258734
Ni 7.1218259061376346 4.945112998520303 0.5186456630180715 0.02576348211734918 -0.5644296490114021 0.23556884251238785
Ni 5.219180874006426 8.42472870009969 2.7504381585532296 -0.6874844460827579 1.975786335777333 -1.655508642961639
Ni 7.304021353792476 2.739110679287148 12.624630582848884 0.3655391357566543 -0.9793637902614165 1.4056246693781598
Ni 0.19332878423079936 6.659476956363937 8.747725200388654 0.34154302995237307 -0.8531041130995178 0.777870292166183
Ni 4.358923413527116 4.178482717109934 6.885711993192438 3.0931155216733504 -0.8302292653838733 -0.2292909799234761
Ni 7.360658750122885 7.433135576508123 8.37172121204761 -0.3939333706286312 -0.8093035709747999 0.18055571950130195
Ni 1.073170388576369 9.279684571733307 2.864083502406255 -1.5596430047105656 -0.5673982447214228 -1.0211447308529447
Ni 3.4251530767296945 3.1091485134201498 11.134837448292929 0.5810189208286509 -1.5461498553201372 2.046432537339985
Ni 0.6535430977914508 2.388804462794635 7.74494460427869 -1.3494170118383404 0.4942300480678649 2.4999764205423975
Ni 7.907002414724754 4.710900377208677 4.530225402833701 -0.5481106001364044 0.5326901518162762 -1.0605512576750251
Ni 3.8691238074238643 6.677183143054574 6.783132782676481 -1.3662230276520857 -1.7534275641973158 -2.3571994624517663
Ni 1.832202970479001 4.593686728046306 10.027030323717463 -0.546036491216195 0.39200401481640224 1.046412504280798
Ni 1.374138227184482 7.460194213944157 6.847380012432761 -0.5540794161253296 0.7338905441511232 -1.5224622818952103
Ni 6.790607276246256 6.884159785049764 12.815295505360385 0.29823639674493796 0.44081795099531185 -1.1180784053572161
Ni 7.436113053342236 1.0443663336858546 7.331113592847955 -0.050241155543739285 -0.349638662476314 -1.0457887546538698
P 2.47821277186665 7.194741420332287 11.89707618471756 -2.7213414607505775 0.06396596132899952 -0.6758530324914167
Ni 7.231348517960479 7.816595390852583 1.585966569676137 0.7861245617551751 -0.2292416147427794 -0.7376189008453039
P 0.46197279831158244 4.612158284957624 7.825475552169121 -0.3017158706531062 0.7207714902706619 0.28416012115753
Ni 8.136809490375875 8.316867501682717 6.409669450116772 0.6644982696002297 0.8401503811523273 -0.6990222715190284
P 1.6140071211026057 4.078424561430635 1.0641156855143832 0.6562951649641472 1.5133065835378712 -0.31464337734805164
P 6.462384790755349 0.7896221895152965 13.509913782787834 0.9438931081586324 0.5458806823646212 0.7100229935049063
P 5.358020898794631 5.212096532573535 4.793759170623961 -0.15083659517031445 -0.4426807152356634 0.07212689987323707
Ni 7.026191963685201 4.248028735576954 6.950123497532668 0.04348532487714446 -0.40508835880418625 0.3530566870189274
Ni 5.310334600532921 5.862157195860887 8.317966087962889 0.38100226438925994 -0.4260850156605114 0.24870897943877163
Ni 2.7600370211745537 7.594404682275559 8.599271378926039 -1.6447408629221738 -0.06406674857292192 0.6656773775099956
Ni 5.819408468900888 9.013251730887639 11.617286700142687 0.8871655735596011 -0.2997487196244063 0.014927310733793648
Ni 0.1813796750049936 0.03918322178560579 8.347104292291213 -1.065169730283643 -0.698407520753165 0.543187194692858
Ni 2.663656376067797 4.756169225627017 8.03891397225916 -1.259613520620947 1.422084614706396 -0.7435026133195904
Ni 7.28222697006942 4.8830246728133355 9.397740128138429 0.5739337318470955 1.036601431727647 0.18029912340580562
Ni 7.769189106086244 1.023664002594746 10.609177447215808 -0.5961578333526184 -1.0188965582487162 0.28774243919214965
Ni 3.330461846378344 9.189734903236907 12.061499175821195 -1.684652097294815 -0.6106202886348515 -0.8082738441587047
Ni 1.0105593710113754 1.185605140751073 5.790283331869015 -1.256312481272172 -0.9513235962947487 0.17247165694158684
Ni 4.485181498589977 6.071261940420897 2.858140682656161 -0.07725136558399599 -0.7166261006437207 -0.053263487309830854
Ni 7.9341730575589375 7.875230216783306 10.79638700319443 1.4189640667995433 0.5596173152244234 0.1484585818564411
Ni 6.4096862509264945 1.2196641155713865 2.4886535417307223 -0.708756725197973 0.6541009855263058 -0.599525978493903
Ni 6.044455315130698 6.757341672996161 10.356915155992557 0.7671850445381949 -0.9821408387859216 0.9231191088360746
Ni 2.1555438873672705 2.6087177282759733 4.438055227319008 0.5400129107299345 -1.3717483283456893 -0.12548886043414517
Ni 4.563575943510726 1.5494080077204768 12.63296378447113 0.9499400856836608 1.7194077556084453 0.24141116022577777
Ni 3.9545465910784294 4.893749189686052 0.9178002337780856 -0.4042013282135426 0.4691479082882566 -1.175512221994653
Ni 9.201327461945274 1.9177564270980727 3.4583748111988486 -3.3298940682231235 0.9839570660590539 4.585938897656205
Ni 2.4000516715253766 4.725647754631559 12.353829531475425 0.009538021397422282 0.9139068462091873 0.9465369735393827
Ni 3.067585176923889 7.792383557286155 1.7839267771203755 0.040476619957807713 0.18509963011824251 0.5004752576466284
Ni 4.594564103665135 7.492946459119405 4.641958254513342 -0.9814890641345356 -0.5446892331596812 2.07496175512793
Ni 0.21933457092423786 3.897339833974099 13.110645339873034 -0.37248342828497144 0.3741613302080266 0.8117317208003183
Ni 7.605502550475436 2.5549364695983496 8.904347948889564 0.7448544993617946 1.3994313960832543 0.19772991728774333
Ni 4.974561084450171 1.5432850459550271 7.194176726449956 0.46775591303673636 -0.6992577845686021 1.1339961050287373
Ni 4.4479583712719695 4.925549388977037 10.48774586143483 -0.28883053005000586 1.9260493735635218 -1.7701219941338613
P 7.293716857162817 4.80323949419891 11.964943988968988 0.7405031643716343 1.140677887924287 -1.004765518163973
Ni 4.765082988562999 8.747649596744903 0.24211926904259 0.8641259181313182 -0.27006713339957356 -0.13312580815411268
P 8.149634108463875 5.6834339155486475 2.342276487025443 -0.7440104061939444 -0.06865385372297209 1.0376527558102968
Ni 0.959512910805211 8.827976134783714 11.267129824181039 -1.002872157796002 -1.3006169596165018 1.3615932421895582
P 5.4020390202669795 3.070189302430841 8.747479721891045 0.2838844988986401 0.8434509062804699 -0.7858975333460336
P 5.400041590666665 6.786509745430658 0.8388336279484617 -0.5521192070751653 -1.1247082519689082 1.4537688331835543
P 1.4571435609956762 8.639573721314811 4.88678992094776 -0.19272320810177132 -0.752785067062781 0.3794184648419079
Ni 9.05053086090472 1.0693622050393212 12.791375819207461 -0.5981933757254085 -0.044906630704703306 -0.4465684803258438
Ni 2.8160490540319665 2.2585701860975034 7.049602958654867 -0.13420412881995597 0.01344686953352523 -3.277080009745885
Ni 3.1519345755128647 3.2817394981837604 2.4213457644700362 1.2646973629017575 0.357126743323243 -0.32835918427224736
Ni 1.6808650100140623 6.699014861910347 0.3862030132207795 0.3857179246973744 -1.1601023151974859 -1.3825942699212574
Ni 0.32943494392586414 6.241846161801015 11.947580352121024 0.35684469330644997 -0.5794382066050924 -1.2362146820810322
Ni 1.257624611760538 4.481774667729628 3.3972973342101707 -1.140875348647074 0.8721264198382915 -0.8518144477538169
Ni 0.5502255850260321 6.9287379335128545 2.3960866804309204 0.3400841860186595 -0.26352881806042355 -0.9015300698113894
Ni 2.1217089233432542 6.568491237934665 4.676711662802175 0.034667983695830615 0.7373039407080464 -0.7731548889683846
Ni 3.0634036420596797 0.09004767321977891 3.6189868186304803 2.91900504357676 0.1117771672750075 0.6943449206480171
Ni 7.972749583437905 0.08129725148942984 3.786893177616531 -0.741606167627826 -1.8699517592390056 0.008955152310758772
Ni 5.707085722124333 2.751459274433017 5.374799307437272 0.4145268785092667 0.5396128470780385 -1.6826615492273471
Ni 6.23431379877553 4.278260859293861 2.630617583748952 -0.002008545789596541 -0.20149966874282071 0.7569083452025351
Ni 9.071261193345366 7.894243133119009 13.406786679199268 -0.38977872503030936 0.762774317065009 0.14776721221637132
Ni 6.173644208111776 3.2236553654606004 10.767890963148826 -0.1822747590749377 -1.117883772847907 -2.125742842335539
Ni 4.631731228284068 1.244893331504329 10.16216483658359 1.3379077256471603 -1.4575015607531094 0.10517148903303178
Ni 3.241781572394294 2.617398146632479 9.10055993874437 -0.2654718007194073 1.5426372141811884 -1.2404415756781864
Ni 9.150159662557781 3.81186104762046 10.839788161598644 -1.462188167595501 0.4553552253795384 -0.3986127783821716
Ni 1.6995419101553193 0.15978223410701523 0.33240775386838817 -0.7285745312548485 -0.724524786665507 -0.620762519275176
Ni 4.790825562570789 8.288996825110106 7.9059934327631005 1.0880751741269068 0.8803925165018256 -0.2702396544216959
Ni 1.4761471435481996 2.2155414456421334 11.839153526443399 0.5711880507811582 -0.2700866737835994 0.8285035409420183
Ni 1.069315536123426 2.1765729008696457 1.944415578614044 4.097781023924349 0.18305200356059442 -4.0831828143952
Ni 8.35401595873529 2.7076371624074285 1.1628260429026283 -1.619130104332605 0.5409297661172491 0.3540344775511645
Ni 2.1004372314782245 0.7324228994375096 9.850627421903534 1.639056925163519 0.018997624148425346 1.5659992859458964
Ni 9.049690820418606 7.371616611575076 4.399312560099453 -0.16267189724234563 -0.3868206708432499 0.8845196512963217
Ni 8.769014626441724 0.4110280763420696 1.2509574904357506 -1.1822353996510995 -0.2592384182151858 1.1664449695860624
P 7.671557734033495 1.611449664511549 5.247206491379809 -0.05227875479905835 0.295463204875175 -0.3122820762047267
Ni 6.625016628866925 6.496910454734614 6.0809326731727005 -1.868207779964705 0.09904043643462944 0.14630502584854804
P 6.330909120895405 9.190416269408978 8.880194918157166 1.0791048523074964 1.7472165502905972 2.154952631130276
Ni 3.4065041779379746 9.087268631497418 6.039198528444263 -0.9253348855404709 0.27995662459914367 0.8921028629602183
P 0.3479167679986794 1.881980036172816 10.106947108674714 -1.3067408131260527 -0.5173195828974768 -1.0857292996025496
P 2.2115372526583257 0.35496844119044335 7.9015664194012825 0.7634888266335302 -0.8152780433906797 -2.9851384448707234
P 4.255971785062316 1.8956820298796453 3.6501607210701525 1.2625417500113352 -0.4912683943363797 0.22020804378560138
Ni 6.718335793090956 7.1522727068676595 3.759407052910897 1.6046439949012883 -1.3203681741015003 0.5591722572672048
