# total energy = -340893.68673476414 ev
CRYSTAL
PRIMVEC
9.01619744476336 0.00000000000000 0.00000000000000

0.00000000000000 9.01619744476336 0.00000000000000

0.00000000000000 0.00000000000000 13.19611633161687

PRIMCOORD
 96 1
Ni 6.199384110134505 2.2863544049230975 11.366435247975428 0.2641152866915129 -0.6249300203893043 1.0771670118548353
Ni 4.560212360142455 0.33938770544600877 5.970371792587637 0.6723794721205194 1.0813800214949183 0.11643009266598658
Ni 2.765204652950235 1.5487843702806567 4.740388444052738 -0.28858627524968367 -0.5507842903138256 0.2774045476012513
Ni 3.5228176945850374 4.2745070944771575 4.741971688329778 -0.6464540105040092 0.1221076026667381 0.4493612125796325
Ni 5.215509592803204 4.602119646017623 2.7382994180577898 -0.6038755137118503 -0.36235508160171787 -0.33298022798402654
Ni 7.3457305060093745 5.811173695348128 2.608080281130538 0.3742423199576071 0.5597512696991264 -0.421923428083654
Ni 4.72400961971521 4.52408445685033 11.385529750993165 1.0091736745339974 -0.463880232131414 -0.7581933825625458
Ni 5.520662796427351 7.794845334755898 12.694782606130017 0.16480591286621296 -0.5783771123304298 -0.9323336854558071
Ni 1.9630876605667615 6.432389701544132 0.3194564993023674 -0.8560791365674418 0.5386347994354852 0.20092811251006684
Ni 2.6569561860360227 1.34302572764787 0.5344360070953379 0.3119961695331917 0.2287731597467931 -0.7096080174546747
Ni 0.41103582032027824 0.09609463271461563 4.97076581389769 1.1069416720141065 0.9792257220216554 -0.5355577031720582
Ni 8.847179839533442 2.1002600889886196 1.5292976626726538 -0.48338796314703847 1.3702131226480854 -0.6048098526006616
Ni 7.0240235638166375 0.5196809999234981 4.769155523724276 -1.583303838662615 0.7945652363233606 -0.07434396212921389
Ni 0.7341420763615157 7.410827451796532 2.6490805375394744 1.1658299617098824 -0.4974308143933498 -1.018920469508116
Ni 7.712870067290962 3.863954542341671 4.003094305053107 -0.25523443926211525 9.7701920128864e-06 -0.685907074293309
Ni 7.737376092034659 4.037976169853849 12.46469555784384 0.07746476714638272 -1.4179482239405192 0.14864035884994403
Ni 7.748556176906691 9.065245591722942 7.024504127142186 0.4371091346851569 -0.5042311251446349 0.5281274721462582
Ni 6.811674080827838 0.6281611831128809 0.46965282498039557 0.631673509760725 0.6560951331381991 -0.4660487005376425
Ni 1.9090265404919975 6.564828626290331 9.032068689865186 -0.628052625178686 -0.2399029511113675 -0.5357518214607354
Ni 0.18822844987738938 4.867538467358667 1.136977665076057 0.12576602535493178 -0.8411369134353126 1.0813702513029053
Ni 6.225756487756033 2.0398245172973013 6.833278693223294 1.3392454706219774 0.6508817072580597 -0.40920932295109524
Ni 3.375997934862313 4.4067837276687625 0.46574340175417517 0.7113910774970263 -0.3417574599560243 -0.545344607355493
Ni 6.008475144747071 5.531779767917042 4.806751263965729 0.046444407505468396 0.6711265735500248 0.5049327791973498
Ni 5.536801789911979 2.8514355656245254 9.061759929778162 -0.9053322171662989 0.7877541269387982 0.25354342471293756
P 0.15512728407844317 5.703871929169047 12.324196152552805 0.6430539836835247 -0.6133626272666792 -0.7798955501263278
P 4.016824170571762 6.123954602038194 12.522560611634336 -0.23935839146180715 0.8996171690593926 0.21062554230348884
P 2.40865010750717 8.355598720668151 1.3512692370014987 -0.7253835351213765 0.29491890233593077 0.5842001467701099
P 6.444606649126071 7.790220025449968 5.893623214800377 -1.2031515809784763 -1.4828392681869496 -0.47996839594252816
P 4.743628865426132 0.7938969251432866 12.578208582465132 -0.45934120661047995 1.127613084320529 0.06393150854663829
P 3.933379262918002 6.08651935011184 7.863460400798755 0.37461898657073545 1.1141531021608813 1.0909144433479148
P 4.606907246878147 0.9642372392254238 3.7990694771952334 1.0901004320870518 -0.3476306309073497 -0.3308603534275463
P 0.3052884465863093 5.640974935566386 3.7842901262902044 -1.2998068050103808 -2.534861148234725 -2.1657648912544314
Ni 1.525720937133351 0.8719726871992272 2.767990657970766 -0.6041660483690756 0.5892778184033335 -0.4981352966595421
Ni 1.79292496557493 6.53864558881583 4.816001882577588 2.1102604304292236 0.8487836313472932 -0.520352970407162
Ni 5.878416496134918 5.716801156351704 9.21066513597742 -0.6647870044852422 -0.7915236212835594 0.424598660922972
Ni 8.886905205619067 2.329596088024927 10.132216089865626 -0.36651358385478167 0.3900155236314638 0.045587973042444066
Ni 2.212619941952547 5.340735559567447 6.733094313332908 1.9951318301834802 -0.6184711521378381 1.391408525778778
Ni 0.45267893160935646 0.025908043451440044 8.815995517318202 1.0010181353063987 -0.5491166728034156 1.2250321831016517
Ni 1.2838704559983491 0.872615542079369 11.439805456567893 -0.006398447327176078 0.7029982254476409 -0.3178060913467495
Ni 4.0825522501823395 6.997723315774929 1.3908314099127823 0.6150420718516312 -2.054921805757919 0.8555253209465008
Ni 5.701112972740948 7.803753337863614 8.145038952878625 -1.0548575497243573 0.6983764104049134 -1.234668420639835
Ni 5.405922667329378 2.965210961592412 4.6245925182301555 0.4837044659461928 -0.6760134693286809 0.9009027206400355
Ni 0.6071886061605947 7.413424116670037 6.716559508779021 -0.17125346826376958 0.25023364361341416 1.2272875547947315
Ni 5.115925691664817 4.490219619125044 6.96728553471082 -0.17290694470679255 -0.038572460956559376 0.05954186411937488
Ni 7.86451349266412 7.304490418747539 9.08167310352685 1.3713788608214124 -0.5342567249724477 -0.025989996305858465
Ni 4.612001398452903 0.43833145656349715 10.380130865423956 -0.46970558056393946 -0.716662867418927 -0.2540036521788077
Ni 8.171749437905557 7.2476883746396314 4.616093850487915 -1.1190572243307177 -0.5347406065874016 0.36480431447315886
Ni 7.15175603347961 5.989036222985698 7.042450868221041 0.5586315542723863 0.42747598247076696 -0.02963813458140702
Ni 2.4026453199871916 5.219729173222649 2.535066212338435 -0.8600900574990477 0.1335973484738925 0.5436564210197927
Ni 2.2235926542825983 5.243486853575718 11.344516871907759 -0.6612347683576096 -0.17718448903622389 0.12268044445107257
Ni 1.0946655519341524 3.3548369193827474 3.817610385687852 0.5895938069818555 0.2437315808288383 -0.8676190188862413
Ni 3.7564454036206087 2.6611487178630355 2.719073278556885 -0.42946113122159585 0.049933137385017236 -0.5458595993186985
Ni 1.2002271920000858 3.523800460110079 8.138717696827188 -0.0673436195519808 -0.15670950901132366 -0.22373019800624694
Ni 3.746157922298843 2.5755309066172116 7.146092959844026 -0.20761246650877793 -0.03962995568679627 -0.2846370607939485
Ni 4.204352061905153 7.134057237831384 5.778077939267668 -0.12189908620035779 -2.141221397587112 0.27579940789766044
Ni 0.8012559455243777 7.393759789971728 11.072293526330487 -0.38133033715264003 -0.26725203254828167 -0.06678106218029144
P 0.2414068842191115 5.632084964853624 7.953405085214004 -0.2905454558585835 0.39300751638025216 1.058341651618216
P 8.588757587434896 1.7548585798251544 7.965466052579583 -0.3044810921030691 0.8051604953407036 0.7687166506913728
P 1.8529457921822856 3.3868173718352472 10.37547309780711 -0.2695354292658197 -0.6155550069323076 -0.12725340853373568
P 3.99960323338984 6.099682998428911 3.7184015583645267 -0.39948463946416357 1.0943962312489282 0.2489689179683777
P 6.788367210348641 4.138218253408089 10.462659727414009 -0.1624358699721396 0.29299057496496633 -0.5584901435985157
P 6.238667682543735 7.843821319453382 10.340015097987559 -0.512685426559575 -0.8111642783326223 0.8852166773633465
P 2.390608696354801 8.51281415608237 5.8333562460018875 -0.38466531506314394 0.29775302935061626 0.28223256511751393
P 6.715218800214124 3.6090035262719407 1.5746401197867277 1.6048710233104297 0.10322619238120288 -0.5888085920763988
Ni 4.9544906758311535 2.631927221838634 0.5155840397897469 0.7788889632386844 0.10261889781450714 0.0998091962798539
Ni 1.5475671836212017 1.3374447014093311 6.958153929905663 0.38449690780607976 -1.2851797991258254 0.15323414886821352
Ni 6.880251278841289 0.7801553385679117 9.545529415148994 0.5972708639111391 0.03896969639497805 -1.361288566464946
Ni 2.5932206860679594 1.669150606604556 9.191517437394568 0.3690759452653192 0.22157638488803774 0.320056577943823
Ni 6.303133494507471 1.767977147154838 2.695662721806697 1.0092942592722616 0.3645765147330689 -0.4982368552344129
Ni 3.741866212299579 6.8584230647483935 10.45501940167162 2.117177212153715 -0.0003440136029800527 -1.3500525885398102
Ni 8.257313151966516 7.123282881845837 0.4168801195251585 -0.2716745870960095 -0.047926905588265845 0.17265034861129622
Ni 7.814771131181052 3.8313609884607045 8.410412693232283 -1.5061892557667995 -0.5235354819002016 -1.6582090726119378
Ni 2.916550543806638 8.235151338566956 12.07712529307836 0.7902547818734648 0.878137401919062 2.0331880136252534
Ni -0.0938405833452542 4.9359623900150025 10.078639139595401 0.9229489018067975 0.8920810085833475 1.501311358849208
Ni 8.723180075626134 2.402834660134218 5.8100782273546185 -0.4237360558123605 0.5121598930734083 0.506200847276496
Ni 3.562479947288321 2.4759109406889146 11.545770120661066 -0.6609465476932295 -0.2081328577886222 -0.15816218229745016
Ni 0.9903030661327192 3.116349479906833 12.50673808668117 1.157972927559309 0.3718763908285918 0.27907653598703547
Ni 3.2089458280001995 8.398470739673405 8.01268207552947 0.4523164385532146 0.14661844332390878 -0.6227209285531276
Ni 5.595452154502763 7.6133312471399615 3.4442262060333872 0.2290652370659152 0.7709144296736401 0.8542407978071224
Ni 3.0787609526233624 8.295334456728904 3.6408613584387464 0.922693848373198 -0.5456122591945829 -0.14451013873165433
Ni 3.381308475176528 4.352398024484811 9.108157281997098 0.7820316226327242 -0.038616683930933496 0.0034604477447746857
Ni 7.003241228631126 6.114532675674264 11.564706840222945 0.28884004313170253 0.6596512259205737 -1.203592782280953
Ni 0.5143001332689586 9.040811696559064 0.3321368794346469 0.17832425906762192 0.10237644278639788 0.46612814762532623
Ni 4.684735063503457 0.16877149572106168 1.5767904828850985 -0.23881743135667255 1.085304553360305 0.5961115534957153
Ni 5.969525171644506 5.213390786396004 0.354515081573667 -0.938977673134886 1.028355903889403 0.5637539631006163
Ni 7.903742967888485 8.737642056379956 11.532851712915381 -0.05378439281030737 -0.2850070425388575 0.20225737284445167
Ni 0.17158274609452923 4.9625782049684215 5.906264825283503 -1.5959580370915158 -1.3755538181347082 -1.0724966029623593
Ni 8.017320007511868 8.812097815148702 2.5940005871497585 -0.5304172966216995 0.9052023764566539 -0.09838377668723701
P 8.496386644278466 1.7929159493774525 3.697063825414404 0.15776314708681863 -1.2275960871740859 -0.6360479846793369
P 2.0025245083331087 3.207070458924891 1.5176857019414514 -2.031410095789224 -0.4182513785487055 0.46195293320171416
P 5.030830819872684 0.9196791912918875 8.16413345589636 -1.0805613822483648 0.15835758613770792 0.399773374349176
P 8.323474009056014 1.7207863695578873 12.28274688950949 -0.3779524218193426 -0.23145276346148527 0.7661038956588742
P 6.528168767347037 7.6200933952480465 1.5149005985406685 -1.1028510468845008 -0.14143792756423385 -0.1833955029429422
P 1.9682539417213378 3.1472930696494266 5.868550071235348 -0.4733894571734299 1.8962281764370312 0.9703626152040706
P 7.058762972697235 3.972626770537323 6.1161628041781855 -0.5954518084245293 0.22170494004610206 -0.5337548456353647
P 2.3869571363764357 8.711855731594461 10.015046997167229 -0.27248294192991784 -1.1014173997617676 -0.16550371026418592
