# total energy = -340854.2315922658 ev
CRYSTAL
PRIMVEC
9.39268962805112 0.00000000000000 0.00000000000000

0.00000000000000 9.39268962805112 0.00000000000000

0.00000000000000 0.00000000000000 13.74715069826578

PRIMCOORD
 96 1
Ni 4.644008732728697 8.769747638800117 0.8568086593123729 -0.4675998470748463 -0.5021909547861544 -1.2480934357964892
Ni 0.8109009496315199 2.8290405362620095 10.321402114335864 -0.6909042703975844 -1.4184809565155376 0.6256748689751288
Ni 1.259465748241586 0.025244731833461938 1.73601794404783 0.6131201722385698 0.38727755587501045 -1.7875784990474117
Ni 0.9856406683811421 6.24659882468729 9.971165626054994 0.19759416304082744 0.7505001276833462 1.537635647201539
Ni 1.9207392740336096 8.082822677715024 5.874844623805579 1.5874633693569433 1.3406953156946264 -0.38936194920786493
Ni 4.533353456570638 3.5715702197692827 12.311068701717941 -1.6455463895426046 2.256330971669463 -0.9310314217046158
Ni 3.0855079257447184 5.8847642432903875 6.216007773934452 0.6872977839932485 8.227530116114863e-05 1.271522613353707
Ni 6.646492584336671 7.530748561193317 5.654492125828492 1.1362913288208172 0.4514733738266289 -2.046546180099714
Ni 6.121093706274253 8.024137153104588 12.577694285001257 0.024758695001918653 0.9974491870082177 0.23472989155086027
Ni 8.183192958762898 0.8593202645109694 11.293352937627423 1.108154461375285 1.2451186694388812 -0.8626848148094175
Ni 4.229283916203535 2.159848973138584 9.31986713661641 -0.7720192327020446 0.22368623214218894 0.5344863244847504
Ni 8.329315030844295 5.972228968830142 13.069429763543221 -1.5547239701423934 0.530796534337989 0.8626045963907853
Ni 3.2935466076583806 2.290031650971595 5.785626283117815 1.2302723484546685 2.9750381232119283 -0.6398709579698528
Ni 4.456436721449821 9.142590452406276 6.011546767488799 0.7703714126859764 -0.89432558164315 0.14071261936243507
Ni 4.2939150133297215 5.370523880470799 8.428254805266343 -0.803723762894177 -0.029948980953606482 -0.5527311296275513
Ni 2.6987733242226133 3.0602603761043774 0.47138715579611595 0.03892598764123619 0.29315769667045 1.1194223209796204
Ni 4.305965834084393 4.670195551328873 4.431022921203589 -1.469520439590856 2.1689939397146905 -0.554745846064735
Ni 5.911317376784899 3.070686261558536 5.178689466652195 1.3064189110102598 -0.7988391811083662 -0.8773604145437213
Ni 1.456496197945992 5.224909013627714 1.0927210868780721 0.34464069504109035 0.7902596669694713 0.6612753917875579
Ni 5.388914766704351 2.0449388085924767 7.185085373477879 -0.6040259232467855 -0.49904778117148246 1.087435740770695
Ni 6.574779399253335 4.758731043482838 0.41841332573043083 0.4235175120436513 -1.9761367771382161 2.196687806085533
Ni 4.608551329494959 3.0177772410510797 3.0340096872149327 -0.827223388678014 0.13636745501986192 -1.5393729416076198
Ni 1.7811075504646674 3.902333783974872 12.210315198934456 -1.0368935090467692 2.9122630968672363 0.6809391887650724
Ni 5.937335126972304 1.7388028765137384 12.070809337406132 -0.11301361078526988 -0.13306641567108696 0.024777978275628294
P 4.463114923754242 4.083077309915754 6.411588931633833 0.46841385833570937 0.08156516246800145 2.4235349524542067
P 5.046814226153565 6.752254269213994 4.400421538492193 -0.6521261211881221 -0.02772214850561677 -0.8763952224169745
P 0.4896033380031391 9.312992627099383 10.239909260842737 1.1445013754354354 -0.18489779852008156 1.034009759741071
P 8.158922248840785 8.320194729244307 1.5176031579348808 -1.47718952610034 1.40779236645344 0.3831673903613788
P 4.961923097563756 -0.01737553648797159 10.870077955760893 -1.6878983721462542 -0.9311921156521963 0.5833308567912793
P 5.302417488193226 5.739008486103327 10.31162808153983 -2.2807623652389495 0.3756767384112885 0.18042536457102476
P 1.9734416553699026 0.6773538103843836 5.277517468068024 -0.021113384939847508 -0.8430503284079418 -1.3677667179901218
P 8.631515425981329 3.4234475048034407 5.3573055483990535 0.45259026103989153 -0.613128399768686 -0.251173124708548
Ni 8.762383770155017 1.3188839026406936 1.7145312273226645 -1.1713591190582278 0.39513896090095824 0.2467685678829492
Ni 4.078108577118232 6.472925073248922 1.861803903879857 -1.7195879899400515 0.4146302368563504 0.4771031585795912
Ni 8.430671544299996 7.818878707312035 11.257431535527527 1.2181858496037794 -0.5774342888011862 0.2984621396024989
Ni 9.176892554819418 3.772132320762665 0.2705057033563904 -1.0794995166427537 0.2680292770339384 -0.594229505981654
Ni 2.6332780996533796 1.9694591549802059 12.04985894325703 1.6855913212796325 -2.3954209678268104 -1.218143169291302
Ni 3.2078195296943193 8.357896985292047 3.765331074224506 1.2302232403842879 -1.498454091906071 -0.28861404316382555
Ni 0.1989634652237443 7.481033055149297 0.33206351244599963 3.192821102495804 -0.3672545757858643 0.39328622396293555
Ni 7.361764682629558 5.775470907124088 10.055023558788985 3.2712371778118627 -1.91286989875877 -1.282779931435081
Ni 0.9865141885137877 2.110950631089619 6.448238267177601 -1.7208079783900814 0.42269501614235583 1.425763091999248
Ni 3.5196098609112587 8.679455713691263 12.423300071190603 1.125144053954746 1.276133372652841 -0.44350629646075224
Ni 9.171285119129209 1.3274500355543808 4.129698864006081 -0.04078515233716202 0.6691118571128412 0.24701513667611655
Ni 9.154397063231391 6.414361653603264 4.189526539671676 -4.016499197024721 0.833087560768275 -0.5767195221223487
Ni 2.9617216695281785 0.8872522448385168 7.375346511788759 -1.215657426754971 -1.3827657625021152 2.7816947650276544
Ni 4.143894975065014 0.9741628016919689 4.200427695219511 1.9434727112462917 0.8659277472267473 -0.7864366936789552
Ni 5.961070453587313 3.6966902379087876 10.207878310774472 -0.6460688592504487 -0.8299772972740674 0.8278409676573549
Ni 1.2568733659124438 9.218351886706497 12.22875023080912 0.47306498395447555 -1.3970916922064842 -0.5358436098435932
Ni 5.778185394418009 5.20850937758901 2.5280874903036357 -0.18465842881576586 -0.7993580297263136 1.91843196622758
Ni 7.3317268612940625 5.0458655645041315 4.536380720428183 -0.5766274766291747 0.4224049957057628 0.9301150805379337
Ni 0.6371127103382098 6.670800865017178 6.748297129086213 -3.4946058787136334 -1.6317935587328865 0.4942218205377489
Ni 8.603882133183008 9.341189481273604 13.268392289498006 -2.1373326040556675 -1.3360231070299378 1.422018280244835
Ni 0.5596587133723677 1.6647978751684072 13.337829625891661 1.8368230950058366 1.702003444089069 0.333543042466032
Ni 6.138977387269495 7.144323918427958 1.2075495350246743 2.2330072093418574 -1.1492939117280723 -1.3112068193172064
Ni 2.053730366056524 1.937242229657895 3.465106900978964 -0.46604355833131994 -2.863302093587501 0.34338522536743443
Ni 1.7152741890698933 6.103012778797446 4.396860769865462 3.971496921282419 0.6899084821432183 -1.480203116115683
P 7.758333430161127 2.6283751156830455 9.717021987978914 1.611518096313302 1.0061001778149963 -0.4420536231746258
P 6.123751837430584 1.6723120268470801 2.639466942829727 0.10707436248269946 -1.0564117815853549 -1.0886873537896087
P 1.75849934660146 7.391736755137865 2.389433545721881 1.6028280247384719 -2.980882754918163 -2.4280487811641605
P 7.886111579456962 2.206821813819889 13.05414316122192 -0.6611941449276613 0.2576235083195821 0.7852182478908218
P 4.253977297157574 5.797111663958667 13.235151561009474 1.061196861678824 -0.7616018940234626 0.7323054590521905
P 0.7629644189974253 -0.05816047326188922 7.980110799150283 4.340541756199486 0.2938549798477907 -2.078670314327768
P 2.102253000521555 3.236608123313235 8.746266854073223 1.0938529571509485 -0.6587477402696977 -0.8271200303309303
P 1.7608850897594388 5.509469937699063 8.048063151318441 2.0505609576860624 -0.7088120039159406 0.6074542322020442
Ni 6.388775967137382 7.6477345101406575 10.211273768064274 -2.047247062821481 3.0929260313703635 -0.6590842976735101
Ni 8.405968770656358 8.994749518128383 8.772991873787383 -3.0593551373934535 -0.74131434741902 0.6404083185305616
Ni 0.8375517670978536 8.512763651389498 3.758347609508139 -2.28864485331082 1.4268858927497814 2.725800782073512
Ni 6.477273888532954 0.8825258434326314 9.870879879213506 -0.3798830631831522 0.2040527741819776 -2.6930603544176974
Ni 0.5293691679556367 3.3880558503968903 2.4586501539099777 -2.3564990939506316 -0.0377633347917027 -0.6000941922925472
Ni 3.332150561907563 7.231281438729401 10.344098609481296 1.2560754255607012 -1.2716920490520356 0.8632422299747842
Ni 5.910528390858637 5.941975115633884 6.936221366225026 -1.081283862236686 -0.307130099690142 -0.5105246714628304
Ni 8.865769104563961 9.278793844271823 6.123682331527555 0.8229234757510795 -0.29072311908702836 1.3090982576146357
Ni 2.500756642110382 7.615836936264691 8.204698460867261 -2.5670966112296623 0.35429210208792533 0.6533664213531264
Ni 3.1283479830027536 4.673586312273874 10.277493169001538 -0.32093101012897635 -0.6897069076553736 0.6642337030849335
Ni 1.5654889680451445 4.017027916660218 5.06319977315787 -1.1229439609796337 -0.9920660683194334 1.584123763460749
Ni 2.842819611902776 0.04522767895393308 9.944578678877928 -0.7500920936116501 1.227450305624841 0.37921097681679206
Ni 9.398888773476216 4.488052514637838 8.657185646653595 -1.241276927095288 -0.8447223167937258 -0.23344613974243023
Ni 2.705742699904583 7.079843104335344 0.09811039993051432 -1.6726072503151388 0.22099891511801298 -0.23063052467050604
Ni 6.32230390284992 8.879059760345614 2.6400436539710648 -0.4028592123633513 0.6950172641246933 1.2200573555948795
Ni 6.284676788318965 8.663140611858944 7.615976887339706 0.42602202363305985 0.8844476604078058 1.1424424360238776
Ni 6.571088072241187 0.8474554190103447 0.5511207585274756 0.24166955609348703 -0.6410914606405153 0.3372924822061352
Ni 3.6121748169029124 0.9191385474869658 2.0338225604528395 0.2567367348392546 0.7255015487564795 0.17988491868652245
Ni 8.875819282434186 4.434269973997735 11.47129650279904 -0.3283026200026991 -0.7599584448827685 -0.8376034463607573
Ni 7.914965921903066 2.2962965749336886 7.43344217549242 1.5770228907499098 -1.3830825224115857 -0.4788620502522269
Ni 6.9823000228565695 4.163863833151088 8.03811065742004 -1.4135716921393784 -0.17174146364378168 0.7139063877197124
Ni 7.567530333660422 3.1111499683481902 3.2485481103306464 0.318447067364858 -0.05071860940079007 -0.3424660559872747
Ni 6.2516802697599925 5.611390012530664 12.299727029027945 -1.7551748859057255 0.8804241410707094 -3.144141120791598
Ni 5.219630322073446 2.714618791575015 0.44935190599840724 -0.1508425087075854 -0.16681780108991914 1.9680066918319141
P 2.335774049315517 3.8720611453994183 3.170134180487854 3.4683127493450594 3.7260894954130537 -1.4781722017285834
P 7.940401325335375 5.948559391042322 7.571187846990016 0.8850834942195918 1.387785841424526 0.08964639681423915
P 7.60281866848139 8.989085726300583 4.4021404006886895 0.7050553650869857 0.4065181492721773 -1.291719657126872
P 0.8740940259802004 6.03713245395468 12.416728945547604 1.5585209752909805 -0.1907758545674134 -0.6800151342889063
P 7.869984331416609 5.220146920001355 2.2293755400834265 1.240561389085502 -0.31276930025379035 0.1519262286900674
P 6.9601896315420735 0.964178372648932 6.074370711136264 -1.945820899763494 -0.3950836821829905 0.11849186029102174
P 2.674042372510181 0.9097167405508697 0.21986689592485287 -0.16569242923622432 -0.8994407913825284 -1.7444040205424667
P 4.371921300443946 7.7429951680470355 7.601542201964975 1.9457316824837971 -0.7674426690749557 -0.3569398241234175
