# total energy = -381164.1566124153 ev
CRYSTAL
PRIMVEC
9.32919855984375 0.00000000000000 0.00000000000000

0.00000000000000 9.32919855984375 0.00000000000000

0.00000000000000 0.00000000000000 13.65422510217814

PRIMCOORD
 96 1
Ni 5.923565187075437 8.087034280779584 7.873530911077743 -0.5429920479629164 -0.5779911897459207 -1.4063088399293782
Ni 0.8249716842264398 4.706160772670151 5.30642751869063 0.306958092888652 -0.9308799837284161 1.490172311513253
Ni 4.4209578487595955 6.302545213179211 11.67905926767732 -1.6206419129914411 0.7360854949199128 -0.18353228563112264
Ni 4.3047813412374945 0.0959918538904605 4.27657171115275 0.986118849597063 1.7199093778352121 -0.5804162542476455
Ni 2.446283742827451 2.701801157468326 6.32260205679294 -0.45280777636733627 -0.04805623207727852 -0.32427910066560284
Ni 0.7407532787012643 4.517654990048166 10.945254375935221 0.3230231167713146 -0.0027665070015436225 1.2904271635676936
Ni 3.4871330777454035 7.023533652176282 2.1985897939545054 0.7747155485872852 -0.8078714665139637 -0.7338851448344845
Ni 3.7398144160764164 8.056406522472747 9.99680422060862 0.7734472233978228 -0.3012515294221779 0.3440925358471042
Ni 4.840165378311157 5.951422173461127 0.23116727392912428 -0.7777759326801638 -1.0280885091606293 0.8903087471742731
Ni 0.7113420478641828 4.13644528552973 0.3508114444919354 -0.8614326875698712 -1.7923530376179198 -0.198934993339438
Ni 6.870133643087234 3.117053106903501 6.254672431652699 -0.06185919939864186 0.06047543167723778 -0.6244937041828341
Ni 5.7538484100062925 3.98220564858579 4.070843295387221 0.6546707419868468 -0.5597214449024553 -0.36322874245592285
Ni 8.24873727643369 5.798469965894689 1.5719699283284345 1.5530581524041962 -0.1516125541043905 0.5262891333859389
Ni 4.865960611853165 0.6799791487243932 6.4905770725231005 -1.7515997669599574 1.8616247274305489 1.863116481484727
Ni 3.3668610521311 -0.022426460004206075 2.2631198592022668 -1.2411838531608492 0.774617332446524 -2.595476962144569
Ni 7.608502378680601 8.387089288523368 1.2877493690081045 -0.7408057832137177 -0.11736623132701077 -1.5624123399255867
Ni 1.8750662547466095 6.39018370283332 10.310714953797824 1.06854301763125 -1.5124552912811693 -2.514677731308314
Ni 1.1026179574429535 2.391213484744823 10.971975065957286 3.5297657144442174 -1.71469878016855 0.09461608211468865
Ni 2.474047437229263 5.864623311661912 3.976274144250886 0.9310378494625191 -0.1410941710715699 0.6229153039521208
Ni 7.134700380164184 4.020287436404405 10.719126734975132 0.7666883074074344 0.2549374768469868 -0.07827646441440068
Ni 2.4165982335577705 1.5555318807692968 4.21089508742314 -0.36032725253841164 -0.27693172172989083 -0.8035931508535837
Ni 8.217018001915491 7.440203639766388 6.064906274328536 0.3963386376360142 0.08496158974406012 0.381360161949311
Ni 6.010951788373077 5.983626566295488 6.288753859202666 -0.6276116809865255 0.7140405993047315 2.3713757539521483
Ni 9.02402165004721 1.114559331379217 7.982764629159713 0.26804418943227387 -1.7946783433169864 -0.9207881467100528
P 4.064908992292803 4.761277676744717 2.156466597394336 1.4243453857161148 1.433995507211369 1.4942536806714781
Ni 1.0116302855676584 0.48940974741904847 5.473541449409605 -2.3987901414093593 -0.4475593834842034 1.08280312709469
P 2.449511645469597 3.285333187420939 12.373703916267186 0.7262183723178461 0.8920450131390896 1.1583164269416568
Ni 1.9685448225914222 5.7628417572520405 12.858211169933496 0.9241007560230537 -0.27975813543509237 0.08657315720555413
P 0.6011250322721484 8.220814985659286 7.489124090271839 0.15959145854480902 0.09808090073483754 -0.6536731539602678
P 6.1617116343184035 1.586224943464849 3.457523134982664 0.49576114000041066 0.4628235087321255 0.40588411523260415
P 5.0799630936687485 8.467740208585084 11.78597188120043 -1.0536041369332307 0.3331743462727036 -0.14584556971362622
Ni 5.720785730920263 1.0546099025398192 1.3599433707313664 1.389717254119284 -1.0278743362672944 0.672360445957126
Ni 9.087749404233627 1.88177394838737 1.2403057306074265 -1.640831757675755 -0.026881397771876286 0.21933464004171258
Ni 8.311905278716846 7.967629870615338 8.904015506586955 -0.8973319725696417 -0.2939246567434615 -2.0438647766128093
Ni 8.00978851812938 3.2229954837942882 8.429039894913364 0.6138051141207365 0.5298210577985972 -0.4825263864776915
Ni 6.841875501170874 5.275372483097635 8.438433464769945 -0.5923472013572766 0.8076791479974993 0.6084381933818683
Ni 8.891267156990155 5.560099617890417 12.729082936289743 0.1788297379491307 -0.6777307091301037 -1.0406887144231434
Ni 1.25825697414505 3.0473919825425013 8.331084244762293 -0.6466219035404412 0.22512425014029616 0.6939769957856371
Ni 4.210061990007118 6.138565893118506 8.52359505225212 1.683016361463605 0.08670402635646357 0.6722532309553003
Ni 5.5306473385804304 8.240266364297653 2.626662860733904 0.17052044675248698 0.35834930287643446 0.01489979992996789
Ni 3.385855300048469 4.09167446246713 8.933331579600482 0.13667701584048073 -1.8018771750582712 0.15609090159071828
Ni 7.479768770128649 7.603987046660952 3.6099585049584224 -0.2424704547282276 -1.3095440869028028 0.7381421203386256
Ni 1.0007617694459812 8.987106012027057 9.597896093828869 1.2101017870440642 0.21346532574512914 0.4608648423438579
Ni 7.253554367623557 8.678085644632688 11.834881136667816 1.4002369227036855 -0.6057660458663439 2.318009422515866
Ni 5.0085667384076356 6.547147465706471 4.437309134773727 -0.5637344227165904 -0.1493271005043235 -1.6872730798574296
Ni 5.233195177186817 3.1742037762265864 0.7742124487187712 -0.09183209161164829 1.2093664515399365 0.8128442371382066
Ni 6.384716792578124 8.713312697744666 9.945614909055278 -1.8855658116271785 2.205822678507266 -2.026410328581787
Ni 7.1692090850003085 4.288697803217089 -0.1522347922104227 0.08746250178904291 -0.1713272589244985 0.795121880157779
Ni 5.547701113233156 3.076452435520205 8.29798611472239 0.760800995388722 0.38670471409067597 1.7919771423357398
Ni 2.6551644947281847 8.37455084589029 -0.13188781052683626 1.1906827590875042 0.436271726385526 3.445248154216112
Ni 9.011567170199621 7.151940738784666 10.850807437297762 0.12023275424152842 -0.37895180961813446 1.3631508164846653
Ni 8.758456688742775 2.5958960973710887 12.603750753469948 0.12396008249444457 0.5121326393798986 -0.38557162892749725
Ni 0.30538384586284056 0.13650576372875067 12.035311500668966 -0.2964016575290444 0.9182075304670704 -0.3668766236211553
Ni 7.050121867581243 6.670815319533899 13.239792176547763 -1.0820755049000461 0.5747721685879907 0.2330630453713986
Ni 6.419253485009412 2.3377851655784316 12.380613120593122 1.3772216927554346 -2.238443035645448 0.09525962923595852
Ni 1.058201643919086 7.801364896949644 2.133294734438952 0.6286882018801561 -0.23551227824283955 -2.5178376170935346
P 1.6804311887839027 1.5867940245664989 1.8532881740303488 1.611113661786032 -0.3731406022529961 4.194218732628809
Ni 3.323219062073412 5.219117416819769 6.46579405700616 1.3262295179782837 -0.6138115418786396 -0.8027500861269982
P 8.899532826761662 4.503903751624688 3.5893950858722414 -0.434831908615206 0.18389969627287037 -1.880433889717252
Ni 1.6628269914263016 6.896227410977648 6.050869562434394 -0.5078900620534607 0.9595233584967218 0.2675032293271393
P 7.1069553441591475 1.2666812402891485 8.924319573957957 -2.724381790238798 -0.5749796566131065 -0.6525511245406826
P 9.326045118650798 2.52102928030975 6.394778333039265 0.20791045736517097 0.673044616508344 -1.0734080590330353
P 8.923322282650311 5.381781319907808 9.545886745737247 -1.8460307296470335 0.7362677861340481 -1.1606152502781624
Ni 1.8547752482533493 5.505617099306216 8.124127173569104 -0.12460542938792735 1.0269353693927927 0.592403765626825
Ni 2.8326058480623497 3.4692116876426207 1.2543685642570543 -1.0692058480262296 -2.074210221673886 -2.6076094837420447
Ni 5.1256388489749565 4.089360821266979 12.327224916979798 -1.1540375970606447 1.6425729087365775 0.6196299483326296
Ni 4.53455949752669 1.1406157824760794 13.02416454837304 -1.4241342981465732 -0.20549644860703964 -0.8114381008192992
Ni 4.659897277865517 0.918968955501609 8.942957446496917 -0.20498197086446635 -0.7872010826488055 0.04167963912697338
Ni 0.3355274187733569 6.867484150745127 4.009372274290789 -1.5124555483914857 -1.1208847644577598 0.7076755763186522
Ni 4.197532876572428 2.674373314208471 10.810691884230629 -0.6976511022031147 -1.0611552098076111 -0.22244001843991365
Ni 9.097395795366516 5.522726849149268 7.427311620514417 -1.5069186777336563 -0.1270793448497166 -0.7777545925239251
Ni 2.1450812436819797 0.5704935422859551 7.499528012313809 -0.120417873669141 1.9681200774813268 0.5157578948373118
Ni 6.029246346411369 5.786864443100383 2.230376238701097 -0.0913446104522685 0.13714855616026056 0.6279868049377572
Ni 1.492317232494202 3.530915005778907 3.309483683287193 -0.5400031405379216 -0.44948925351706465 -0.838824206141736
Ni 3.5506742479640683 3.8005568267787693 4.5533559664382395 -0.18051895272609556 0.07866932897744515 -0.3097299992068343
Ni 8.612977169084889 1.7392984306103263 10.22736976124174 -2.0281057140063394 -0.9467202931947826 1.2724260990045828
Ni 8.85127288350206 9.252932190886346 2.8473431827554085 1.0161740171112306 1.7533236916295998 1.5507855543199358
Ni 1.744989241626827 5.459801406024192 1.7924991173360576 -0.324641369101028 1.3869682306192372 0.15266362107672415
Ni 0.11748725989557353 7.605013258483599 13.445519659393453 0.26545688832107184 0.38140824157842695 0.5552173863845148
Ni 2.9398729711241915 0.5414732048613184 11.156034552627691 -0.15015319595004464 0.4623337135799005 1.2675682566916493
Ni 4.052417195651664 2.0898430600283735 2.8045911982239073 1.6142041277858976 1.502967149285076 -0.25213060352581096
Ni 7.473089064083051 3.3831311741192587 2.2964083048892787 -0.5904283870680089 0.3386428255864426 -0.249241454903474
Ni 1.9075691819293765 7.859579094888929 11.724855369642729 -0.748548146163298 0.5748811833620292 -1.2749450087716947
Ni 5.104769432181658 8.2757453057661 0.29477561437618033 -0.0681162360519472 0.11482700984492482 -0.16801747782497514
Ni 1.7451291796026427 1.3808986161498311 13.54460880714863 0.969759434402433 0.454002825116702 -3.0539846171101597
Ni 7.619809367126501 5.141936958558278 5.1167845067851845 1.2155774654466547 0.29394625401001634 -0.5341546521769446
Ni 6.519047920162701 6.616332800949698 10.704707525947097 0.7183448831070403 -1.4383432426571034 -0.4021341612718687
Ni 3.0853151739885254 7.987174541237581 7.763983731929946 0.7156346832647288 -1.3313290439883783 -0.9173184429938976
P 2.589067124151289 1.6267976272529818 9.388945372940228 0.2813000260009155 0.6474698533630333 -0.6628036555066262
Ni 6.318656738794779 8.836280861693016 5.448527069772649 1.4852530198347647 -1.4555542072187513 -1.2406048407289278
P 4.121845090052971 7.998780064031888 5.696460779044158 -0.6610334509800809 -1.112839011335148 2.2429990304472467
Ni 2.1991999235290614 8.305608069805144 4.014164683502553 0.5395416275204709 0.17941286414611038 1.3028227090185691
P 5.0430287972518215 4.687166524752781 10.317937619189586 0.46687196776988626 0.6114319859028696 -1.9751188773966626
P 7.853683041507899 0.7251296701613733 -0.4274200228922595 0.14735712126214623 0.7890527911455637 1.8757670803692017
P 4.5933707641627874 3.098376051731314 6.495110130019687 -0.41435795703157025 0.18427816265821165 -1.662156744405776
Ni 8.552318721168026 2.1460608095126887 4.100159368400749 -0.1596701343015444 0.10220803552933366 0.7903925930029098
