# total energy = -381175.316319992 ev
CRYSTAL
PRIMVEC
9.19467557868314 0.00000000000000 0.00000000000000

0.00000000000000 9.19467557868314 0.00000000000000

0.00000000000000 0.00000000000000 13.45733712145150

PRIMCOORD
 96 1
Ni 7.4449657095051585 6.16946190422079 6.6441563471050955 0.11523093015156285 0.05048463901311306 -0.5998013436424767
Ni 2.4006286891617092 6.5455149465091464 5.833849804153439 -0.8075688476718802 -1.0103288711843632 -1.1019251926361215
Ni 1.6043054090456255 8.850261557258596 4.717281485501496 0.3197056223623075 0.759273503000602 0.3748143904109932
Ni 6.488452788988387 4.027442664370857 7.582724938485948 -0.6147371390167026 -0.37702476779875066 -0.3920346109440216
Ni 0.593791238555413 0.6896549276162314 11.826187314231719 -0.919470456339894 0.004797164278327222 0.012201941382830598
Ni 7.104854654607819 0.6217494890184123 1.8779306832763754 1.8825421943095064 -1.0216831198549179 0.73479994333927
Ni 3.684508844027356 6.41600793898741 12.934384800107816 -0.1463255946738383 -0.7259620333326658 -0.27101844156924937
Ni 8.61574215833425 7.857898596108012 4.280429569479612 -0.10726976632295719 -0.20113251521138908 -0.06555104642793226
Ni 3.9580320573576095 1.244370633295118 8.250114958845247 -0.5091941255768649 -0.8741789314919461 1.4659026403326108
Ni 1.2069850818159997 6.719910360897843 8.810801686936957 0.25082216912703253 1.0153895735367222 -0.16666584889308717
Ni 1.710936063375024 0.9194648136365919 9.759220534417068 0.6533885328403135 -1.2558625382189468 0.2544350832892715
Ni 1.8182747077348929 4.887016118767524 12.653315516413835 0.7625115503219255 -0.8872223949394654 0.018510657209677796
Ni 6.017060154155274 8.174406918431103 9.027908208982023 -1.6326949875012335 2.432949046679255 0.35775203561206775
Ni 2.861530198997853 1.1144774493931249 12.589002437619977 1.3163909346213072 1.2430712999915494 -0.5139702068092696
Ni 2.5287381059739458 2.806233419215409 11.043077702593413 -0.4527262723971235 1.3102858501648338 0.5856283945762043
Ni 5.817793141942916 2.4577000413581884 2.2081473476310003 -1.0111968756116132 1.3614153218507972 0.3958246741140731
Ni 4.820575392011964 4.463169152084564 0.7103107666220944 1.2909400986483701 0.12024663819859935 -0.6582420042778728
Ni 2.909379291446778 4.838238364070839 2.0775572073094013 -0.7297631522463109 1.7013359857083987 -0.6035600393539605
Ni 0.369816293747214 5.316094855935388 1.5104645486432937 0.32246390183373497 0.6433571167462404 -0.408755009022496
Ni 6.087472980822045 0.03866912820968514 5.332294955087148 0.30148318581700984 0.3794081804292627 -0.997557687561624
Ni 1.9043552618292128 2.8326956959387006 8.637094034292147 1.0059315134476159 1.6371113714013739 -0.7317804397866559
Ni 4.805450150451918 5.537603788715377 6.260971914328002 -0.6554477293621873 -1.73172565374385 -0.3825526395955154
Ni 4.965189251742307 7.890962649998546 6.909010820166162 0.18500347086001043 -0.2725783298572015 0.13242312566013323
Ni 1.6028618449575238 6.861388836207531 3.254670626644988 -0.9128519225821118 -0.8656431261067931 1.0465120059731394
P 5.674153917838935 8.416465951446172 2.880637654612402 -0.018446379630645653 0.1527135004780531 0.9492438309475846
Ni 7.106509696237489 8.104729665821964 11.151436036490672 0.3422804223390299 1.2679629210269066 0.14088873992898315
P 6.1606809889078145 6.882858404014648 12.734099937293209 0.03352564256127129 0.4170185345828689 0.8599419619569576
Ni 0.4607350862056048 9.139636391530807 8.047743824109684 -0.7841157588552624 0.4288908605404227 2.362287161387319
P 7.821064725172118 1.9087870955264423 11.743586025429996 0.6554729261731679 0.3734771596568084 -0.09496266682083
P 4.25489135766622 3.319351492467665 7.985961120074075 0.023676003460701162 1.573126641019297 -1.636321528510227
P 1.6666453104298906 2.8258824412298886 13.26561103985654 -0.2701370674055606 -0.3387127595924295 0.7778276118537055
Ni 5.964981510874968 1.0705636781525274 10.986032095488952 -0.41562062579407777 -1.1124448612205229 -0.6460876283035261
Ni 8.597398780272066 4.753362312495891 8.484097388707523 0.42242582164136927 -0.2745331395907272 0.39351839457839966
Ni 4.847451429142672 0.5937838828148367 1.1975439887863002 -1.3835311799132302 -0.8836673305983556 0.5337705293646484
Ni 7.530108406675999 7.096294411512133 2.223744276055503 -0.6840304260958865 1.507492033738623 0.834025242091196
Ni 3.9112771313194106 0.896544326000796 6.147257681823612 0.10739189372311828 0.40121293500918 -2.740330857368887
Ni 4.618586755786368 2.785830433791857 10.023778019452365 -0.10384479980180825 0.5490102291325384 0.6236138726810422
Ni 3.387484039555778 7.861806333289179 2.3767813782132974 1.3207684948637124 0.17068782556828668 -0.49559581806714004
Ni 3.0797842165728233 5.719152660814538 7.806130732867055 0.17915215428555598 -1.3186131390836064 0.8760915751336266
Ni 7.943491832389151 7.182099125334841 8.761036424067902 1.8035553340916421 -0.36081704769063666 0.5274273607554401
Ni 8.102945898732207 0.5831585155523504 9.759664637254362 0.19274326270642933 0.2221361140462497 0.3387927209007455
Ni 7.751295525805775 6.002256726245442 11.571857067000215 0.3487686011665348 0.12694641881627813 -0.26709365259354645
Ni 0.47713011248263776 5.409319673064453 10.526490478191853 0.035034365896313854 -0.3262495941284123 0.5815066590983469
Ni 1.7271830553729588 4.672320440696346 4.183105765914395 0.1736286533641655 -0.3678014494282698 0.7929559828547117
Ni 7.0827322648245525 2.523791370436374 0.275175496557208 0.627232443270236 -0.8259820600717453 -1.268523935736699
Ni 6.9855905158386 2.889114226159032 9.757511244200646 0.8418359963848664 0.669971376899659 0.5793621019515184
Ni 5.284483560808677 6.926257273414904 1.295877367745616 -0.449076334349362 0.0033244363875426616 0.15072089552805656
Ni 0.2872287969590713 3.0321925750440686 10.341910121507679 -1.1455732683433755 -0.512367381098524 0.47075690464658926
Ni 3.8941750344794794 7.903715665222731 4.731976416237829 0.13181608820375362 1.3345565497867402 0.7624231043731773
Ni 3.869772365117556 5.893115925444376 3.8668585723817634 0.5169915101340968 -1.5079766866845254 -0.14693957410875338
Ni 6.503375747682584 4.184119938646354 11.973450160037109 -2.770126857684397 -1.1785263262306283 -0.69960128395095
Ni 4.132969957613808 3.307646670275605 3.7245875160249775 0.5079139733128607 1.1449209794713573 -0.035355239570842335
Ni 5.516805432235848 2.5932755348553846 5.71028439608222 -1.1325650290091658 -0.790892929678096 0.6825669541764825
Ni 5.9258673603604155 6.671601534662896 4.782670341354644 1.696681260545207 1.6422882876166232 -1.764966675185167
Ni 4.76223517456607 8.510150502361256 12.65476827517766 -0.06067649194445034 1.1026232471444106 -0.7826124348368586
Ni 3.608321761008179 7.479951450621255 9.229015075806034 -0.2256500407367791 1.1312342260128838 0.3863501589647346
P 0.04638346113909493 5.649291514690992 5.311166509749257 2.0783088172232915 1.1008833816351686 3.1536279772361104
Ni 8.728147069016057 2.197095347415088 8.054660059186563 0.5391929859318004 1.0262450281939874 -0.6215713883297167
P 6.859825741335063 5.136817068739163 9.65224783815087 0.07341476544672518 -0.15739316534190959 0.7284899419608422
Ni 0.17682280877887935 2.882448086261747 4.3770665307685155 -0.6649021899068678 0.31116313210893504 1.1293053844212875
P 7.738156334201332 2.6979661126077805 6.1158615421087585 -0.37181185613924356 0.5298974195624874 0.5203570841722199
P 1.9937091204799928 6.68241447331008 0.998857160611898 0.06381272358058687 -0.8234132709033044 0.0531020220313021
P 6.187621388768567 4.652984037656359 2.7683899728854153 -0.7555114648550084 0.13089743304422619 -1.042548393339701
Ni 8.216261082310332 5.368421755460145 3.679734048925756 0.3616881374416804 0.33866930794900385 -2.9433441345427567
Ni 3.390867680220883 2.822443632510462 1.3164293069158384 0.1369328406050287 -2.7210545256377783 -0.7800621576111791
Ni 2.469515199658894 8.123753449887458 11.50505407002127 -0.003105635508517232 -0.269084200661014 -1.9165740870832346
Ni 7.130480215840554 5.539369166453693 0.7131528408872679 0.22728449101640855 -1.3901211744259219 -1.2503891738092014
Ni 2.7884417216964485 5.394157652801525 10.360601977779664 1.2811225983373162 -0.1444430329391448 0.17609434129583867
Ni 1.1875659266945295 4.522392058399616 7.059934066375838 -0.7275890274131277 0.6956914073735825 -1.3289145210096145
Ni 8.62250024498874 4.150209974589545 12.655777850571758 2.3583865407813316 -1.2002688601140425 1.0653386517613395
Ni 0.6143063990227541 6.82606289208978 12.67417455775312 -0.7278566792522175 1.2495882751744607 -0.0772048286167767
Ni 1.5022812872521438 1.4351877385204357 6.769188305953716 1.3583320549397835 0.8249135095979148 -0.9873398664883576
Ni 8.0999668237988 8.809823373440308 13.332790099072447 -0.7190159410321358 -0.6612607364995385 -0.2374570606740362
Ni 0.3505405755669819 1.2642403275268874 0.6900640906857889 -0.05350054302130141 1.0957799989703323 0.8649283594279555
Ni 6.599202658040522 4.378247127131014 4.841828884939652 -0.6123627252472551 -0.092017468149577 1.2283571337098265
Ni 2.1122376851915803 0.5342667468767324 2.4496252771405396 -0.5039385336048805 1.7413981438366073 0.11223970873372283
Ni 0.4465614935826189 7.613559283514286 6.627900160431441 -1.022970985428406 -2.191494949030684 -2.204230651429797
Ni 2.9823574326395383 3.42308582394514 6.04437661625299 1.4132384771696758 1.1157263601852718 1.7893217069907634
Ni 2.718856415844513 8.526783670739448 7.104667083223123 -1.5320326991924649 -1.022591233491484 0.9284996564216977
Ni 8.023365980372207 3.6640782745766427 1.9349229612616596 0.42490385086821664 -0.9445999044176699 1.36024495569178
Ni 5.327716926045965 6.441927729843198 10.759006357276725 -0.8048604476017815 -0.6913156469033901 0.7056212648927848
Ni 7.267168265099918 2.065179334854608 4.088554157078877 -0.7048393924214378 -1.188189303241689 -0.922809805125772
Ni 8.619089020296475 0.6567131629127791 5.846554087596305 -0.2008702626889379 0.0500092420385913 -0.34143761472276035
Ni 6.387182630603977 1.5072739961683173 7.887775775393858 -0.09217944764873802 -1.1728734988202254 -0.47872501045373045
Ni 1.3728202531090092 3.0317696199609308 2.3869948240035104 -0.8234340968389109 -0.4168856085494304 -0.7529295630604452
Ni 2.353607117527619 2.1131571527636193 4.467338018056191 -0.855151996767482 -1.5302892341387966 -0.7434391070715066
Ni 5.3308155317637365 6.033206004720285 8.44289144946658 0.5873523192458465 -0.6844605716547696 -0.1945512624494456
Ni 4.163385944896868 0.8042481711194903 3.7785510678279643 1.2641872560345584 0.3888628980842593 -1.3180477534984398
P 4.172709346077347 4.239499470510283 11.857999972756707 -0.2118391029956158 0.32577214027136153 0.08133093497000833
Ni 2.2044510879914023 8.666882944691077 0.2773822187301023 -0.5364840716410696 -1.3151480633531416 1.3788653990064446
P 0.023832599467258866 0.9209295254788505 3.269931029938124 -0.13621935947777186 -0.43505096660454756 0.05313776036524397
Ni 0.28895187918907295 8.222973195586219 1.8608267475013 -0.019300500100824826 0.47737235308057785 -0.40535806752580505
P 0.3080096835547317 8.077715708555449 10.477842368422825 -0.018941059878877058 -0.4696204770493009 -0.11919994210163988
P 3.863225756004636 0.29519966134108006 10.189586526185785 0.20665473058119893 -0.35892060199887216 1.4177381648122422
P 7.2544980019572165 8.64124818878262 7.080577952303265 -0.0003542980156251963 -0.7979277250376904 0.736665535793099
Ni 5.019897572278645 2.030432655307243 12.866963920920462 -0.7004078390126454 1.4187612067601179 -0.3482024442504197
