# total energy = -381175.29638112255 ev
CRYSTAL
PRIMVEC
9.21993676632706 0.00000000000000 0.00000000000000

0.00000000000000 9.21993676632706 0.00000000000000

0.00000000000000 0.00000000000000 13.49430942300773

PRIMCOORD
 96 1
Ni 8.664582867047859 7.223746506757066 0.6438281674437594 -0.1891745715185645 0.45029298036528254 0.07796741781441412
Ni 8.372587477345098 4.765158233370944 8.195444836916957 0.2521331746289722 -0.3500343552528358 -0.25514419354115414
Ni 7.120188179723867 2.7451807802860477 1.3765005652226872 -0.9807316171432207 -0.28768433226070456 0.39734213919986405
Ni 6.064062890817269 7.333159493482759 1.6173197752574935 1.4023925355941071 -0.19353747647295055 -0.26890730876351754
Ni 4.633534419559873 4.0606813234748715 0.7715528700989955 1.5587009525122704 -0.5336905680563325 -0.49260819619372587
Ni 1.1787688845436723 6.087610608698571 7.04215340296898 1.3977480948435606 1.3001477332895672 0.9241992292741309
Ni 4.708344984512453 8.277502271977097 9.107309467013224 -0.1914934494597283 -0.3841050716842998 0.04374757739959563
Ni 9.806693283973653 1.6077172113681526 2.215495427004593 -3.0568956201093678 -0.6981964331836232 -0.22753980156032425
Ni 2.3150523015865447 3.7396523536592583 0.2612561213330426 0.10323519124226736 -0.5514466064881728 0.6721583572486488
Ni 3.18406819868298 1.7829605448724277 10.406405899139239 0.14249387963257396 -0.8560038032448162 -0.9896867694539794
Ni 0.6937993014080789 0.5076616909075049 10.192872169252407 -0.4590889813903577 0.5112738909240291 -0.07203922525543723
Ni 7.589612027886999 2.567807641444818 9.357628899641957 -0.0868580354358246 0.014103529280917647 0.3928257393867493
Ni 5.181954683857306 0.17392303859409405 11.249045401828928 -1.681207847499956 1.6121667856408943 0.25361721537366644
Ni 6.677797185447962 8.417645307135984 12.963928701391968 -0.21373169203263837 -3.1443018147391784 0.45011865957094743
Ni 0.8358702252940539 0.21076406095513908 4.305102762709453 -0.007851377723618738 0.23266992369803802 0.4380295896168972
Ni 0.23368297916553143 8.061128801640992 8.37954760742677 0.2688499731630209 -1.1588363040008687 -0.2409401341266302
Ni 8.997551654661548 5.177538334262496 5.604307990086446 -1.867419736845771 -1.340758564832394 -1.3893688696409299
Ni 6.109148380417727 4.91331339336885 10.598308735948027 1.2430553591519495 0.09918544665292596 0.7815523690034605
Ni 3.5410457010041534 4.751844645030849 2.669511839243119 -2.109014730947581 -1.0285471939646027 0.8479765620649655
Ni 0.6327467257360313 7.8080138842582985 11.83915084313691 0.08427099143493874 0.2558232218860498 0.11685715290107618
Ni 6.669434703021047 8.798585424482022 6.190055167399718 1.419817158828458 -0.033730045262593523 -1.3321337992778606
Ni 7.507379414032912 0.24488704602902356 11.075143569088837 1.1985048262350841 1.7442831786938862 0.03555192896268071
Ni 5.368400240237768 2.6173648002592276 11.211287917777435 0.3486439026632125 -0.1433521138678112 -0.38672991090165654
Ni 1.8179686438525788 4.245126153629711 4.454957157008661 0.9504010844804794 0.913642536804207 -0.2130333804140331
P 0.6147235938196765 5.899874261204803 9.214359384007913 0.7970862029730015 1.3220643308570006 0.549451430435015
Ni 8.184537652009526 7.4292681118048804 10.262057650931933 0.13420310037869146 -2.4038433875625502 0.11365407258274621
P 3.0823354190814563 2.6358784327986386 8.149118343860422 -0.9994844722706916 0.06588271873573814 -0.4533621062089095
Ni 1.8426043142436677 8.398209680944213 6.352675485809518 -1.27774262612149 -1.1660261368810885 0.5076990290885772
P 1.9857438287727294 3.07006368356853 2.4370726295146232 1.0037656161445487 2.9662876307128077 0.1702515093618165
P 5.083587181086899 1.186144833762561 5.122169849457254 -0.03377863911234183 -0.10321025154160288 -0.2795341923497444
P 0.2950785364762574 8.77154335065827 2.1926631761975224 -0.3434214779220085 -2.381650396405279 -0.4153208351654718
Ni 7.215771261664142 1.6821774187328355 3.6001335082030193 0.3717666047236049 1.5650950289640722 1.4203748311041409
Ni 9.099726991216206 2.962181206305757 13.721418402311501 0.2332239964292951 -0.023319391452230807 -1.0828648335705608
Ni 8.742214732576663 7.522721388408201 5.959896969967163 0.1450886369429437 0.8051365840813037 0.7091156511992884
Ni 1.3052756335841396 5.714452117778462 1.8787990190544075 -0.1689047655259349 0.04579340418503081 0.4373683018838145
Ni 6.452766194716187 1.3521221310606073 12.994115695563924 -0.5692707791537873 1.7659133553691522 0.4854129639968673
Ni 3.7260898270330265 5.236361529283134 7.18840464607476 -0.5123203299106726 -0.8344875264395951 0.9354472913841245
Ni 1.9435441793041615 5.769347619840042 11.301658969600915 0.3543892897874219 0.9442237520251738 -0.7232518334903544
Ni 0.6984470714096312 2.778188153040575 9.032428830543063 0.7419072438080125 0.38000904723805523 1.0990753818921521
Ni 5.333419801067188 0.20987986904252479 3.0224417894304265 -1.6686796331259586 1.63651924634333 1.0668520030820723
Ni 5.486092729961663 6.081009134147665 13.0785896759869 0.9419560390369196 -0.028125811701938657 -0.20600269881949684
Ni 6.343786545007104 4.649226751523059 6.98568036976821 -0.07515360251470284 0.05213425880139408 -2.573419211013581
Ni 7.161530375095738 0.19259894201632058 1.7748257948776458 1.426127674427518 0.034390304554411735 -1.0483490591818785
Ni 2.7553042705889723 1.6331273564272248 3.7916039299888498 0.8192696810485761 -0.3806109424881122 1.3600063573184125
Ni 5.024413628478363 7.025785249658613 6.421955010841583 0.1550182373518298 0.2600277468857006 0.5776708302920244
Ni 1.4581606210186577 1.4791359766098728 12.630888920267047 0.10133900266081902 -1.2179449372375668 -0.30086997771304314
Ni 7.152448737619982 8.893781269088306 8.789383005837806 -0.3595404949710582 1.807973774874312 -0.17892795408989184
Ni 3.9058785892434424 1.8659399735849274 12.87263934389074 -0.33655020472347197 0.2264231714573778 0.6977382626002822
Ni 2.0944007807034852 1.486511925828762 6.051725693755024 0.07888787274615446 0.8047596603578592 0.7348531651747087
Ni 7.282542041968134 6.911955913338112 7.796836555210724 -0.8734124856395669 -1.2958444779285232 -0.3720831075227592
Ni 4.10957464685958 6.22479404423338 10.19948470772714 -1.1964834249296814 -1.2777333701501092 -1.9743318627189932
Ni 8.632940044898826 0.44493200878181244 13.488803091795402 1.2742942625615732 0.24862259037255247 -0.18876113813022977
Ni 6.7439410100683475 6.50223115416536 4.950144273799719 0.2741531305434891 -0.7093740470669977 -0.2745560224088626
Ni 2.3206211432468056 4.47351320125608 9.343122251515709 1.0631588705012012 0.4735403809289974 -0.8507348415363928
Ni 2.632762094253658 8.296034344389554 2.890130168354694 -0.3047898815927396 0.4655105686459854 -0.3578551368488353
Ni 5.783352703419407 5.267930591939978 2.7990703872729017 1.3231868744972182 -0.4544530252802431 0.12669445070647214
P 5.136306778128907 1.801280558744843 1.3361522790080604 -0.6595023590475352 -0.23649906763614104 -0.022637792004173915
Ni 4.07765522661484 4.598664619627576 11.801056831402308 -0.8971373400603324 -1.1004259823827758 1.0677308061425999
P 2.480660801423647 8.966526568259598 11.115693771913334 0.06253025732373747 0.22669802238531922 0.005853116346667339
Ni 1.4065935160421013 3.8123054534653136 6.947977283342207 1.5914249251078527 -0.7086315124740183 -0.18344152568952923
P 5.589475878200914 5.475443703276892 8.665788834745147 -0.49600822301421027 2.696377591716389 -0.3892254236300006
P 2.8891132093561396 6.449032120424125 5.472508997481427 -0.03524673901743607 -0.315559718514734 0.09450861000254691
P 2.4634010802514466 5.984605477856788 13.552064764258507 0.6500252727950353 0.44882076669513027 -0.7500661254697211
Ni 8.753647453865941 4.571041689802837 10.59428792163008 -0.14022230998957785 0.1274423846160902 1.2385561857300154
Ni 5.051594001349969 3.4107679979255288 9.02133724690516 -1.4314056349970057 -0.09117054676824943 -0.7763782810016887
Ni 6.8891918900613165 3.751472312282528 12.502166620479958 1.021445549922815 0.3595024426442712 0.6731559452752277
Ni 3.6938661488830062 7.535656959350828 12.185819534431033 -0.8059112574637991 -0.27452799738440464 0.6091023093284285
Ni 4.8444312476009515 2.9235404523353035 3.4621940378732745 0.8973533127258804 -0.980536470413279 -0.16012419111982745
Ni 4.330751704124487 2.919160982486588 6.3016403711703735 -0.6885650807414464 -0.2356629448880909 -0.1784499860122088
Ni 4.6013291812829 4.860630676072937 4.863794036294188 -0.26549519775817504 1.2602886923111005 0.5473063590675542
Ni 2.658052380137923 1.0748509799860522 1.5719254177834947 1.7031267590602346 0.21084974249915298 -1.9844830922203824
Ni 0.48790982089297297 5.1834483135741305 12.968530371710903 -1.3009882269129918 0.11044096496208722 0.36835269394604947
Ni 0.09088275830053881 1.0003907726213694 7.8309364904433 -0.19071363387091025 -0.9231875001801649 -1.2779457432712313
Ni 2.653617590670066 0.42239018597523575 8.119904052991707 -0.17611465301081283 0.98951604820407 0.6817349451934904
Ni 4.442663293648077 8.887013835679976 0.6031931412032484 0.3322420642664214 0.5262539092726292 0.05381164650381701
Ni 6.391638015564646 2.3532597185403894 7.260558947314888 0.3522349624485805 -1.0595112464462848 -0.209863981547116
Ni 2.483943098826052 7.508707084892313 9.005238315741282 -0.7441073367831249 -0.6789285860929469 0.7848868326933321
Ni 7.7983421708450305 8.610729217813446 4.047145534664558 -0.1750371036759179 -0.5899378205848356 -0.8949881549278135
Ni 3.716630172159802 8.530598749486742 5.105490984286042 0.07032841321191759 1.9634851498124768 0.09051414413117315
Ni 4.790337880016926 7.365899488078101 3.5553725603681925 0.49080045356102575 -2.1983567091475233 1.1421236192318782
Ni 7.467079071488209 5.078433236570201 1.0344464521586314 0.16844942315607117 0.1281502093163922 -0.8723760739552524
Ni 8.57910483553746 2.871936467612652 6.780971041128126 -1.175580099118111 0.8899655049022416 0.7528364891260066
Ni 8.208979703733618 6.297622322833384 2.879361282495116 -0.12629824370931797 -0.09926077997555163 0.8545295326921348
Ni 8.940424927961255 3.6837610984531284 2.584038417700983 -0.2512726264008899 1.9196725235029002 1.070948027528317
Ni 1.7342147404720962 8.329143136445841 0.2931478817682132 0.6716127691578239 -0.2289199697373025 1.163289454676216
Ni 0.2686071767233177 2.535759142088746 4.761696147206329 0.356814868509779 0.6478627179260779 -1.6716934802516177
Ni 0.9536733542562322 7.100245457023297 4.142780248249366 0.8606621279524339 -1.5221676334729268 0.07280669954908106
Ni 5.094402166629095 0.4111695232260012 7.400009565240853 -2.0592448586133054 1.1081354352118915 -0.1639620768086789
P 7.256320542494984 4.238312620538762 4.347421349359175 -0.01802214760903348 0.4668166890519186 -0.6740843706267682
Ni 5.794969823439157 7.320288462095797 10.901336701694943 2.7937110727622403 -0.3433826542642731 1.0378404463410709
P 7.716810272166738 5.941391635370623 12.30332854741811 -0.6904702681839593 0.5197641877832274 -0.19824722324379404
Ni 1.8841585681555828 3.3721825635742166 11.393271946874123 -1.1181136294705258 0.5968823702234688 0.35478858210836967
P 5.785897405899924 1.359617939454303 9.440834216799288 -0.24955795770262826 -1.3045751729333015 -0.4562977917984658
P 8.382830826822829 1.0127454875630082 5.702371234951574 -0.621845725037026 -1.6912696026113325 -0.023643864671185087
P 8.569995538252133 2.407030388346089 11.34694637581124 0.828801017577779 -0.5496869434845888 1.0029539188765308
Ni 3.836839704554643 6.702626474506046 1.6197759663473836 -0.5807708093735868 -0.0877743766025069 -2.0549747704830414
