# total energy = -340875.0607408792 ev
CRYSTAL
PRIMVEC
9.25896351504857 0.00000000000000 0.00000000000000

0.00000000000000 9.25896351504857 0.00000000000000

0.00000000000000 0.00000000000000 13.55142901465168

PRIMCOORD
 96 1
Ni 9.11820858199098 2.149607224464242 -0.2215966214741567 0.9506815918353757 -1.143372918257947 -0.019587949434256586
Ni 6.463024923160468 3.3398747390618406 11.476487840999267 0.032937117047652946 0.2772901335105741 -1.6779569446628262
Ni 5.129761978697791 1.6698910747142068 10.227764787233696 0.8680291098404664 0.017678134006053423 -0.5457966072912472
Ni 3.13925152135163 2.889398395548138 2.0381348611958128 1.5510946009199222 1.6435928653606597 1.4040182441229885
Ni 1.5768384931197994 0.17194635644511677 10.226694451071277 0.07533717928041864 -0.6841237571406411 -0.5287738474810054
Ni 6.427507539777767 4.88153843044262 2.55724975176182 -0.5237537685585948 -0.617437311556685 0.5535317711519757
Ni 9.050562595809017 1.8235806072401342 10.533674454803059 0.14820121442999637 0.612734506764377 0.841419477672738
Ni 5.306710027140649 5.780852280958363 10.036716263516198 -0.9278530239766343 0.27342602256947746 0.06981444968997653
Ni 5.812823481380798 7.963384379069342 4.9044654754718815 -1.1558705365043256 0.23274242880718626 -1.5182045350601208
Ni 0.5950319087020297 5.674300130810259 9.06537693715738 -0.17162267867773023 -0.8570366153847048 1.536560411859489
Ni 7.373384716944084 2.575223251402722 8.942668821872552 -0.724772641010255 0.4662299633105132 -0.7414200197589489
Ni 2.7792445086597137 4.838150928218601 9.02565783620975 1.3332519720427038 -0.9042168726149331 -0.07338056977468008
Ni 4.194671493825751 2.6796088041286277 12.727122870695112 0.7697641181192807 0.5975418581843387 -0.020649557929551532
Ni 8.914178065770647 4.212819061977497 12.169522173098725 0.7217742205035634 -0.10926185705232151 0.7733574918974939
Ni 2.7368384565500237 2.4953554336083577 9.856726645615254 -0.1499786180453933 -1.9059855129341108 -0.4164732036023602
Ni 4.385341325942531 5.101605471172558 12.7001691025081 -0.8407414777691069 -0.4565543878939621 -0.43553279133697254
Ni 1.7850910966244176 8.36994545944849 1.4797619660566426 0.5318208618374454 -1.2330797359964765 0.301563661345958
Ni 0.9532936068038415 3.3003297066250536 2.1031957448124876 -2.3683482799797337 2.799237659007424 -1.8971817985995518
Ni 7.161382233285661 0.8511653893408928 1.3003177010965854 1.11184733684584 -0.452607230320756 0.9748679592735919
Ni 7.510454410269816 5.6754575012281 11.105192300199898 -0.037905259686205686 1.1490992792187629 -0.6093825595730086
Ni 2.6671647573960025 6.941907766209658 8.11147872004726 -0.43394256403171716 0.8458651721489173 -0.3693927051747896
Ni 6.8577993432043245 6.476885591284531 6.414216297899283 0.7811512769102998 0.28532585933085697 -0.7373504776752656
Ni 8.860105719849122 8.003883084730429 3.255175594195242 0.2949962925410855 0.19471118506607757 0.5677234892713254
Ni 1.739712917281712 8.89365094403982 6.888258554912894 0.4042704908885812 -0.707071109965434 -0.893135932210423
P 8.933955211470712 8.507015152774223 1.0966399513796086 -0.8734603081583667 -0.1744580912439963 -1.1469848039789214
P 3.409835466079487 7.60122002791857 10.126819865285947 0.47163827881027803 0.9532604083061454 -0.3714981815535667
P 1.5884307152248935 5.611005857399376 12.89987568284738 0.23779541785006145 0.12316561161760725 -1.3472120337672218
P 9.155059256095036 7.774325606574196 9.299708336813126 1.0054825988356553 1.0992039370502167 1.3196351525902177
P 8.565281809090003 4.0184086086702555 10.032895089344654 0.05978971846412284 -0.03276099648110487 -0.3025291105830209
P 5.525851171536314 5.719872748383162 7.825611004529562 0.3227220405911281 0.7660123643863324 1.016255263971127
P 4.485004807363645 3.7472691261418345 10.271318950797884 -0.6848909743239688 0.44443986401861524 1.1056538064406185
P 1.8410800479578884 1.7340464317159632 12.114963731601707 -0.6840967605574476 1.491543995049799 -0.44323170264312695
Ni 5.406179070331567 2.8739266678024413 3.593879584028211 0.03604352388711857 -0.4781457409114927 0.5798534397656401
Ni 3.659845994259805 0.6208523797758927 11.805666209345238 -1.441493615360627 -1.1200661252112065 -1.6461338866149584
Ni 0.41646446757052874 3.412789075385817 7.830584919637275 0.9472615104102331 -1.097755377529148 -0.17919843414245912
Ni 4.155033871755537 5.892191315154656 6.122332108001481 -0.4181696174681766 0.11831959637921559 0.815098580390022
Ni 8.23264429203919 0.9602100524208587 4.533779174460463 -0.0546048318290737 0.4702750799141643 0.18132267957431353
Ni 0.3342448730871119 1.1428153274661228 2.1642169427227307 -0.5224862147000808 -1.2167799703951883 -0.13998653982968795
Ni 3.4178722462609743 7.268536216051042 3.246285137593555 0.4605115727694973 1.6317236247268996 -0.06252691488962779
Ni 1.3455495888184759 1.7348241846367523 5.673888106941508 -0.6372247785962574 0.23813763168082858 0.09406046672153479
Ni 1.5816253771679891 7.064190895077054 11.101005396976316 -0.4731423741596304 -0.5626391327698826 -0.126738159460214
Ni 7.94864410942772 2.8109194222551834 3.1209891420544347 -0.41800943774122845 0.7353265052667014 -0.4853142336354739
Ni 4.866011148916866 7.850656500371639 7.318218887451781 -0.3192176269822954 0.7148695229639301 0.14854394248139577
Ni -0.19002818595712856 6.884983659578571 7.298894505059176 1.0317502742829328 2.422959025346079 -1.6856373440262193
Ni 2.7935496070242274 5.655532212114552 1.1310805173255505 1.986248668761237 0.21618940954451155 1.1171188696574246
Ni 2.0664432157198664 4.05814807933724 11.261806739245792 -0.5786727891939776 1.2562551456716753 0.9754647123173266
Ni 7.911598997093469 4.871427642472362 7.885454462302611 -2.128288491575528 -0.7055721568224043 0.30137879902866155
Ni 8.788302459126271 0.8761062588971968 7.2464637733383155 0.19983513655620425 1.1568164453573626 0.11224613649162604
Ni 7.364486853171724 0.2707070889403156 9.409271501840282 0.21708441055495517 -0.09462996607175961 -1.1427005747812706
Ni 2.5858525413201727 1.102566613815288 0.6028057343245834 -0.4695783109574558 0.7440032071050929 -0.6972304697259283
Ni 6.761478347549934 5.100549949351487 13.404965095741826 0.5095047148387483 1.3482193919858136 -0.2300509980179522
Ni 4.718534380793909 1.3927703018663842 1.823425982552311 1.680697226412125 -0.9370442035575991 0.1384832158112841
Ni 6.268827426010109 4.605658358682723 5.151345548146023 0.5111684756944164 -0.06491906927088821 -0.7681687486077028
Ni 2.23261383083179 3.595061027750743 13.631246752667401 -1.0766543338844747 -0.08373131688138483 -1.1679140979324207
Ni 7.266545538932355 6.9884525749335475 8.86417966371992 -1.9373642843557084 0.4224674735125821 0.44738609113113276
Ni 3.3402728744855783 7.6804304593156 12.79244022759638 0.09027734553001872 -1.0530896591906573 -0.1883667309052885
P 1.7178247279395051 2.280019723146553 3.6328533384267523 1.4945485862040777 -2.0885448931290034 1.6162298999666744
P 7.529463062012436 6.40521195604848 4.053937102808968 -2.1678446566015954 0.4294120231512153 1.1101138990945012
P 2.046582739349717 5.674901963427536 3.424920169157458 -0.2983078734128217 -1.109472151745444 -1.217674971405632
P 5.1456040649771975 3.8368773733727473 1.033468822181184 -1.085628255248311 -0.037438604462432294 0.24865395783112013
P 9.196011650959917 8.651658678114305 5.5266928113041685 0.3722029209300751 -0.6514180393775039 0.9586214155077426
P 8.319752619167565 4.567566983490743 1.3000288214402922 -0.689250022623613 -2.1045674938095047 -0.46869745101439925
P 4.371406586111727 3.577968981420069 5.87763437298722 0.003387942635626423 -0.3809359299276988 -1.3079998823441343
P 1.3963072258633058 1.3081526358772009 8.260449884853733 0.646753286911983 0.7833120320070445 0.7163759323061275
Ni 7.008840812214231 8.179970049582414 13.244028572607546 -0.6651772979451254 -0.7502892972241207 1.5980923098256994
Ni 3.7536763287750015 0.9866536517276873 4.009799624554188 0.09880698026758467 -0.38075415293419584 -0.10463335714137463
Ni 4.49038426506577 1.368687738211951 6.181795948277477 -0.26262198997543806 -0.7709997902985948 1.1324411018367915
Ni 6.893270431770311 2.8655843418306444 0.06520347165215291 -0.0875756303281395 -1.1838634221728257 1.3775106847507632
Ni 1.6831036154042784 9.143994794900477 3.8318969769906945 -0.20349458768566245 0.4635169352547243 0.8306090173207954
Ni 1.269709420078198 6.981813898216811 5.025019029986856 0.6068464234147162 -0.42677612819026506 0.6445853327263866
Ni 6.538263259283469 2.5369004021271744 6.3401575537061445 0.09225838051578951 -0.8677527162506282 0.7342145031494451
Ni -0.26027223725306214 5.100225885634492 5.701113162754462 -0.8825080201829318 -1.1321145717353083 -0.7110612049614334
Ni 8.040520802677602 8.312595440503637 11.213576799193529 1.3994707339616221 -0.6537232904719128 -1.1258644770605384
Ni 4.097350530130346 5.100707351728314 4.008308931456009 0.5511015644439283 -1.148989493113776 -1.7719238232292904
Ni 0.6155692152925327 6.013511511834409 1.3397081088455491 -0.03896275441644258 1.3908197431548435 -0.8745437710305325
Ni 0.9748021786489965 9.06608987733477 12.614577393575262 -0.1300224866384406 -0.1347054939364067 0.5726286398824267
Ni 6.926556404987416 8.881984650227984 6.674891300057753 0.4537454576902572 0.7062480998435062 0.8374504657226609
Ni 3.485268240432685 0.4274705972960285 8.50961969916253 0.7491803804306582 -0.6265287323349918 0.6347701464081777
Ni 5.352986325927599 0.6703822782814772 13.25940863661615 0.466213508250281 -0.10937987068742451 -0.0634396565118843
Ni 5.080272819630915 3.6487259792851896 7.987659529161303 0.4924307900755971 -0.3769967427742927 0.9910224575462674
Ni 2.2253177677177214 4.062129433574612 5.160031381657835 -0.35814335751321547 0.34406091127822036 0.15649019391166596
Ni 9.071950801130717 5.259535608909455 3.2379779956824604 0.5092946557104713 -0.9708665514236827 2.14407532209614
Ni 5.775148759539242 8.248116019784886 2.435693451516827 -0.5632245729597075 1.020175939181772 0.15722090143010342
Ni 7.4904457904861825 6.739099433150563 1.725272638052395 0.8435401235601666 0.5930447416449335 -0.6660969815459173
Ni 5.425826590544833 8.499311695273072 10.506328106570313 -0.3800437571307326 -1.1690834356501738 0.5122233993214921
Ni 5.111123685488882 6.539707657564935 1.0720092570952857 -0.6622608956292787 0.017221248974292922 -0.7255041198596408
Ni 2.844251690289001 2.847807132212608 7.473179675644666 -0.5780904343279463 -0.029419076592065465 -0.9070013773386058
Ni 9.056877208808757 6.933658029871288 12.77891565984166 -0.24784380322499894 -0.9073333067567276 0.8302896863081637
P 7.047524761060146 0.7642070574186682 12.006850520234018 0.4903065446437426 1.7801958334300954 -1.1038059545986023
P 1.499424300611258 5.31092285546159 6.922612086603415 0.8333433855328228 0.0234047520771855 1.2631277044217923
P 3.552840154907907 8.113111075284582 5.408659546611084 -0.32811158703781557 0.6954633505231764 0.00937604189826127
P 5.733103806999919 6.686156680756849 12.140684205871468 0.17630825707885767 0.7579280447163012 -0.04091473593649082
P 5.741927599065538 0.9948941291027145 8.146184092344804 -0.30158474439188065 -0.26396719114942285 -0.8081000375850018
P 8.511913144382525 2.847853427029322 5.764791683144067 1.1868759837469043 0.8591246082619849 -0.2601881837229648
P 6.249291013356956 0.6945500243986636 3.7316159227146195 -1.0954827794448876 0.739780427272997 -0.8632666554548165
P 4.001390634046323 8.729230272999672 1.007841863441184 0.26874018705803393 -1.3841137918895774 1.184877722369953
