# total energy = -340875.0061062708 ev
CRYSTAL
PRIMVEC
9.12104359687880 0.00000000000000 0.00000000000000
0.00000000000000 9.12104359687880 0.00000000000000
0.00000000000000 0.00000000000000 13.34956927324625
PRIMCOORD
 96 1
Ni 4.896294647996726 4.542671797017273 0.06015510515294526 -0.5097422847708512 0.9149255172816889 0.977272969170659
Ni 1.25539304462881 4.327333084384467 7.755859402106505 0.9278512242044215 -1.3807214783785768 -0.26552785076832336
Ni 8.73652753290462 4.616734669082096 5.92614070826675 -1.8333037689986684 -0.9663336965503357 0.026996840303818024
Ni 3.0330661529649827 6.6270491093007005 12.957145322107904 -0.42295006957595543 -0.9417920026552296 0.6078820637680822
Ni 2.2614714901172444 8.304199198791258 1.5773987109130043 0.4095278826327786 1.0251638793146667 -0.8285858162431795
Ni 4.957186733452977 5.035655069459586 6.487103116854274 0.1334536238071766 -1.0412885527906712 -0.2690294361636786
Ni 0.9522642896777875 6.273225595367378 1.1315210668917233 0.662609280107633 -2.0079122697776004 0.3234275512985849
Ni 6.235391507519486 1.7357254299339415 10.866949696266575 -2.3209139977571707 2.0824971442730265 -0.4507650349056947
Ni 9.242991707429669 0.7777449823838604 11.582553010254175 0.1561765193259891 0.12264881988218879 0.20915744239839465
Ni 7.975495038265141 7.637341476820409 11.660741330229701 0.20625723803246415 -0.4941133199843426 -0.8779335134383719
Ni 8.604646366995105 0.7627353934343687 1.0281021167800253 0.9190937897267655 -1.3569423736811081 -0.9950318358159767
Ni 7.407482063162087 1.84712073246198 8.739308539024394 0.34018600170384644 0.0737649496972923 -0.00864713415203672
Ni 6.1105517870821435 3.7951293255038863 1.901018801871518 0.03141785218964912 -1.041280325260555 -0.36611634841636304
Ni 3.2358907941109742 0.4727090172667352 8.789863746043322 0.832861817910714 1.459968791346679 -0.40591085470548155
Ni 5.289128864371089 1.4161514338089198 2.7655897322906813 0.25837555599425827 0.7157503829069867 -0.27336894407929696
Ni 2.189314916114189 8.0665777772355 6.947622771777731 -0.7698492216339192 1.4385556157782258 -1.7743476021794347
Ni 4.078647837235774 3.1558536386468345 10.530727059700677 1.6315320775413837 -0.00848695442508861 1.232851422035754
Ni 3.2866402793534215 7.302964027325782 8.654325041747354 1.5301208268817326 -1.9844116155524985 2.2210091564397167
Ni 2.362651224084618 1.8731977954217494 10.584859539924508 -1.2341331169616552 -2.539921850587084 1.5870993011493053
Ni 4.383865311115719 8.654200995557689 13.385212304764531 -0.08143660730993717 0.6935422222410635 -0.7258519901173629
Ni 7.270383660451945 1.9542565077419558 4.67694176418218 -1.3597009102628517 2.6486820854126383 -0.17920743300352363
Ni 6.119745798786742 7.338536096420954 7.060493859121051 0.03641324852171148 0.4021961248580557 0.3066786139750202
Ni 1.5598443508667041 5.482166625994229 5.277645470783699 0.3304911430135857 0.9973100903271922 -0.22347463035201512
Ni 6.808220393515426 0.37059620056386516 12.533990021299415 -0.1751124369985436 -0.87919746775246 1.7307064684507159
P 6.557181917180437 1.7102321137490675 0.8038147485089434 -0.8961919454279276 1.1257603473825064 0.7842309442768881
P 2.8693434246936085 5.837923801119392 10.879098013914746 0.7276641036254372 0.695202640662622 0.14054549765695148
P 6.146643755648707 7.269982334544205 12.99386937897916 -0.9867883648602618 -0.577986047539598 -0.22650467542759056
P 7.458012643363948 0.1535044233977018 10.399220768673162 1.8427823979130653 -0.4782958933361118 -1.8018635482115164
P 4.238302580169599 0.6996068281468014 11.413146959866594 -2.007264866001588 2.5123002322150736 0.7078594101946841
P 6.326802604050723 3.8133258070025713 11.802540718686421 -0.8622965782320633 -1.43710088560957 -0.8736636824184244
P 0.9762435126652774 7.788732554472124 12.966516282053641 0.40979347758933937 1.3523550114207419 -1.1882584659167277
P 1.1075682949299708 2.7237259674873417 12.332424996241127 -0.507918601298551 -0.08928155727565269 -0.6972206995339154
Ni 2.7644331839929204 8.16362567856182 11.166180117286501 0.2626284177333412 0.6465424564527574 -0.32075437534179596
Ni 1.6949178819514272 4.1598251231196315 10.372628366763683 -0.7591092095085958 -0.17020265840175203 -0.4116994363628006
Ni 5.937826589016683 9.082944759631461 8.622339366900443 0.3308089313643206 -0.7961595773936739 -0.30919418130802234
Ni 5.316191000013493 0.6521764905822345 4.972621363022939 -1.1351381890529806 0.17718088949179808 -0.3996944414821245
Ni 2.8448807864081584 9.04139840713697 4.79975752509844 0.7216155834385121 -1.299946930132671 -0.9774226073746457
Ni 5.100870529467403 5.726510256504639 11.42727089550605 0.00954419204500937 0.983515607646261 -1.026701913225748
Ni 2.8606419493303274 3.314869908545617 5.984851952256166 0.6780006749620389 1.9482210245645544 2.289434439091651
Ni 7.362442351061583 4.309765954877466 3.6894073119443602 -1.01029056174726 -0.6519536001659999 2.4142602120205003
Ni 1.2286957507207146 0.8934326479160498 3.028189131081601 0.9209434413409945 0.46179275347476595 -0.5158640813978728
Ni 8.099559470017077 7.348405065334025 0.525720521261901 0.6384830764833906 0.47675657387344994 0.6751164114357082
Ni 6.989482888163727 6.221463674312222 2.3383773913966728 0.18033357618816687 0.12360989824387744 -1.1247948981454434
Ni 2.7501952353114936 4.109814442389161 12.790248470748036 -0.49434420504822607 0.44388913372146777 -0.05754977339001057
Ni 1.7099584824483354 1.24701080578305 6.4311810879236555 1.8852302826646308 -0.21457141432511434 0.11690214720639867
Ni 4.794795677511831 6.611424762028898 1.384083669571789 0.2570244412830025 0.6134801266811498 1.064297612091335
Ni 5.372376627097152 8.324128678527913 10.629154062782685 0.4672478630520663 -1.6856550846380323 1.566342271107612
Ni 1.1272150223225357 8.837269456790823 9.439614039092397 -1.074107141982589 0.026516815343605945 -0.7506320252755201
Ni 5.081616006939221 1.8904912936280185 7.771544860368804 0.3142713387206136 2.150926026469386 -0.3815254838825816
Ni 7.122759573706976 5.095671534753492 13.27677404449307 1.2352392055416406 1.385944417340413 1.6546393529828085
Ni 3.6198137511248287 3.2577812981695424 2.152257941160376 0.9771346438205818 0.371442902835599 -0.447396632654094
Ni 6.055798163805649 3.902000590526488 9.50095487988185 0.7750737032576523 0.09028685861171548 -0.3583212778519764
Ni 2.262867009750978 0.8801341667004697 13.06574411274246 -0.14242034608216117 -0.6132497558378986 -0.6873592333588033
Ni 0.8536612504589747 6.8114674849507795 10.710772807165055 0.09251137706686002 -0.9835963402855255 -0.16453594703427793
Ni 8.366185809450437 7.470845951368283 5.938569041946002 1.357729388358778 0.6102675332811232 2.0913044581520115
Ni -0.2547899614680251 0.44321794777816503 4.815909980780656 1.831420950153659 -0.8187377198045059 1.2028281362007867
P 3.1393080659959 5.277380960526324 1.61230768015607 -0.9025158307634263 -0.5158005751497892 -1.168494395915923
P 1.1125027793865063 7.764288158273389 4.778077717141437 0.10855994588929045 -0.8840655944780387 -0.6126121222538997
P 6.925562616312709 6.001765102954417 5.516335878620983 -0.06347616617677455 -1.2938058502319396 -0.4240101354093537
P 1.0007791192975892 2.599442630694821 4.997197102246025 -0.998839382487525 0.996738019873806 -1.4087151353780256
P 3.4636979730138067 1.1596676945893631 1.5874236496674927 -1.3834247362423528 -0.5002016922702676 -0.14751987209225562
P 0.2733868567701145 0.1430927524048453 7.448138201824862 -1.682802702790902 -0.7665543529327314 0.6097103752260725
P 2.734935729774 5.762556619854414 7.01131410544047 1.6142486078705875 0.492990519233809 0.6941279195412046
P 5.644648892368951 6.738471774958812 9.183289006027266 -0.154638742525224 -1.5126442673635239 -0.6360073612493885
Ni 7.049152753810041 0.3761928727681725 6.482163159771725 0.8569108884401179 0.5288954606605343 1.205496684171885
Ni 3.477762621871437 4.852249129622216 4.096315298219711 0.8436712498213921 -1.6623770879466981 0.19797468630869777
Ni 3.780563019261581 4.793883573176058 9.04055471062638 0.10585951623899188 1.9840812287962732 -1.284541137100562
Ni 8.638111475074641 6.2149238862247245 3.971697219135961 1.370268144255737 -1.3033191890390134 1.0497269133660114
Ni 5.353559914650141 6.149307100309167 4.044371868401736 0.6236925484377774 -0.9391802760639955 -0.29937539544538766
Ni 0.8958634059708868 2.2850129030235626 8.874112999330064 1.0045528879325343 -1.2063896282998 1.5415717490311514
Ni 9.102244887376433 7.86862377324254 2.6485548886545542 0.19873804683728355 2.229660661467128 -0.30591782454959576
Ni 0.8221626393273667 6.586597282009139 7.943314173090375 -0.9482601268780766 0.4705072505296284 0.48043582249725
Ni 7.14273465866042 5.406580539688665 7.860199577597334 0.3842966188698156 -1.1918886064701473 -0.06041063987757337
Ni 4.160308538417592 7.21862173939679 5.850915815278153 -1.064132290158064 0.22816997894515542 -0.5183228273510105
Ni 0.5382528348354313 4.95193301247892 12.33421363284358 -0.8379009229965183 0.05679541172248929 0.7111025997223301
Ni 8.30729123248953 3.0771025502961358 10.73109084334875 1.0485943424234652 -0.23103110254303436 0.27172420938702235
Ni 8.954493106024454 2.4031577776363267 7.04560922846556 -2.786770379778349 0.5275898544752333 -2.9865646357942888
Ni 7.629415290142536 5.324080702517936 11.031455922162378 0.7362922116140803 1.3385764695794107 -1.8788333779993516
Ni 7.952984303258247 7.169486678828662 9.228343311797143 -0.9155850052425586 1.2052112917209823 0.3312701872714553
Ni 2.3861105476007163 6.601601398332615 3.116696999512071 -0.005916108374118843 1.5842343208966845 1.0862823438925422
Ni 1.5181885458519206 2.6854540695582783 1.1945310586156401 0.10181979895197948 -0.5857510361969978 -0.6627859148948133
Ni 4.4131347392506965 2.419475324203318 12.976848599969287 0.6466321879530864 -2.5893497662009084 -0.1537195731450643
Ni 8.689435586048626 2.5927386638268843 2.5154460303090875 -0.25165366388939236 0.8879883265712126 1.3137398701517053
Ni 1.3927012313361786 4.313350524917056 2.963150619314923 -0.387170597983501 -0.021753846737323824 0.5350715075642593
Ni 6.322232961328497 8.664863495242884 1.540513211574317 0.1326339561193587 -0.2708050400068626 1.0360332179290028
Ni 8.296674338021123 2.962341582769092 0.16264553305082557 0.015977092154546676 0.7635428197999172 -0.7736400561349193
Ni 3.1220692940497776 2.0779196135861504 4.186438503428835 0.6715060683766306 0.34220277502355906 -1.61725628434866
Ni 6.851335565467447 8.100343879745841 4.060565368779062 -0.11826740298504146 -0.03655440208526607 -0.04532932006441871
P 9.014983865572965 5.008000065998927 9.243615586795338 -1.286206954838759 0.3339924712986248 1.02170754533495
P 4.479189335247425 0.14718171614211872 6.794370089176702 -1.1759577941725037 -2.089312110312331 1.0111567664022973
P 6.671149353935358 3.3045084032912273 7.025971622116353 1.015255104841387 0.03435533755141825 0.6449344885356892
P 3.1943170784864106 2.8266113365626118 8.29826596008705 -1.3715066446485282 -0.5714449039869707 0.5036500558301842
P 4.584993438197172 8.054665694610296 3.584826340908886 -0.2892696744699534 0.6695481733193115 -0.7277715757375789
P 8.608039395124184 4.729780880457884 1.9561254095259561 -0.6267873853130173 0.2703553540639537 -1.139061949587419
P 7.808598186905274 0.6442284134003028 2.9989935833978216 -0.41045013733673186 -0.4517299699221252 -0.34769773669985926
P 5.044237971259216 3.3391592470072693 4.484160303877392 0.44318619411717225 -0.6333331568513351 -0.6132168457174343
