# total energy = -340890.380861154 ev
CRYSTAL
PRIMVEC
9.09265201565269 0.00000000000000 0.00000000000000

0.00000000000000 9.09265201565269 0.00000000000000

0.00000000000000 0.00000000000000 13.30801532425727

PRIMCOORD
 96 1
Ni 6.661749630723116 2.1662879546104556 11.533005156013841 -0.685856937781664 -1.7016293485791016 0.004286028969863587
Ni 4.631160413697368 0.3362262649865874 6.084877239435477 -0.5519942514615268 0.394906533175178 -0.4518891212078089
Ni 2.8100749900707953 1.7311590959186691 4.549677522582949 0.27073330622866276 -1.465944806424456 2.153005534706234
Ni 3.7225044271620793 4.506891139603948 5.000873097256521 -1.0155633801104251 -0.6619107113787116 -0.17084466286112512
Ni 5.138121222732172 4.249478163121565 2.741943749068234 -1.7390491839884565 0.7752901901438325 0.7464061601196307
Ni 7.0443138685373095 6.1360943292952435 2.5254086079221927 0.4603675909924652 -0.04359871052655717 0.049944193128610766
Ni 4.972680420644679 4.093075457064571 11.625509250547347 1.167464669099828 0.9524430546111727 -0.1710207834276732
Ni 5.703065873202094 7.953215356675037 12.541087473006199 -0.772783878782211 -1.154778074771095 -1.8677470382782024
Ni 2.054648374064687 6.60085614066651 0.32900760860971123 0.043314603627235077 -0.6422026914268231 -0.4321137383530945
Ni 3.042410432496718 1.6910695935057116 0.3333484406468956 -0.7950254637892308 -2.1878946332739355 0.734242013953271
Ni 0.5749111062637162 9.144752837782685 4.581736394800595 0.785736325177821 -0.9796270712251323 1.0765059812320685
Ni 8.756214727642497 2.4054065153852253 1.57278146585984 0.14975081830530337 0.9415917137189654 0.8003959840725248
Ni 7.02388267962329 0.762796210405224 5.152996801309538 -0.6061316567358787 0.6034068016055479 -1.3501140379053653
Ni 0.7568077898361214 7.448600451841308 2.1933867851936575 -0.5617826983068582 0.1951343886464252 1.027857624096746
Ni 7.706322578489726 4.104586754423338 3.801487748257601 0.9163689345964348 -0.25412295136549135 0.40830506596927096
Ni 7.659286289992963 3.815313125535646 12.963830321222384 1.2007100614165191 0.6489299828483275 -0.4324603230592358
Ni 7.862197910734074 8.757169456096422 7.032048790332538 0.0201744180653459 -0.5577470947849039 0.7046892399968187
Ni 7.011616692153323 0.5880872681930919 -0.06719015152654803 0.09283790716834332 0.4230925086910907 1.4244613424686885
Ni 1.7579005852805445 6.4566557735158865 9.393635997478134 0.20622509924294805 0.368387660949043 -0.461158976545509
Ni 0.03433567226396247 5.126364423770967 1.5622412637284948 -0.08530637467798857 -1.0051966921641204 -0.6605500835857592
Ni 6.367911490560463 2.2590330044204276 7.258231235189204 0.9753937498700752 -0.2771263542392002 -0.4289538525678742
Ni 3.5758854145948438 3.9669240040191247 0.16938064817403 -0.5116855245401509 0.4615117318992374 1.804356232726383
Ni 5.922180599704125 5.6089569256008 4.89313062733316 0.6294916716180579 1.0001269909506971 -0.44340962298188796
Ni 5.109242960163892 2.914004001769617 9.497944172762944 1.0911021338786886 -0.5057892136603741 0.32766807174249374
P 0.296711418176374 5.5192942847992175 12.58916941647631 0.15153105013417772 0.3647657479257395 0.046911319839557916
P 4.154178078115847 5.86880673280368 12.734532733810333 -0.9699790066124068 1.3844637190298286 -0.2412080430760362
P 2.3783104125976062 8.586500379142189 1.307406963336906 1.0276444796446753 0.2648071705522149 -0.7450447609957298
P 6.171692061648777 7.75686863063616 5.775518851672761 0.7673362254040784 0.17474631190837647 1.1120545677606397
P 4.819314660336365 0.9812426269895063 12.35139474965859 1.1851965391619526 0.8149558841645707 0.70703948539655
P 3.8524384234154616 6.2456062292865475 8.322393392299992 -0.3968636569015488 0.18799469227785043 -0.2612919583101048
P 4.797046755730029 1.0559205773904183 3.6852554692158503 0.6066193950055746 -0.0865657010063864 1.984960546077433
P 0.041985320342896745 5.982964977937425 3.6146164748076433 0.8277795182918003 -1.6165680000323839 0.5099369172801604
Ni 1.5429502933680206 1.054311177996657 2.5674357544640234 -0.7814209856319188 0.004817218882985252 -0.5069834910787914
Ni 2.2140698405664754 6.404427580760154 4.662410039892164 -1.2346997880984025 0.43750534168231103 0.14139756124460165
Ni 5.573813825844374 5.408691266574854 9.610755796144057 1.0670528062389688 -0.11502395634707932 -1.5688830352515948
Ni 8.788093565351687 2.3389937855997314 10.154654594428665 0.2086311375812794 0.06443055967024387 -0.524931848027096
Ni 2.267470985422747 5.212417281751514 6.865298646365373 0.808362547217769 1.1529448782170983 0.35864626529156296
Ni 0.5484787670678742 0.046608933855482135 9.123482397094403 -0.27666406989080095 -0.9322442110657945 0.5795377082974342
Ni 1.1487110904601012 0.7982530066536542 11.534522719622986 0.7769596074264554 1.6280898846290541 -0.4084909567278319
Ni 4.374383922850936 7.266611023219094 1.2316178908686626 -1.0599197947386134 -0.8679882293002019 0.8639500546750863
Ni 5.460573938556785 8.054498406658691 8.018597888995485 0.9667180764729479 -0.37891555706356034 0.9434719614608139
Ni 5.378794626989051 2.9100850687825486 5.20541684902125 -0.7185937658930528 -1.374347199421117 -1.3635588505563614
Ni 0.8655868220808882 7.567741470239355 6.868719302026011 0.08499681385736974 -0.6055935248442215 0.04221931368052729
Ni 5.036783616836865 4.608283301410909 7.290090978329318 0.285641847909379 -0.09859614980835922 -0.5383725469130342
Ni 8.105035366153185 7.166000829479158 9.153306295464668 0.28046313192191696 0.5205242058777035 1.1481867947068227
Ni 4.384103967777099 0.03621603268559995 10.325077260515268 1.9982672904886685 1.0314358283663076 -0.08660323911254117
Ni 8.014654405848173 7.439871505976841 4.625520241697651 0.03065500588169559 0.2597423544347978 0.7153562327923615
Ni 7.086994776753781 6.167009345898567 7.334273083381439 -0.6311297214421131 0.5565641302203963 -2.0326444824169574
Ni 2.3613798946813147 5.2441597296815745 2.4844471201879825 0.51676216773211 -0.13892904509945103 -0.052694759290554415
Ni 2.3809563743127726 5.168481587567026 11.552914426706383 -0.6095861909433823 -0.3203360568574548 -0.12053151642886983
Ni 1.1487656463717544 3.429730127276658 3.9712311932441233 -0.2963618054300444 0.006642445017182109 -0.26469507045438284
Ni 3.5126551129891035 2.4235281707059384 2.524184736970779 2.0516379928003246 1.2672849211232755 -0.36148887694668064
Ni 1.1825357556849148 3.5451795289861887 7.972392668886235 -1.2793757908495387 -1.1383489826807942 2.6674490816074963
Ni 3.5857418493001383 2.6638651468409567 7.309972971066033 1.6409675119226708 -0.4173332376098102 0.3052691352220033
Ni 4.2379486804589135 6.811169180088535 6.182611427366109 -0.9365965744972192 0.473193796222856 0.07802886717996885
Ni 0.6673360947253246 7.584872026498373 11.602500294807726 1.1688870033686514 -2.0481101821527243 -0.4176430555407453
P 0.13609154014860947 5.594172273542856 8.055182174084743 1.00195247419521 1.2590311657549156 -0.42041341919703085
P 8.622352705750103 1.5249741204783818 7.913331348195972 -0.8840211143933485 0.9275928283367122 0.28425628041576206
P 1.736032757359664 3.2901306420087657 10.330093676591753 -0.13906145691225727 -0.2334073160846948 -0.06750328505829664
P 4.186475177814378 6.123237319449037 3.563806735754886 -0.25848971297461937 0.5094268104129613 -0.2744737471077015
P 7.0546703990994235 3.8904002452739554 10.500209920307903 -0.20493826211072447 1.1375467984944732 -1.2539257262075503
P 6.190141052439407 7.5095848684173365 10.281812604044111 0.5787422089793323 0.9580706852105951 -0.45094475501666853
P 2.4860492454601903 8.446646299619916 5.582845557018515 0.3221106322593743 0.347289445517847 0.6893940044006449
P 6.870898810696546 4.062715092229719 1.6830516930231199 2.0733432456879 0.2386338545909568 -0.43371013630593697
Ni 5.63863534153999 2.6387239642209006 0.6221319755949053 -0.9855683764102315 0.078157165227717 -1.1111305132844735
Ni 1.4976416087402664 1.005110838337661 7.07945151270257 0.30313691937034887 0.1492114008620656 -1.344365565457362
Ni 6.904705290617475 0.8723890349988138 9.231983194189741 0.4011967370592639 -0.5368707655565269 0.33700477576238735
Ni 2.671893958505879 1.4566428411330936 9.250321254626678 -0.17052558895880957 0.9831525678798875 0.7749047817799558
Ni 6.523041225345554 2.201285571935807 2.822896538574427 0.1268397180350848 -1.1236844386900842 0.825723664204036
Ni 4.082964428104896 6.79383858548679 10.705685668896704 -0.7793003397444902 0.05390729154141684 0.08730180784146256
Ni 8.014945370710322 7.188241456129667 -0.04106605323154497 0.73624773152939 -0.2116293009776549 0.6339013706499793
Ni 7.689637562175872 4.1175165054850815 8.194050610136486 0.013678525928357086 -1.5324371337197351 1.2313367851634405
Ni 3.325928412705026 8.448655775699132 12.492127179358476 -1.2169872013099878 0.13315254762699003 0.2976985219635969
Ni 0.047299975403085844 4.869997102261932 10.448934637475709 -0.0232581991969922 -0.22140926318255416 -0.3706543454960326
Ni 8.80607883089327 2.8790609403559184 6.107739803478829 -0.535463086575723 -2.477640218939043 -0.46031591181892334
Ni 3.3665452889306287 2.4238918767836246 11.534043536865635 -0.2696357022891098 0.05517690228245981 -1.475390525218388
Ni 1.2098409894672038 3.279419498020908 12.869808663079732 -0.29383929611850684 0.7626398483696737 -0.7966154339841699
Ni 3.074343826117563 8.44616438906698 8.201983039690822 -0.1827200741424724 -0.8891278394922946 -0.899933928968863
Ni 5.937756312481035 7.98015688437964 3.536924310287907 -1.8394091105654578 0.8218922062730877 -0.03966517980010588
Ni 3.2700267885646626 8.25620979734344 3.3446501830539215 0.18539479276115814 0.39465225107252677 0.30564091673912525
Ni 3.3471233843821877 4.327911378774586 9.25714892697004 -0.935468374430047 0.4942009946021424 0.08322275267608246
Ni 7.057880105235003 5.901167481065807 11.441752210387577 0.9078925216943075 -0.3112639193528575 0.04632228010530731
Ni 0.38701690947026623 -0.05170263747347688 0.3625767703149501 0.5622629803773865 0.13491195352025798 0.40615870905022955
Ni 4.957304746210496 0.5739300091191578 1.6221009192592781 0.09067612363033416 -0.960831535785184 -0.49179598470507563
Ni 6.08640298643137 5.587470989061489 0.2791916964142313 -0.4299810082808079 0.03130498076086867 0.680716531231305
Ni 7.945031969927098 8.81026145078666 11.141616499489787 -1.072067742955057 0.4470932424810623 -0.11098552461164757
Ni 9.130841080311189 5.094658346448677 5.782758421149104 -0.07966331745959829 1.7934493560058917 -0.47597495851241906
Ni 7.890439687666405 9.138660760981441 2.2846406400851165 0.45744450380839924 -0.19120085791997396 0.5156889892725893
P 8.553594071763532 1.5942328503217698 3.7547096910759947 -0.27575107115822833 1.8662321442955732 -0.26849490381644725
P 1.8752776292018123 3.28272013067591 1.6184011191840157 -1.2420595708975837 0.4380375600366972 0.13388582624858877
P 4.949839678965987 1.1262522401629806 8.384501660656069 -1.9790508654612176 -1.1922788999300307 -0.8786817044583062
P 8.74260302768509 1.8077646885313177 12.821806734946712 -0.9173577808722654 -0.8428577527811613 -1.5829246009463256
P 6.437615760349017 7.873390965274866 1.2664036494037618 0.3486012223507351 -0.08987625343685811 0.770282452516596
P 2.0000742771078777 3.02789855999704 6.111280482145105 -0.7956307014733975 0.9942540771096877 -2.732298988203346
P 6.936320441420345 4.070434753728607 6.015062948558423 0.483242952928742 0.593893462798474 0.6455728934506366
P 2.3604342588793306 8.47275130334584 10.339569129180672 -1.02792575833052 -0.5716572771080929 0.08997524090856762
