# total energy = -381169.19499592384 ev
CRYSTAL
PRIMVEC
9.24204463312872 0.00000000000000 0.00000000000000
0.00000000000000 9.24204463312872 0.00000000000000
0.00000000000000 0.00000000000000 13.52666652077163
PRIMCOORD
 96 1
Ni 3.3904532628420774 6.956302045996807 9.024978438516886 1.6541516147131126 -0.049263107901186126 -0.1435439181636431
Ni 3.560525365529054 5.440542055485835 10.806074753694322 -0.5067772886052562 1.3067217869626593 -0.8306447556547372
Ni -0.6520059062026007 2.0009950523180753 6.927209014149817 0.48895800103564824 0.360027976130438 0.6176404287064267
Ni 1.5058802449522077 6.483626922650285 11.549351394452707 -0.12736782262441293 -0.536059068288509 0.9612459976147834
Ni 2.1784145803738233 1.6342245167712515 13.249761888627637 -0.9772644845302267 -0.6037533863116893 -0.21884098823474568
Ni 8.891502983597537 2.2492918195601304 11.329746554326817 -0.9785677767226825 -0.5387484421952141 -0.0026027277301697116
Ni 4.4546562016639415 6.366650365552738 5.915224550895373 -0.877073736541238 -0.0043171393181151456 -0.9817685430481673
Ni 7.466010041610839 4.446273667312399 13.092988163755912 2.9050454960728747 -2.3660815954327443 3.540435278342922
Ni 5.6079432073154845 6.467314714127162 11.17075381457328 0.17509983859305328 -0.22688931246051894 1.3098235658164346
Ni 8.613234266077585 5.243279857912158 6.253256024899136 1.6534820994499138 -0.883090375048963 0.480073811172141
Ni 1.6909152176669102 8.288283981843584 10.153034662713399 -0.8107305332293134 0.23962912862469052 0.05190491639940738
Ni 7.074433858655482 4.587880272973188 11.11484776325474 -0.8742964309064168 -1.1512795746995335 -3.7315258359372763
Ni 4.150380370951881 8.33649048589832 10.823496931760577 -0.5547543307051671 0.4232861127591355 0.22406007054183993
Ni 8.796762785540576 5.195387583370047 3.74974051496614 0.25470016402520007 -0.6315891775770348 -0.47443538193944096
Ni 5.3718551808434265 2.9185821973660997 1.2667395711854263 0.7874743909148502 0.18384467466521887 -0.03936384650960317
Ni 2.6882889327886583 5.280553023336382 4.719913968952249 -0.26901735197882054 -1.01097396096753 -0.6140102881530072
Ni 1.3216493301080503 5.942246440572375 9.164776376071174 -0.43240478723095205 0.8127496205418713 0.6668803966791611
Ni 1.3228692799806014 3.5238529329966157 3.3023728820439056 0.9115776838553784 0.8419079872733822 -1.8209665875895544
Ni 4.823191967708167 8.786263823001049 7.336647296489106 -0.2103064684011733 -1.4073586213501312 -0.4053053599109987
Ni 9.45987947762788 4.228494130973092 8.257312966556425 -1.1173610675752175 -2.25594993418096 0.40706733690742797
Ni 1.4569713455163054 5.536363572748012 0.3617474843670405 0.741684072053613 0.8918796912058188 0.7531900158106835
Ni 2.037149930359128 4.936739726300288 6.937719067142732 0.8204842701819676 0.5388985946198332 1.8496917234383887
Ni 7.586406155169325 -0.09515331744562008 8.120923495009686 0.6597653829009348 -0.23671992539769554 -0.47751453508539693
Ni 6.184064534627627 6.627571765566797 7.192805040266422 0.7039536473823748 0.444123361219461 1.525614711481263
P 6.1246012203852604 0.6758420631442364 0.0991754552072423 0.4422855366797737 1.1435955757917144 2.0751216777445616
Ni 0.9866344594255051 6.701637510101817 5.256665110945608 -1.0263388734593744 0.8528629436229892 0.12549477397141615
P 0.7183055607534953 2.021798894462863 1.4092491245927932 0.4263876345025947 0.5511982379227927 0.5032008841079075
Ni 0.24496223759041635 4.361422456858691 10.925569767915126 0.7396667845132681 1.0494530908793345 -1.0689165989205849
P 8.662762382494252 5.313694994874013 1.2368258457878099 -0.2507175252283682 0.44907093503272333 0.6708764052124316
P 4.310859231459253 1.7751841793178094 6.518352056408886 -1.8422522364412077 -0.17596012971081954 -0.42482517511148127
P 5.394904839799047 4.022451991134844 12.88385178742274 -1.175396522352395 0.014408719226162282 -0.2094124958319942
Ni 5.238205975487684 1.1193317341988778 4.503162147960122 0.4196677992802579 0.7310834137196313 1.0968603765187044
Ni 8.172758425730814 7.50011318577533 3.8544639694801424 -0.33230325652166 -0.572193095006905 -1.3347995190354818
Ni 0.5843569131563091 7.040127389512234 2.238054417665929 0.31858950647999323 -0.49028186205339436 0.13798467890831073
Ni 3.8347737936962814 2.1762519419633923 3.110457207207127 0.2301589843507262 1.888292466529722 -0.5274479295807304
Ni 6.211152967024949 6.10779918350422 -0.07251215685641488 -0.8443747036463201 2.6841406833305643 0.37379160557343366
Ni 2.536608498634835 3.765763447496757 9.415939101309274 -0.41715454594010093 -0.36860800448996517 -0.03832049284675336
Ni 2.6424946023455558 2.7092129215118033 5.134073087616531 2.089530396970724 -1.2384181174902542 0.8556104244611393
Ni 7.398293581639778 2.765016386136516 5.18151157777423 -0.6874139978561388 0.9842278032219371 -1.10102607786062
Ni 8.371979936736164 8.855643850980133 10.49470472963249 1.3443719932152653 0.9530007268868554 -0.042300303430107794
Ni 4.272689587719594 4.515653695291484 7.717098830493028 -1.1898947159685702 2.887982884163633 1.297417735952914
Ni 5.84272810551459 0.7456962080056088 9.627374898311317 -0.6518826377187483 1.7588878159809382 0.01768996108059534
Ni 7.794573965240048 0.3465313823203153 4.8777163333755995 -1.8021484264417869 1.212136815196222 1.1933050272016996
Ni 1.94068146998272 1.9949137870442988 7.6920196185676195 0.9616272922136019 0.6677548288643145 -0.7033679500822339
Ni 4.159252733661343 0.8968211952856417 1.1463323671735546 -0.46269212536058374 -0.055165332318234034 0.13119953766567727
Ni 2.7492402161937557 3.8171584569002066 12.157348533207482 -0.640913026081122 -0.21267522574366596 -0.02273523681398665
Ni 6.328360575234721 9.113312051334058 11.75123738688424 1.0397746872493059 -2.0485678385154333 -0.6613705226045256
Ni 5.205239602795344 2.669832569944082 8.310500008386295 0.2739821521832636 -1.8762805296705107 0.6547018523350983
Ni 3.282903591123332 0.18158306909805264 8.81459808299549 -1.0891069578255306 -0.05386409700830724 -0.6870077635566556
Ni 7.729907379950364 7.86956391422397 1.3607829190879146 0.9724161552989898 0.973224253022582 -0.22158049865309581
Ni 5.968392184431817 8.076132850598093 4.400440520282443 -1.3096808695909832 -1.520448593899291 1.2217031187284186
Ni 4.6203845434410775 8.457006746035164 13.20697676787016 -0.4012635857414573 -1.191875750954341 0.07817799116332341
Ni 6.282113384611657 1.0478352780318065 6.617759486932802 1.488296948867411 0.9929212172308771 0.14689997912006958
Ni 8.735173801065736 0.4789421537145283 2.7242303196020146 1.176258356132058 -0.8130172723809611 -1.6458700914306106
Ni 0.22059004206841737 1.345789550313375 9.07363410593379 -0.8046385613989626 -0.27676022914903303 0.5372764856353779
Ni 4.804301228772608 3.525368628292815 10.799378892462025 0.6279125000563961 0.018922547936115797 -0.35982563031164483
P 5.963854340587708 3.262626545514419 3.5767072612248816 -1.4679857481138847 -0.6893929759593804 0.5560843623705004
Ni 9.522725380153226 1.8619207668472775 4.378825226631519 0.5992968932022325 0.39870122433091976 1.601111042047365
P 5.359378420783248 5.827109050328143 9.132366374457073 -0.7687960977790567 0.08479806758300235 -0.20023262910493902
Ni 4.387355633694885 6.041783259719137 3.4847258134478936 1.9229427096137401 0.6902442682160822 -0.015114487043935261
P 1.0268373529527492 3.855346584728844 5.560392888419468 -3.010477952076777 0.005210597666661994 -1.1091006273386383
P 0.49123776970272265 8.894562100323403 4.599634305154326 2.4086775757264003 -1.0259727483692072 0.23820345192175751
P 2.615128908613563 5.486659857486054 2.4532369395038196 -1.0997263852125898 -0.9488717923201464 -0.3896946499569353
Ni 5.765131899984764 7.334310907642281 1.9748530052764284 -2.5545025766147362 -0.7496269810497735 0.2881982957826456
Ni 4.414176046802027 5.2690744040810165 1.134151352537024 0.2016611340213495 -0.5797850484215499 0.41019456968250007
Ni 6.653745235559706 4.993966465776309 2.6274199035795127 0.040296385626201574 1.1737376465927334 -0.9751942322647593
Ni 6.97063645699928 3.939680240691166 7.31550519551602 0.9353233642117506 -0.27337074385150983 1.3194772868561147
Ni 8.391702459675736 6.5198187688692935 10.968502761384428 0.09690410681791697 0.6501324877968611 0.22496252775145126
Ni 7.809499867089818 2.727077793509082 2.634819084397424 0.5131402547088065 0.47251733898112164 0.7848415812776934
Ni 8.961742521714102 0.21450877679464114 12.6589031971733 -0.8144529763862232 -0.10518408743852208 -1.0562107213181422
Ni 2.8389897102266453 7.505445845445495 1.5869348235298255 1.3969626228277876 0.4244454231745593 0.15615003696342789
Ni 6.529282622426051 2.099931138573052 11.939122606119357 0.777072735965552 1.4914540064391537 0.00909887697747465
Ni 2.625396820040866 7.313368434830158 6.948730038946953 -0.9404843395873995 0.7111709910664203 -0.4437410381793777
Ni 2.7669572154792106 7.854416203306463 4.296867700307324 0.5233585900027051 0.026742301090850715 -1.0315877805631395
Ni 1.726755866195336 1.3301427689934613 10.779684095655922 1.3451065573884449 0.17151032146958203 0.9459867574628675
Ni 3.5191764584851706 6.499227493747753 12.958113463300927 -0.3494239753623466 -0.3204862092820739 -1.1228678563260597
Ni 6.3900604642434295 0.23375256182968202 2.554672998793077 0.24842718653229473 1.7138585436554419 -1.3459480794531336
Ni 8.898027867006787 7.018103597494895 13.227605011169656 0.6743715628498838 -0.5513216508745343 -0.7310525604816959
Ni 6.547202946690264 7.9207371145596825 9.714784306679585 -0.7894543974593564 -2.307246527572407 -1.4509321350657076
Ni 4.220629151112935 1.623873426943547 12.183130140514058 0.10233864756992697 -0.3269435348716434 -0.5549232521828636
Ni 5.235904706409919 3.8847085600704654 5.869870141769948 -0.671420707751676 -1.2203625455401241 -2.6888200910841045
Ni 6.75128577309684 5.650428885831517 5.161032131391008 -1.1665894655837263 0.19432526248156856 -1.9065285299217745
Ni 2.568974138435389 0.28255425354951186 5.893744191093989 0.4656203547509723 0.9272490718440481 0.26488276098515673
Ni 2.1466681575540343 0.6775915821660082 2.5420391239765845 -0.34890718362692813 0.08117281212558923 1.842084600515092
Ni 0.5928826991974315 9.227636141663254 7.20449160552279 0.4754789927126069 -1.1920068772155665 -0.6345197209602684
Ni 1.1436290691605158 9.039079949998234 0.7621535166272095 -0.28111490657330296 -1.8812774686644698 -0.49092900871908995
Ni 0.4492890539715024 3.6541842443807986 13.156225004763145 0.06745751942202577 -1.5804833384946846 0.7671410786741368
Ni 8.118137942800695 7.541489818952679 6.125023581818409 -0.699093491076596 0.7700700793954737 1.1922225927707983
P 4.270249687974492 9.015623641085098 3.0496676595805865 -0.7235814489156313 -0.7729954805723849 0.15990847556459556
Ni 2.6466997325880612 3.567161153472171 0.9501588824406835 0.25768392924387234 -0.35792044286913194 1.7564028447755557
P 0.08167194714948423 7.1429821026305556 7.868163744483883 0.13044157645373017 0.005337353052513389 -0.10865739069910318
Ni 7.478255750558794 5.61894124025742 9.003633012565041 1.1775400510579592 0.02269615604593511 -0.5921505119654382
P 7.878380824666497 2.802298793605229 9.228554800885464 -0.19393574035263375 0.7386599405153085 -0.029648933214684425
P 2.366961529994354 8.450149149024309 12.36632224955765 -0.05537616277745947 0.375783696302798 -0.04480455790920025
P 3.660339446010487 1.8952013690522442 9.891848016022506 0.46574916701935276 0.7283593299202489 0.643518324914453
Ni 7.973056328412033 1.8707376772898041 0.516107187218231 -0.5337363336926033 -0.03497214519981074 -0.9534231591362547
