# total energy = -340897.6807841363 ev
CRYSTAL
PRIMVEC
9.00465134369576 0.00000000000000 0.00000000000000
0.00000000000000 9.00465134369576 0.00000000000000
0.00000000000000 0.00000000000000 13.17921744561164
PRIMCOORD
 96 1
Ni 6.241961290148513 1.9214395211373458 11.445847461755683 0.729985295559446 1.0012739600709466 -0.3178300026061494
Ni 4.6038801380056515 0.4078233614869354 6.007785426416867 -0.17839290752202824 -0.5516132139730241 -0.2224377044470685
Ni 2.814412787199536 1.613498453930235 4.785374288955989 0.12803116724002467 -0.9472118881192202 -0.5584253517988512
Ni 3.5739011015020266 4.286331107797489 4.775054958497502 -0.4234660899804255 -0.2719108714765317 0.11575080721077485
Ni 4.846555492155943 4.541342834310893 2.49610466488173 1.044867014170549 0.6744790349620254 0.3531919270452111
Ni 7.230194762947472 6.2306424433890735 2.4964468416334076 0.619108785721837 -1.8100774514808762 1.0727277451365589
Ni 4.98613659288632 4.625815468718457 11.448957668335405 0.49878835686250866 0.28177130921037924 -0.14455770414013813
Ni 5.385790034194383 7.9332869457826805 12.455098691293871 -0.2448600380063267 0.03881620153624928 0.22379190448211778
Ni 1.851851575427756 6.685917616147467 0.34037672187073853 0.025175213714046966 -0.648194904454516 -0.26592431487579365
Ni 2.6646654350837906 1.7684504945320236 0.28690079883948316 0.14111319723496343 -1.0657006630864485 0.6766001950700864
Ni 0.7124606221100855 -0.053226494188585084 4.483319562342869 -0.20038123886766138 0.4692178422942435 0.78334288524498
Ni 8.538336484610898 2.145457237669848 1.3087369291183177 0.41249210746742515 1.2600868607129394 0.5669773551339203
Ni 6.987177232045505 0.662419973572646 4.730706150084678 -1.046172877466166 -0.6859399844137735 -0.22375976569260173
Ni 0.8063773348639521 7.438553390765045 2.471564288530495 0.3275176622075585 -0.22266267597368106 0.13398095706555635
Ni 7.702830903527823 3.8207185952778877 3.931004863738983 -0.26075691174224125 -0.23553027596496856 -0.8124135773586911
Ni 7.563006677210728 3.8899463549330804 12.664226316337581 0.13413753724807867 -0.31947807973253367 -0.4174414810529004
Ni 7.884625809833583 8.663501138514016 6.810149388169695 0.07721588436037023 0.2168167587158653 0.3723003657398879
Ni 6.812892204973932 0.7002800302154994 0.34442611358730196 -0.3296023126507291 -0.06970672046751865 0.12085367565497895
Ni 1.7623633502127065 6.399209516847085 9.15507496136945 0.5189661173619643 -0.0370357125970588 -0.7064221635275252
Ni 0.15933010209298973 4.957429764350841 1.1761254285405318 0.0755860620664311 -0.9647717513798546 1.7777828531132287
Ni 6.277376583947144 1.9038894556368295 7.0518171218328085 1.131800125818683 0.4976722409801946 -0.7483280597326919
Ni 3.3884593113954926 4.351092560378152 0.4820324942744447 -0.30934381951200923 -0.8258913001301519 -0.09405172497078641
Ni 5.967787665541165 5.425005290866908 4.63937467273625 -0.09705220236000706 0.2817558825914115 0.9733954884931236
Ni 5.318345195508459 2.9228738128299723 9.27602093611044 0.1550254364406814 -0.1414430697705564 -0.006914981952278413
P 0.18266835748767332 5.555815861172706 12.276691334829717 0.6931244179773547 -0.14485852321000858 -0.0031323749813946056
P 3.819349888271178 6.1704193350938175 12.716534336087452 0.48606885241331127 0.9061953364975426 -1.3946913102951077
P 2.4915239987349307 8.51238507939156 1.4121922690577648 -0.6120909596431071 0.7094398673079266 -0.3975843371176572
P 6.3804618327156986 7.481019326578505 5.670529716707483 -0.4989284819847987 0.6628224245597036 -0.010506041737646422
P 4.566258704623837 1.1897575702343397 12.597236212545333 0.6196674864387844 -0.9129506529435051 0.2602815147677195
P 3.7938036923630376 6.198621903153138 8.179997284207358 0.4045170596817485 -0.620334430598822 0.3903050298474246
P 4.782676495408552 0.9806245423998128 3.81165361275384 0.14905919155491748 -0.5248529151600444 0.25239131338636533
P 0.30254367918196495 5.601919676135581 3.4852575125845386 -0.2658854912180582 -0.5554868379958174 0.18841815296851422
Ni 1.5839812067723629 1.1232582199412082 2.5724650088791283 -0.452579205296298 0.7498954042198118 -0.44506181387333027
Ni 1.94499568909494 6.358724604332811 4.85372139370818 -0.09702494866649741 0.4103298097087837 -0.3434728999852343
Ni 6.014845973548193 5.563082614820176 9.265068578661348 -0.6100482181814656 0.7818357045718342 -0.21808071302995344
Ni 8.394460165181831 2.29138661760898 10.140682677831851 0.8243447815786383 0.11648022917763165 0.5736573382572572
Ni 2.2966003107463835 5.000048779237422 6.825701321533441 0.24074832983079827 0.7995297794174875 1.475298479725214
Ni 0.5345980470532105 9.01653749973169 9.121836992269653 -0.6670554888044448 0.20515680587943377 -0.4233964130847547
Ni 1.362097592612166 1.092579372757904 11.293653545865443 -0.6949804973494869 0.6207154680873245 0.44050067686520905
Ni 4.113810992392463 7.016127186167701 1.6566145255718834 -0.023173352792669768 -0.4429401395446372 -0.1072481690564024
Ni 5.719511418244993 7.90494930795296 7.790420047771062 -0.1126773104917737 -0.33212019397657644 0.9099126374481297
Ni 5.308566144131568 2.789199763391714 4.968947613905336 0.5251843303575342 -0.007536417586361214 -0.08123323304987945
Ni 0.817037041143845 7.330713686078445 6.962646760810765 -0.512401319660253 -0.7203526575656883 0.519407575774757
Ni 4.987982546415107 4.681761367617743 7.120942228462498 0.21671057215530423 -0.7586523244768353 -0.46136337924683124
Ni 8.122915898771584 7.0930989459924385 9.154667050662844 -0.5244572223835225 -0.08016391124510065 -0.1273901912219161
Ni 4.595802965735788 0.3192220944308395 10.485095284442114 0.0020813080090609317 -0.030222803440283434 -0.8731610317503931
Ni 8.310005540076988 7.129126556083544 4.760136052124358 -0.536280954491328 -0.3633534409592452 -0.11699085026546302
Ni 7.245610726075684 5.986841507818791 7.049312928289611 -0.3698567892954017 -0.42660823515383306 -0.47123127317984653
Ni 2.4157498575410643 5.248036877690075 2.614717534455359 -0.9632134057537993 0.14206707650780048 -0.5151480291674547
Ni 2.4155967784679455 5.135667833369427 11.282267164220803 -0.77116614067313 0.16428577869668481 0.5433080365414384
Ni 1.1910182214247307 3.4433336567829462 3.834637985350078 -0.3626541008993754 -0.32430815413132535 -0.5801298333554783
Ni 3.718650872113007 2.523931738979342 2.6124636702199666 -0.34717014633116344 0.1809382996517013 -0.12415111545932812
Ni 1.073732637461557 3.193328516425667 8.142397461988807 -0.2789688067645776 0.17675588613923754 -0.020469580708261523
Ni 3.5276892307228316 2.5812733588394186 7.055520734937151 1.4758391827200326 0.42887826213493235 0.7701089030532091
Ni 4.165272574914501 6.898598476617808 6.0536623241654715 -0.048614161463277565 -0.08307337158241176 -0.44252027839839914
Ni 0.6572161855517388 7.3395742630166225 11.158751261981688 -0.21108396999714613 0.23866573627015672 0.6862192062170891
P 0.11770159885600294 5.3704461082770525 7.888604965269539 1.316408932343436 0.293833639691552 0.6990343557038864
P 8.513321563132996 1.4834352696873112 7.775882938615581 -0.1011543974538387 0.5657434827268192 1.2907508654556996
P 1.6942071440693465 3.1389044036062104 10.452621810242775 0.28080354598047125 0.1371765811847186 -1.012655719545327
P 3.9366084582802716 6.182521586521572 3.8605884901042793 0.46947726660321726 -0.05407004237152623 -0.608977610825106
P 6.884974439110224 4.015038971625319 10.47828146475805 0.027006867606147036 -0.4602655181969622 0.3394606935020476
P 6.155705734771682 7.620897580803761 10.26243276793928 -0.10472591685518093 0.6233012265366298 -1.2040897765220295
P 2.3184365902942297 8.331409596359556 5.892784322503709 1.433530908870125 0.09580830265057692 -0.8577842921840066
P 6.894204206754159 4.048356181657085 1.718411646924856 0.3593422629173231 0.6008868633971717 -0.15636600962897584
Ni 5.429075393281599 2.9847627816268165 0.47687643090574505 -0.7524071148980719 -0.1957547958392435 -0.391731477881306
Ni 1.6692012272428027 0.9560508488385459 7.025748656145792 -1.2115614023087262 0.7374265823288397 -0.2162544584544921
Ni 6.83441332172418 0.7535650546379241 9.123602804401335 -0.2777768433390055 -0.7986121526992246 0.07002528014920198
Ni 2.666331295585379 1.5251268054838174 9.2659780484487 0.649468628960617 0.02078376951457066 -0.29884729085605954
Ni 6.295836119235014 2.0798493478613502 2.638216072644249 0.911136996773534 0.07745448273373758 0.07135942557959324
Ni 4.01498494371716 6.876897266840361 10.456114714505294 0.17362736781258484 -0.3147441645919741 -0.45564987380182165
Ni 8.182013425646849 7.026545567791147 0.47017516936368026 0.025602016838820425 0.6225874882990569 -0.5427853312687491
Ni 7.579917412464689 3.6814436526937486 8.304778339962544 0.040705962359794415 0.08378119628271377 -0.562749690205818
Ni 2.93448080843293 8.544027424270379 12.184542235137807 0.3462707744453456 -0.5082065648526151 1.1839374699438707
Ni 0.0865725191047022 4.7739599928921335 10.089389482290246 -0.22248809806902975 -0.08848914328134437 0.6219814792839418
Ni 8.694918367108835 2.191452996816404 5.708077311948146 0.35986034020432217 0.7549872169204224 0.2080827212769771
Ni 3.711222034741059 2.7014494358891317 11.323161788371953 -0.7436933891741578 -0.028872460059976082 -0.11367824095246229
Ni 1.131632545705949 3.426449935483065 12.606250769021766 -0.9531310818171325 0.05553531406314307 -0.21239009040307938
Ni 3.2730556995665454 8.388210937138036 8.106180754219142 -0.2623977897797739 -0.6939785384475339 -0.06470643903944985
Ni 5.54536146094382 7.686676558988097 3.6062296008144705 -0.1348384199698452 1.257110294583119 0.30465515578708824
Ni 2.9749477116444853 8.306367660927572 3.707973156530394 1.1427324564604708 0.13896169810959938 -0.32392505976029373
Ni 3.364858120181099 4.203443292029272 9.176293521834005 -0.5289715653141083 0.4245323264614108 -0.21553172135585463
Ni 7.192690390033337 6.319356268587168 11.573013849656116 0.26114103455453735 -1.326924230052463 -0.6087205005089774
Ni 0.49762314763903887 8.932434056029882 0.2540770437022424 0.7970682052508725 0.40072211141569053 0.00566336893336444
Ni 4.672567618579247 0.42068380455919685 1.5948038972418708 -0.5581211902948711 -0.270757731708695 -0.19982433792292684
Ni 5.818913764607333 5.674722282380668 0.35552614731869575 0.4379285452626587 -0.1894242256355254 0.7640053612586326
Ni 7.673853935451548 8.869221403483127 11.245615531790452 0.7850066461006481 -0.35396840019991943 0.08851665408517014
Ni 0.17312522797641255 4.875028199756062 5.643617515188041 -0.7899465066044266 -0.6548185804186206 0.6082823845302944
Ni 7.90780378243406 8.786864862145148 2.4052333252177944 -0.010755181633975026 0.5506518785010194 0.6160016075514231
P 8.517769860904803 1.6307783798899531 3.5072792879504 0.08696087956227604 0.19485593817405797 0.20804261206766103
P 1.7993094347425262 3.2661221180193944 1.6771217185790028 -0.10319611047421583 -0.18983045993500858 -0.5506719331056774
P 4.740129517732852 1.0449087484584 8.262895005092071 -0.37464135516823865 -0.20887770637444675 0.15596928841118943
P 8.474745636707027 1.589510062707364 12.37144998248574 -0.1310712396179291 0.5998861900467991 -0.3793881258246047
P 6.304111393834796 7.775381379534832 1.3524905300762495 -0.9894754247741216 0.02956382970004586 -0.2823914592928814
P 1.8981895113259897 3.128837203385801 5.877996884040421 -1.5477801918347085 0.44542922451507805 0.44860582247084674
P 6.933725621572921 3.8959974806469577 6.152599130052503 -0.3740780264656009 0.2323855596883998 -1.0849615681985896
P 2.291782822268817 8.365807364554515 10.124486011430733 0.6613157581071901 0.5032911298288688 0.15467010998379166
