# total energy = -381168.1415305993 ev
CRYSTAL
PRIMVEC
9.23383081270180 0.00000000000000 0.00000000000000

0.00000000000000 9.23383081270180 0.00000000000000

0.00000000000000 0.00000000000000 13.51464476430842

PRIMCOORD
 96 1
Ni 1.0412252061615803 1.704980651209672 6.340030271322572 -2.0671749120936593 0.9842637986661952 -0.21037177442146998
Ni 1.6227810912049683 1.214008644356145 4.013849206769783 1.2441069403449154 0.13974614168410773 -0.6470672186079759
Ni 4.493745233818138 3.1370831405165127 7.415796467611046 -1.8637754552249644 0.6618423200346214 -0.4560766769265952
Ni 8.698379231537952 6.867495300091915 12.056941339303267 -0.559960814606771 3.713029319794986 -0.1804536467057989
Ni 0.8756884782222046 7.854240905711173 3.3460908961564213 -0.43656046127053855 0.41036837625620287 -0.0961659431003118
Ni 3.0825389031599877 2.4512219050110793 9.33409153305265 -1.8539852086074198 -0.9751191560524497 -0.956944799136268
Ni 7.642730781978558 3.6899033447314755 0.6867125946867899 2.3841268829702296 1.7668911459013894 -0.04461841004032315
Ni 7.840741045373398 7.893660128544254 7.103121419203578 -0.1847561307358947 1.5523528988070556 -0.24885373254675205
Ni 6.710520179885225 5.303856893882467 11.791324661784584 -1.2189800633703007 0.2378974906455645 -0.2667943761855728
Ni 1.1629824964583702 5.2060613939937 6.756578526919988 0.7629247265999441 -0.823546196936743 -0.5169398309605548
Ni 7.676674343265605 5.811486731139104 3.3936488172806882 0.5186028204852746 -1.0496050430761665 -0.4537416010355153
Ni 1.9939903151713902 6.829294942898087 10.051989543826148 0.5935522774089713 0.8847173691294247 1.9623114412193494
Ni 3.07742336100737 0.9084565728738214 11.354220052504575 0.9207210409175434 -1.2179022569250895 0.05087698935552529
Ni 5.424450721523608 0.8168458927211966 12.601703179553265 0.14520073704077574 -0.1092852540910892 -0.5608817837591438
Ni 0.7239212384741359 7.083834717228536 7.99446585720875 -0.7306113591792192 1.1684761410834779 -0.004660381590146812
Ni 1.898281660998311 5.826611745662549 12.72753812944319 -0.5305949598501443 0.8465308307573743 -2.7528703845967946
Ni 1.6040179474249685 7.779622320629392 1.0647160712089818 0.5410819754243972 -1.070732569083401 1.1282134369086894
Ni 5.755206533629706 5.058015387977589 8.095515359001098 -0.102662606568249 -0.05962156831737473 0.13561695000708254
Ni 6.518077916342422 0.42798343141294204 7.995060515899415 0.7063216333939191 -1.1871966003111167 0.4778672904391254
Ni 5.982469572366592 8.05355313922067 11.234494204939871 1.2451947740924556 -0.07733132689231198 -0.2647498349517182
Ni 7.707330660858911 1.7111857853731365 6.164258765545721 1.6155639842479017 -1.2236265610033765 2.037893132410406
Ni 8.938606568437793 5.993162348201848 1.043490264807857 0.9469090121668208 -1.1313877208716128 -0.8564295779283251
Ni 3.262977186922279 3.279053285997564 11.434038207597435 -2.068114136078477 -0.2562654516297909 0.6515867037448843
Ni 8.549649922057414 6.664101713457046 5.315079691594186 1.0187934570119488 -0.03865885002277858 -0.5696893547484446
P 2.0343606225563113 5.3014837994181665 1.1060559308069438 -0.40578435642994637 -0.39604681742720826 3.6818575221778715
Ni 4.541336396732566 9.370768308197412 4.083436277557409 -2.0054118719532497 0.10216869765096598 1.8791000013971768
P 1.3360614172321472 4.696686362753588 10.854084392163218 1.2499849963922474 -1.2043653987809193 0.020691981131712753
Ni 0.6006052775719998 3.5383392492566155 4.780129719740164 0.2101331760481026 -0.368005852129592 0.09318706297764597
P 6.297278559025811 8.56832072753141 3.362700710640409 1.4049824078084707 -0.41833262540860217 -0.3739846954208462
P 2.0251914287701203 3.184785109398146 7.584310182535988 0.9875409267555703 0.8153880866059828 -0.0417760554955216
P 3.7389996220337682 8.541948907336685 9.979389474113614 0.1246509379138821 -0.21248342144783408 -1.3122365461333012
Ni 4.224449798188259 5.027820761914302 12.25833672499621 1.0573695175129338 0.6457243314268363 -1.0385122755971148
Ni 7.7691049875755445 7.691928631417455 1.9043889165574113 -1.7548843512485004 0.11224485094004538 2.997683885635902
Ni 9.12457591672972 5.834783685743898 9.83644515950422 -0.0018277972373581426 0.4460321482063996 -0.4433849403915396
Ni 2.7469445638192838 4.5042625668719865 4.300197680752468 0.342090674925727 -0.06879757838968796 0.29209454551325825
Ni 6.287398360283389 5.608351691761046 1.1989261054534621 -0.013020066408751769 1.6875445883512614 -1.2996787640729486
Ni 6.474401897602561 2.6527687255258696 8.19177988977632 1.1786705651179765 -0.5931074765620687 1.6960325712176145
Ni 5.526382977521353 1.7647512366860196 5.543125759165986 -0.2628904131454763 -0.057777830240416626 0.8727347428462517
Ni 8.720651230946103 8.690502774035817 0.30065629449799497 1.0748103386972006 1.6027159246406397 -2.367276129961478
Ni 5.148885514916062 4.0343344599567565 4.553543520786286 -0.39920207522673834 -0.5953847026320198 0.08766613315941676
Ni 5.3603494694956755 7.370785236966366 8.05805278487224 0.8130177866015934 0.8177249622692756 -0.05238031337392914
Ni 1.5159918403114163 8.358038703268647 12.429540254775048 0.15995758363497614 0.5213145629894829 -1.5209656427450258
Ni 3.2294768495040507 9.018737750388008 2.3944837095039007 -2.3163574887347393 1.4946845975613097 -1.7672523858955502
Ni 5.150289057167322 8.123185455778236 1.4175647464095813 1.4224216863308405 -0.3083061222761142 0.4469729148531141
Ni 4.896072466907887 3.631065376145768 9.809672591061439 1.0556702754336398 1.9277820399839123 0.9002355193696817
Ni 6.387760865079067 3.6873640413163677 2.422188894837322 -1.474744406993957 0.7819568035307308 1.0684892815751792
Ni 9.126921309702219 3.5073505137616947 7.437541215291912 -1.6230183836434178 -0.8482293015057197 0.7586425542848225
Ni 4.22280617634139 0.7362594829223817 7.885335830257999 1.1823564986099961 -0.3452665015505473 -0.17063100418842225
Ni 2.7179226342422464 5.122892281775954 8.76703091528576 0.4745135434755441 -1.9255266682908325 -0.14844341234778952
Ni 2.053908641937344 0.4918723053370652 8.007615755366771 -1.8354627243232002 -0.2040625443739905 1.8969966791719393
Ni 5.612950139400042 3.435095789313615 13.257433502426556 -0.11015942916592641 -0.6416805003747659 -0.7519648851543308
Ni 4.676750522487339 6.170239517625595 10.33259457517539 0.5879357025531424 -0.35417691666629975 -2.197725503321428
Ni 7.669425786244296 4.01540510722595 9.696446436856355 -0.6256044207485096 -0.3320626012657636 0.3485464578533997
Ni 3.332895752228459 7.188260107488387 3.627492807086475 -0.5394467538138193 -1.487677055895225 0.9703019371694644
Ni 2.6996488834840675 0.12499836483752784 5.953889943275314 1.5712841884939197 -3.6543739720456228 -1.4096553878041078
Ni 4.469460259339103 1.6668726323218477 0.9891057727207189 0.035785899350357725 0.06798279579787646 1.4269288301725749
P 3.522697140219549 8.883942291283462 0.1484615283931279 0.10369207627402788 -0.20956367669787782 -0.337715942896799
Ni 0.9516662831683631 9.112184116063991 9.944413570565443 0.7786333955844525 0.34070716431463904 -0.0810851375077894
P 6.440550674621517 2.7535559865291654 11.104172536761217 -0.703482107062595 1.601986759784099 2.176760985254619
Ni 3.3164225984373568 3.6734301909403735 0.4568003699506503 -0.5618678018214969 -0.8377983359803828 -1.1400636513790559
P 8.62063961171324 3.380810099213901 2.682049202359718 1.3937747120181092 -0.07337774156120266 -0.44295685171518545
P 8.880036380939496 9.310102041152826 11.59315927003566 0.048193528986091194 -0.9703646720865997 1.595626107673394
P 7.011256808709443 6.233675933850299 9.601925253298484 -1.5625774047485412 0.21446805597803065 0.13906274246383793
Ni 6.351388806344117 5.8416351880493895 5.75765719227105 -0.6999293567143301 0.08526343725519508 -0.09166522701648085
Ni 3.847229350500981 7.515331621184928 11.969407395360715 -1.4358891246896561 1.3032968204415103 -0.8421805242084786
Ni 3.796683361794427 5.3478283952015415 6.431903192264248 -0.12128407832417824 0.7734107137329325 -0.2870569830893508
Ni 3.2153213871936472 2.177235683436201 5.760955516561511 0.5659072619981931 2.6411441251643804 -1.2020264662350975
Ni 5.556171315038222 6.253898022865162 3.52178114422399 -1.0205734317305069 1.1275243812614646 -0.028883772913885743
Ni 0.7298410472720481 3.277280390522288 0.1837947811855339 0.44565830980674864 0.4657910760008817 0.7281469567991267
Ni 7.7033970490231445 1.303207447955947 10.39570780732908 -1.1273508317980778 -1.0749697470932003 -1.160738406119588
Ni 6.7945757398406075 0.6270084927907652 1.1664331789537372 0.2638067543121586 0.026883197544089188 0.632635359453362
Ni 8.850968282209458 4.815359553629847 12.300056095031849 0.9448019931261471 -3.4884270035964304 -0.2464896031899497
Ni 5.870241595249409 8.451189586365418 5.741425964841679 1.1466168791165412 -0.16758681804545975 0.41480301498878885
Ni 7.4959036416017 3.1948130494301736 4.493903132321405 -1.1168324487652572 1.4984592341123935 -0.3677081183835151
Ni 8.036498254101742 8.199881652745105 9.591599983921126 -0.347911138262246 -0.4054375146134888 0.05586647215031669
Ni 2.19902752365313 1.2770572396956323 0.3746128139257272 -0.5934790009688747 0.312474651831507 0.6618099241347892
Ni 8.437495815585033 1.1498796908364117 4.069272504799466 -0.3900286362575863 -0.789719221084969 -0.9400937890172003
Ni 0.33349733641135476 1.198264963182474 2.0551986080722195 -0.47722091510437814 0.0022975377849250756 -1.3992177374105514
Ni 0.6833828753722879 5.404524115087959 3.2487580111807324 1.3096433314848284 -0.1571874770890067 -0.5427891879234911
Ni 7.9836899768980905 5.672305202499372 7.432189287075924 0.5988245815515042 -1.3166210483542422 1.1235857083286909
Ni 1.607951559260736 7.08675260769826 5.61710536317022 2.3858598065009367 -0.8376417557978607 -0.5960508754611089
Ni 1.917940486346549 3.073018823810982 2.3213425373181833 0.3217414218454136 0.33532944494249345 0.7143020804962343
Ni 0.5068080263332018 8.938994389323009 5.425575402090735 -2.6553409854900525 -0.10572144799923082 0.691179635546158
Ni 5.151904977522391 1.3458031085155624 10.110495094510243 0.023126558715134363 -1.7331320471730731 -0.2780334394345018
Ni 1.0605054444552022 1.7252304417163349 11.965149676070872 -1.170065597057785 0.3644235340949724 -0.1462788005963029
Ni 2.985242030123641 7.364829416229113 7.977965001925847 1.0983207631143148 0.7403231871503443 -0.7198813743562247
Ni 0.2900207684124616 2.432569567198284 9.890489846625265 1.980234344246357 1.3386716003963783 -1.158043118675612
Ni 4.091067115165575 5.012945060817068 2.1711275044940406 -0.4342017312303748 -0.3977586579119924 1.2062086226372453
P 3.974277625731797 7.483373333476965 5.782199790623836 -0.5875747196692978 -0.5129142547409296 0.18958234847994446
Ni 4.057899195648961 6.448833420670071 0.34010044867369615 -0.8943366373867436 -0.13458439497751015 2.591294548632105
P 6.765756954536778 3.72284965231368 6.484434454549888 -0.2010013889501635 1.6681379016898756 -0.981718149426206
Ni 5.916780101475393 1.6284968323466118 3.1070030139526708 0.16956348215585637 -0.08653510487876709 0.30685936252725865
P 6.81433613732545 7.609156573915527 13.336885997827642 -0.3129621329908868 -0.44191555493486473 -0.2908609302164733
P 3.800903222378807 2.395588075643708 3.5202677193885856 -0.45353462723103183 0.4343716811493357 0.19202643914506284
P 8.877838729256602 0.5519817723964472 7.881889764677932 -0.03105224132011426 -0.4588457550313001 0.31777575232944627
Ni 7.7551619033689505 1.8851788553763524 13.057255135606743 0.7288103014147385 -1.228300312329962 -2.3553387550939435
