# total energy = -340860.35556019197 ev
CRYSTAL
PRIMVEC
9.27548611042784 0.00000000000000 0.00000000000000
0.00000000000000 9.27548611042784 0.00000000000000
0.00000000000000 0.00000000000000 13.57561150311841
PRIMCOORD
 96 1
Ni 6.039584198702927 9.112339322216227 5.572748068691073 2.466738227314558 -1.1296152023522223 1.7769994379799847
Ni 1.2604921485941976 4.185479507147388 11.678093606921601 -3.172252277205517 -1.0191855502440448 -0.19271780878513264
Ni 6.922935092932798 4.186833728080423 6.658646819719478 0.049998700515630025 -0.1418205077146332 0.8230630866527374
Ni 4.2714447099375645 2.41354634467236 9.893932571460137 0.7821429513996079 0.20021360294154553 0.12698241426053614
Ni 7.433884506063967 6.979747443719358 13.193118072719763 -2.113586152368347 -1.2262994798498494 0.4114335842959237
Ni 9.191366461596061 3.172206882718768 7.091614440725285 -0.9580305760012793 -1.2555033551073151 0.027243409096985336
Ni 3.7977363724648523 8.229739742339614 6.079104261232934 1.051869156519995 -1.0197028562000954 0.21344295714762593
Ni 2.539628023732229 5.953990015346458 6.019439698549744 0.5422155748082081 1.724521936906559 -1.171837344246227
Ni 2.2899133938749645 3.105627445339842 8.653854839657145 -1.7633003432263377 0.7028205622191961 0.8754701394995439
Ni 2.4015160395343735 5.33118751843813 8.415385808835573 0.3090841380927193 1.4949458216424965 -0.41845835235318896
Ni 3.463280903948648 4.3035564419250045 0.6650365665959114 0.44137999414636886 1.2417890908450162 -0.5486358765122552
Ni 5.829429515964793 2.0581746555808595 11.85097938754375 -0.5885039163517864 1.159616376700003 -1.3829837920501922
Ni 1.1324069645923045 7.216940167688973 0.3820730301868914 -0.7514565780593445 -1.2977740908510682 -0.9295347825544314
Ni 0.378029845908057 1.3692101181565257 12.6156522955134 2.493328833318893 -0.043532376064996 1.651261180539195
Ni 8.433856083794149 4.586273250410608 0.8255924438873568 1.8846384147169026 0.6994179642955504 -2.829833015295778
Ni 1.1512269253671499 7.638779988329287 2.431989720721992 0.3210449099990213 -0.08150988375003382 3.9127443858335584
Ni 6.935382794933707 7.052188988150872 3.7198260015804796 -0.6198500347632357 -1.9356560434153502 0.20982927165443863
Ni 5.1863415315184715 5.992167915075027 5.189277222787687 0.97991477766888 1.889537908901049 1.1840063755085932
Ni 7.347566834811767 9.159876187160084 3.495624523082155 -1.2270497277523127 2.2753859314183846 -0.33826487342173356
Ni 3.6718865805510505 5.412097581444033 3.6392823202653632 -1.7832454188896967 -1.6780140231530067 -0.966784153824193
Ni 0.4347744856479644 1.1867149342013337 5.494715261393577 -0.21315010849755547 0.7257568593003952 -0.6200814340477514
Ni 3.6028027619945946 0.5058163592658151 11.80571779927711 0.9959687458079491 0.25826602699958745 0.7829963005388385
Ni 1.1494460320853508 5.250333108347283 1.947761127206485 0.8714743880765895 -0.04155802594744456 0.5952888004841038
Ni 3.2857666558909875 1.2571344227191388 8.061510255610502 1.7281423072679658 -2.283976501300873 0.19156492612761203
P 7.588154386599811 0.35673054776745683 8.646592134242308 0.5344778398443183 -0.5180734303443659 0.9295278405758959
P 9.35182309118899 2.2366257277086325 9.620655424916652 -1.4055395658635212 1.4739617631916615 -0.47100115944691145
P 8.092666612556142 5.945604976144654 8.12860077225936 -0.38832785151639576 0.4458298023876064 -0.009268569786119521
P 3.0018069323024617 6.4201202808856825 1.3426098798568205 1.095936064932222 -0.23690684459752107 -0.23851892627964727
P 2.7237927951391083 5.028732476079252 10.555335930251461 1.3180055874065946 0.7314482532582177 -0.79083687962918
P 0.6543270906419257 0.4123788250807567 2.627287857785868 -0.6521844852298833 1.136385174086204 0.3509334700283376
P 6.361573414246538 4.442039445556569 4.011077184589955 -0.5161034511021886 0.6155904881559333 -0.20470326328178295
P 7.261314091960467 7.362574570905261 5.889031932892837 0.43036333132089105 -0.37609197157183616 -0.7906314484865932
Ni 5.615620291804634 0.7498850008906262 7.999972044787085 -1.571764727674764 -0.8803634630361031 0.04900599758505753
Ni 1.9482044954297664 9.284019289678827 0.5943239727254765 0.5362922673452377 1.9393517470993826 -0.06322676917012982
Ni 5.339804444786002 4.877402924555544 8.57120655060432 -0.052454618255290304 -0.13748794177755033 -0.03234833442371848
Ni 8.545746269514682 8.896211226595392 6.808087882325611 -1.474416334230577 -0.04315442390028697 -0.11234795217681297
Ni 1.3063872525438947 3.5590966727037756 0.35167911817752046 -0.3404317991660653 -1.1915991002541864 -0.5514890296903342
Ni 5.364134044151412 1.7980900325514522 0.5225873652180074 -2.5868732796359577 0.6172979577653434 -0.612686684245577
Ni 6.403786150316681 7.460189783913873 7.946932034092752 -0.7190514222557617 0.027422357877010837 0.12664097176071737
Ni 6.870176129459502 0.9302384751647381 1.6527765611453213 1.8660591090528185 0.5719858640921052 -0.12445090608793405
Ni 4.23763556404091 3.079721013381171 2.3926468199715805 0.03458365151214044 0.5286766597815089 0.8611128423366073
Ni 5.446741521066531 6.487515961018766 10.488204601464894 1.3251427126720081 -0.9102692494566 -1.9643984056553654
Ni 0.9848710867782619 0.8668878344076572 7.981617713401542 -2.7193583688822778 1.3172332280169443 1.629237367969936
Ni 8.59150224117674 2.3762032386696355 2.9639499643840512 -0.07222408757273367 -0.8584185833338958 0.25567332657174674
Ni 1.7958268140058324 1.4276364034797153 10.416322368829695 0.9051918349336927 1.3444516974132652 -0.03660119616280148
Ni 1.975901096156079 8.53098897153894 9.360601410990526 3.32977142660233 -1.054272623755165 0.035412832281655135
Ni 6.412022781745002 4.400411065094515 12.855397633186927 0.11149177482410476 0.7101682608335189 0.924315443137021
Ni 4.1604171444004034 8.144785567506293 0.37304148962185096 0.3305268813475275 -0.823535912524098 -0.7807686967599005
Ni 2.677777109873456 9.132272341292198 4.0177156498075774 -1.150410798941335 0.739208871040243 0.3656018706737897
Ni 5.730784724027641 1.9420919502594247 3.667491855358777 2.041577266130213 1.1662143416324946 -0.08790396020183572
Ni 5.423895999435952 5.754335182582265 1.551068076234324 -0.7826872539388521 -0.7851801955640348 -0.06250248940959557
Ni 9.059654562629673 7.897890685345211 12.046739443802593 1.436996241710906 -0.12786121732106365 0.012905395207758418
Ni 2.298882788684859 2.357374002408948 6.348946695368865 -0.3669396156486068 1.6377680311487663 -1.2793374814124354
Ni 5.9074734538453 0.11694810815055905 10.312102082352492 -0.01796532622916906 -0.5180968273831335 0.5433178067334514
Ni 7.602679797429484 7.3134330469106175 10.151149214266981 -0.009187322926222886 0.5032309660148947 -0.18820655117834037
Ni 4.028334226000305 0.5604267097133164 2.005361894289674 0.0778853996235691 -0.05408778298333911 0.4681384931871357
P 5.431770886916407 7.888299832983855 12.00872757527061 0.9069124171692251 1.527716588315614 2.218133377553819
P 5.768628706265871 4.478826022408731 10.892106560034003 -3.9351993724029644 -3.2981268031138558 -0.3038830535077541
P 2.1095144697202235 9.312309521499074 6.578238560497665 -0.26349745060185586 -1.1796565831803298 -2.291119540103557
P 1.5656092553899306 9.02359147367324 11.631027009109971 0.7041246257426002 -1.4280071508384182 1.0241495791175395
P 7.563694930432602 2.628338770331846 4.955844780778704 1.0741652489140339 -0.1581092175723277 -0.3146696026002968
P 7.183965815518161 2.4867855808863473 13.540857892059886 2.8722220217849506 -0.2761675898703566 -0.024201794057184124
P 4.236745117400011 8.736209095808757 9.064761645134665 -1.0469552641581452 -0.6415290623985661 0.4960478180028941
P 3.2732911274325516 2.6276709353511714 4.359943047911384 -1.1145415958485516 1.269364943580756 -1.5761091206863886
Ni 8.452740972969893 5.5654770153389785 5.5732637857039276 1.425194106869655 0.4750552749116271 0.1510955052586559
Ni -0.07602651970971958 8.931281838566655 10.045870594855126 -0.7404077764443507 1.8528405534800154 -1.2602514113152619
Ni 1.9442531384607744 2.2307543451702014 2.281422614134554 0.1507733460325468 -1.5285228862669935 -0.14858533724229248
Ni 8.319396588495188 2.873601166984613 11.596273618754529 -0.13757175974060823 2.668445898303127 -0.9434627054894332
Ni 7.563425941343163 4.983755645227983 10.357566803759088 2.3949537983824043 0.9681059579594101 0.1052645629674703
Ni 0.5521798752505688 7.392191197201013 7.84834567771641 0.48686332329014864 -0.84750605018645 -0.7913140763759146
Ni 4.394715916787095 1.3924266592208128 5.651540538279088 -0.8108099803169971 0.04833108300521999 1.5587803995999543
Ni 8.28173811597381 5.1195858599085335 3.183453409303046 1.1303114570882986 -1.0507111316561517 1.1113732254228987
Ni 6.271768160317483 7.9053574514485865 1.5542310169066862 0.8635924142253514 0.8919154295397607 -0.0025016833759311753
Ni 3.1633116917956157 2.9848513441819993 11.900081954497855 1.0487753480860196 -0.11016405715161673 1.114732885923751
Ni 7.194020442171653 1.6910323749549678 6.840873014585232 1.2598492907808367 1.074199187475763 -0.7884524385574034
Ni 8.737600418685162 8.819753396793988 0.8504934131806786 -0.6079627964073465 0.21204890501357673 0.5718488242936087
Ni 1.1490657371658 3.6235149218813514 3.8600481588075506 0.2753396946524226 0.9000012918716886 1.96636787067691
Ni 4.854807841042719 3.7734067730994405 5.5260747514791735 -1.1155589813694722 -1.2320844619627427 0.006765343748291574
Ni 4.233016372091244 5.924651653625987 12.617485131515918 0.580640968663942 -1.035782021150145 0.9842900239184402
Ni 7.82597784360673 0.7833880557544713 11.661015582388014 -2.3710646504696324 -2.713925885012797 -0.34256787167246167
Ni 6.715757841150173 2.8611070875544913 9.220242904121568 0.6077586508163405 -0.45978857856054356 0.073652335378828
Ni 0.7770093041404441 6.44464466545379 9.925169625132607 0.03541720315702933 0.24127412042728122 1.5632379211506755
Ni 9.057734537060231 8.501678436275999 4.503926414647671 2.176537042169271 -1.8912744319761814 0.20589856914146476
Ni 9.299694860752997 4.465469322795237 9.02527033661077 1.2894172342459407 -1.8295108776151394 -0.009327705158829096
Ni 1.8539284573245274 6.353244027959789 12.20114845662608 0.08403213595125528 -0.4671236787693761 -1.5872250280938922
Ni 6.8034761107646196 3.7723586431992153 1.8510345057416038 -3.1595273734396816 -1.9732779675331826 1.3817524907462524
Ni 4.302628893340734 7.487255651602882 2.9599995349636434 0.15083428117746925 0.7444225540306986 -0.2646469908252668
Ni 3.586802548915931 7.421724344124182 11.078200632496165 -3.0929298880251057 2.2808870637422722 -1.7762982981479023
P 1.371519714131359 4.348867190266611 6.3256234862173875 -0.31848203436785155 -0.3381265480716563 0.23093288640227322
P 3.3306321809121444 2.0774583906478403 0.4812585829486732 -2.4689023248454127 -0.14197425968367805 -1.0518167060155046
P 4.181824965725363 6.238385686769592 7.310086451618571 0.860402446533144 0.4318885097161659 0.025208380944827552
P 8.822832858093765 5.52358892127333 12.237937816123996 0.1823331231166989 0.02382409900279123 -0.3180799138334264
P 4.911666569258491 2.8210091622564843 7.6529520031483536 0.41091859233271816 0.45613555518898863 -0.14325338350641778
P 1.3810734645493437 5.864138383988189 4.096278087346692 -0.455234640641274 0.4187337175017627 -0.22718601776533132
P 8.192109096275766 6.572664921054785 1.6723385607875831 -0.1595364369371575 1.968304425577991 -0.31866715379546406
P 4.903912263093992 9.368055191413722 3.9584035555864103 -1.449083254782427 -2.0610744556228764 -1.839703244767109
