# total energy = -340883.82142985996 ev
CRYSTAL
PRIMVEC
9.11209433552506 0.00000000000000 0.00000000000000

0.00000000000000 9.11209433552506 0.00000000000000

0.00000000000000 0.00000000000000 13.33647112465387

PRIMCOORD
 96 1
Ni 6.290251923083708 2.362346932457521 11.512335841579587 2.39595755705657 -0.44866238674039505 1.9234242772358487
Ni 4.864254703388197 0.733166408476159 6.255138467151591 -0.5566610608095769 1.312844097810313 0.28832890782323894
Ni 2.660029945782117 2.0596158188120763 4.721151082596006 0.3803319777951127 -1.2480468988292701 1.6618083599274218
Ni 4.01110752497578 4.971795641992284 5.295046281111593 -0.5641519698699833 -2.1128202207366003 0.5743337954989916
Ni 3.57261531623948 2.876897793500914 2.8409751835823505 1.652097560397561 0.4804926438771145 -0.4775623576041968
Ni 5.000006686384611 4.8850667270936485 2.634153419985821 0.6689802166309834 0.09747926259509664 0.6217153701067486
Ni 5.472569016239423 2.999519248406454 0.8099749861558252 -0.10147167158394137 0.2571439975800023 -0.194376170324162
Ni 5.629060126185752 8.051164173993689 12.726567986443802 0.30909442250536445 0.6587150872595494 -0.08530123247166599
Ni 2.5328615557500362 6.0719170281597545 11.507294119724849 -0.6599366183714763 -1.293661097123959 0.3312712157127198
Ni 0.13610097621354067 7.527911262758217 11.343082332157842 0.6060588945164143 -0.7953003147171722 0.6354170359635574
Ni 0.5067563754577349 0.05359369466986876 4.681248309825191 1.205476372456911 0.865237148917626 0.4238980353115216
Ni 8.834011543786335 2.4274801835286963 1.5926683615524035 -1.0844159801077646 0.7085096421841733 -0.5425336202692592
Ni 1.3880909068169305 1.1790321240348987 2.691753702581823 1.9606260830971265 0.024591830406751194 -1.4445298310837897
Ni 2.001280190194608 6.368679719945712 0.4528893179546072 -1.168350414138891 1.1428633256113803 0.6031193522721161
Ni 8.187007277934521 4.125373189278037 3.9197888481067276 -0.5270424666121956 0.47700622799041076 -0.6971445948803413
Ni 7.435942893555452 4.2212415349019645 13.033386785655914 0.9915719022918342 -0.984053482427602 0.4449867376610207
Ni 8.778090620195988 0.7779122594428786 6.8453971648660605 -1.0219024349545756 -2.6593560201867166 -1.0560754812918587
Ni 6.5999173405994895 0.9081705607002305 0.9105378828362533 0.5514424927231149 -0.8890324515650109 -0.7106981651950599
Ni 1.6454164538580578 6.950477837970815 9.53029583879919 1.0547673040033962 -0.22592643432661735 -0.5731050652982129
Ni 0.17259126961583876 4.977590934057374 1.7329408546014762 -0.03404551962048331 0.16169924891643117 -0.48535742816858346
Ni 6.956819855702424 2.4956568741434877 7.148254936624249 -0.5892981301183077 0.18764579357886393 -0.19156878278235395
Ni 3.6064485229025007 4.528802058601652 0.5503039860053358 -0.24754426970670915 -0.09445744504963732 -0.2064331014886961
Ni 6.249511748833677 5.998801582357417 5.033357863251652 -0.9109248807627279 -0.2925336899332059 -1.4906973307787874
Ni 5.785332545865473 3.2962181555313173 9.529668926701584 -2.2069783893782637 0.19904940743011526 -2.2375935431609593
P 8.928303497071802 5.92976835486508 13.088545938150913 0.921652037372245 0.5356983425149806 -1.115644599104743
P 4.098720313035287 6.516158968488936 12.936257326161218 -0.26509359144438216 -0.8898837438217125 -0.5374019554696488
P 2.3411339765966237 8.812424992053318 1.188349240601809 0.07258892711132016 0.3142479416818459 0.7241900290339076
P 6.923378469100407 8.672545230274693 6.507504301187956 0.6523780892979281 -0.433210313851383 -1.057434052202282
P 4.990475435598315 0.983386344271441 12.616715309479789 -0.24984463570511162 0.28087656531025174 3.189272723022914
P 4.243438596962594 6.5523248713291 8.294871695891297 0.45622965756469175 0.6201922485940028 1.1121725813957426
P 4.950136193503729 1.4899094501114614 4.213218335745814 -0.9725981894028088 0.04205296330599209 -0.5990513528503296
P 0.43182306681422533 6.082487057712434 3.6957762071359848 0.042356610589339955 -0.7403113600758024 0.8671359086022357
Ni 0.717808884503669 7.845194391227483 2.572511923504808 1.047384381275764 0.15465982557114655 -0.49681297830369275
Ni 2.204971949350322 6.448310313274055 5.0700996504605484 -0.31772047361147865 1.1423663313703036 -1.3967687616494266
Ni 6.186747642317413 5.805251584315612 9.684785021596621 -0.6084027121582425 1.7765068146142824 -0.9881315091517175
Ni 8.94349335850656 2.590331535395517 10.7845911292964 0.005681880876125699 1.4402389170179197 -1.1837443800964582
Ni 2.5738295323611164 5.7137297077405025 7.322389795038557 -0.896598693948043 -0.3477391314607559 0.2809457279852904
Ni 0.9693354946419289 0.05322101000719234 8.821555310684166 -0.41826192007166674 1.437014239433035 0.646379705622648
Ni 1.8284055344416241 1.3408082487575674 11.909802667509824 -0.21405513681032812 -0.03424863677022489 -1.4620560128930111
Ni 3.877852255856466 7.386901601268789 1.92038483815772 0.8572381898725493 -0.7074971417592589 -0.8016470828708065
Ni 5.5465227747304215 8.461928279343086 8.057482500279747 0.532815878760863 -0.5790401998357253 2.5202508545207176
Ni 7.294268049171761 1.1773646107520186 5.03458435116354 -0.5589341731144697 -0.5344323313183634 0.849883292169375
Ni 0.8455331122967101 7.585426802875908 6.728289438307354 -0.48053840951338533 1.342819818236797 1.2885569431281743
Ni 5.457524948315737 4.959138942812392 7.4574747727218185 0.006048263076608938 -0.49348879902646625 -0.5523776029428745
Ni 8.204748525813029 7.887784320649233 8.60697186504197 -0.2458835941748346 -0.013433242686770415 0.3399116649965372
Ni 5.053731595214445 0.6046202697644525 10.606535336643713 -0.24098307154942367 -1.057747983898275 -2.5176149595597677
Ni 8.103066663935127 7.505923778869753 4.8129727470782555 -0.3690957427596611 -0.9673094302000438 0.913400338886414
Ni 7.137576473147709 6.526364514263937 7.091801866718491 0.8080560717209438 0.040386888457478835 0.02179344172600763
Ni 2.6004368481316575 5.577030066922124 2.703889189959633 -0.3378406414001214 0.3026268125031498 -0.15875507868644273
Ni 3.7341636386010997 4.994502981341664 9.77640713121059 -0.4922675250248554 -1.0358365285371642 -0.7949624717617794
Ni 1.508361441356443 3.8395541229168817 3.610315695783671 -1.6052348344077516 -0.670897231148038 0.9610480226713641
Ni 0.5377083378582058 9.166129162007122 13.411155085821505 -0.24339476631470985 0.2820718711699336 0.02241076359503237
Ni 1.182950324644944 3.9725360292029372 8.532421264365025 0.10971925630471428 -0.5943629462357247 0.2707343346699273
Ni 5.851130979830912 3.535046150855253 5.06280450765031 -1.115744100797085 -1.7296140067174859 -0.9547241373358654
Ni 4.43916638557603 7.293138149460956 6.202246403753754 -1.0663413819942409 -0.07224105685359816 0.44288023284097916
Ni 8.17309310972164 7.6084804018140835 0.9224492126907916 -1.0103468689064925 -0.27060320840870167 -1.2778038183767284
P 0.18435042749319622 5.925449222099588 8.414339454910472 -0.5125404163412786 0.21468428575389478 -0.4939078888417559
P 9.108713854928292 2.0595884825287505 8.318037373591107 -0.22467456419738724 2.0362429984014927 2.476955277056876
P 2.0592057745621877 3.5315197703062124 11.048946657199503 -0.0782695224358652 0.6763618538070351 -1.2331535266572051
P 4.184173534712046 6.551204083712737 3.976482477305753 0.38656895984376005 1.1615699008819478 -0.388588304266634
P 7.158588962930883 4.2334152930764315 10.730791501292142 2.0068740583210727 0.6682873043290168 1.1983209923590523
P 6.995637378025201 7.96303199655099 10.373774173799237 -0.7140632250125509 0.3905873369745338 0.6373767307930894
P 2.3457993689509107 8.89366842609789 6.030832416739817 0.7375757063121943 0.6996725035085176 -0.5718771064283827
P 7.038354876769137 4.110702717226472 1.9721971183641844 -0.7216001568195443 0.24835930940883683 -0.4462460639894186
Ni 3.123088361133959 2.026356674098899 0.7110859812243864 -0.5816185020858629 -1.319634124148953 -0.9123569852235642
Ni 1.8179266258333628 1.7618234603541767 7.056647406361385 1.2845545068370006 0.08381102107938469 0.2351530951312079
Ni 7.180767800802628 0.9847622705321778 9.080283209059914 0.19022486715994982 0.2717020978998353 0.4427349655123665
Ni 2.6201736446929567 1.988085877442641 9.442221978760923 0.7466637846563915 0.11283980421156696 0.2885993878758062
Ni 6.697143388295269 2.1081923942821983 3.0662152236744262 -0.6010123332314423 1.3570339049536502 -1.7363127588939002
Ni 4.318658936581025 7.3407397308257885 10.497749685938853 0.2933171050664497 0.26584332512621317 -0.66346288635718
Ni 7.13568115750378 6.327556837729118 11.853161888458562 0.4426220940835861 -0.04645623458001031 -0.34788388456873637
Ni 7.646122463953846 4.3692401728283805 8.408378322726538 1.854573477010722 0.1531189634465879 0.2769612894162456
Ni 3.0482507294820897 8.463149299998308 12.382580042793466 0.20224374599769684 -0.24501096176189419 0.5107468147759656
Ni 0.24444377912851953 5.052884170431342 10.838230384438479 -0.11183475998582029 -0.20702651209832088 0.04044756649208518
Ni 0.12112433778872492 2.911523752380386 5.752527183455506 -0.7254727524010731 0.2266885093036225 -0.029365083425678458
Ni 3.887912008120397 2.6402202524652822 11.92724594990008 -0.44950750834950975 0.874902439921532 -1.3117593493865667
Ni 0.8696847186151417 3.32037431789697 12.868641029354608 -0.3915568999766547 0.8857594372406938 0.4096435822750365
Ni 3.17244857672609 8.736348115557341 8.121550547510656 0.6978678461996111 -0.28693048481381556 -0.31510669013771536
Ni 5.6166494535557945 8.367627213963177 4.471052337656802 0.38505997939840136 0.3039594152716443 -1.4850378185001651
Ni 2.9203624839890927 8.899636847957376 3.838076141198395 0.8208323975500057 -1.2536493326177118 0.911806512036733
Ni 3.723347582498486 3.4716897582002617 7.35741121881681 -0.5505618898903744 -1.3173692393741763 0.21977995510924728
Ni 5.185410471995299 4.588121793418852 11.785532834719731 -0.10416773035886576 1.386776169213089 0.48253307134591095
Ni 7.654523815029338 -0.21658901762887287 2.9617505281539485 0.683175791405075 0.788415671782197 -0.05722247195757887
Ni 4.357385337959382 0.5711652150207734 2.0410535712243467 1.3353042265860422 0.6035800939586187 0.4914740825892827
Ni 5.955983850574617 5.976467838880158 0.5937559195612963 -0.27870501158022964 -0.2168339851070459 1.0001838123305613
Ni 8.38093998394289 0.4732767180590624 11.161225884913412 -0.5728644100423166 -0.4897308746459307 0.5326688116600374
Ni 0.26564397805719825 5.541483786504014 6.145592867770272 -0.7983892380551412 -2.5807208868813167 -0.6632425428162578
Ni 7.357624441826752 6.2307134979999 2.6675474236967394 -0.05803365500496457 -0.3983201868424172 1.4500685015138317
P 8.889103266782463 1.9285930128310433 3.7152742668229037 -1.2493255084313775 0.05928835334767209 1.2833859404501962
P 1.783364451614985 3.4611015044586972 1.4644648375917149 0.8078591252187893 0.5224203944591519 0.7458852546191541
P 5.001409948928674 1.6359307635439708 8.490064604560988 -0.7070191736815759 -0.8806496268179543 -1.3368980534357233
P 8.242991986185961 1.8259634931311772 12.91162460125625 -0.3488652746453992 -0.3795675888252624 -0.9585352835518397
P 6.120502715724318 7.889788981426466 1.9236123420090645 -0.7485265488967432 0.6616206909421187 -1.019645520599599
P 2.042621762677809 3.8765947868234742 5.797337730292764 1.1980916499570655 0.6870581571786167 1.6583610248087697
P 7.4401162328098716 4.44176333249199 5.96944423648429 0.49673558809853813 0.22841911884148405 2.0120833704361543
P 2.560990591292386 8.994521087381571 10.263428532525916 0.051813385126865605 -0.01639181109446209 0.9940692147923911
