# total energy = -340898.19467846764 ev
CRYSTAL
PRIMVEC
9.03689287360572 0.00000000000000 0.00000000000000

0.00000000000000 9.03689287360572 0.00000000000000

0.00000000000000 0.00000000000000 13.22640618365589

PRIMCOORD
 96 1
Ni 6.27764043437769 1.9960508672696533 11.464384188740908 1.1282424903744117 0.3850198701890853 -0.45547529589717034
Ni 4.543578134068145 0.34899035129151107 5.929225733174668 -0.597186531727449 -0.8477348783678047 0.8907013546270016
Ni 2.6591148224131094 1.6350721736329568 4.722832137603976 -0.21547824241009986 0.39718401635544504 0.9554563875161998
Ni 3.472344829682263 4.331193073163159 4.820297740419845 -0.5721804966014147 -0.20451454430974458 0.403162345426067
Ni 4.870560035979688 4.411747937979219 2.577853272559062 0.7936766630708203 1.1126328088616126 0.16513758517401883
Ni 7.101470717216649 5.908112839897828 2.626169021351868 0.3493111039335662 -0.036082090434537854 -0.2757482429447509
Ni 4.969785121876068 4.630269049277979 11.189314719063589 0.4607589128936129 0.3069868892440584 0.5821332369387523
Ni 5.68639266845268 7.829356306343232 12.546741004805282 -0.2997286650197483 -0.17514714689122096 0.2627232914399927
Ni 1.7855545170160654 6.5136750444439535 0.3646268873686065 0.6863703870829727 0.49588840960689434 0.09054036938341826
Ni 2.7803989642906437 1.6644601498929776 0.26865598666633195 0.1579212699312377 -1.1277768635919028 1.0365749493650858
Ni 0.4741468018490635 -0.055766667128102534 4.690784603713781 0.615771493818488 0.5393184557660712 0.3750740718302831
Ni 8.589467456153468 2.3366965515013542 1.3999620377276407 -0.01802369027093025 0.5357603061011676 0.36300917024594903
Ni 6.692912781572262 0.5941838524830914 4.714446804525355 1.5918201036637425 0.9041219989082816 1.0045667718896054
Ni 0.950355822696447 7.469931958314384 2.5890427535569587 -0.24742959850571583 0.03601729863487345 -0.10933281949957299
Ni 7.554770310445097 3.9126041862123064 3.8069430250722647 0.33660754032396867 -0.9941214081865654 0.21078597914075312
Ni 7.748909884243999 3.847466260971768 12.634154871460629 -0.7952890018632626 -0.7035692674597624 -0.16099090999549692
Ni 8.040494276004711 8.922802293892438 6.884397316187525 -0.5276572173780589 0.05068492794937722 0.132674579549307
Ni 6.9175157219063825 0.7495343701624095 0.41940039994843836 -0.5050222535873624 -0.508706130196853 0.0130383212411969
Ni 1.8751372380079434 6.483148419657253 9.19403198770479 -0.23902671915400128 0.0496297472119855 -0.30275639610247856
Ni 0.17739330725294764 4.817242366873254 1.3991685985161924 -0.7951972134804047 -0.20412965016650003 0.3230848232471855
Ni 6.365226002001345 1.863570014879768 6.979640746997754 -0.2613451801455435 0.17731021598081076 0.45259051815020757
Ni 3.381008951435021 4.2678986741086735 0.39493753041096086 -0.10203345762468234 0.4439097025467581 -0.06708419524300704
Ni 5.890111348904603 5.482222143347314 4.861908114555535 0.05119092105151829 0.46425329920011654 -0.15089418788112724
Ni 5.258206601062671 2.914813711797271 9.188437247205842 0.002760593464272665 -0.3331514634545682 0.0009322820062822654
P 0.10156925595845011 5.532964297929116 12.53716551290949 0.5554331019397467 0.9396708425471687 -0.9143717016607479
P 3.982152115270462 6.117904312492042 12.651507513531506 0.036726923107388364 0.5390852567093425 -0.17286452150463133
P 2.4325689500691774 8.519024874681493 1.4083871331357642 0.4913910359571731 0.6138197694087557 -0.3532605754996175
P 6.258129782241964 7.759519196706873 5.815082544200168 0.08695933690037927 -0.39594962972771164 0.6327160920926265
P 4.81418789701597 0.8938689151907542 12.653319410591818 -0.21761354358554783 0.8157647532191112 0.5332588798355525
P 4.055766646209617 6.099631714706752 8.295496420933262 0.11781411749770676 0.49526851663470833 -0.14390490104748765
P 4.670926031194902 1.0176806760596564 3.873313582527399 -0.32453723942299595 -0.07953039142615981 -1.3479512259260915
P 0.21440299912726804 5.647109294282228 3.483954526207863 -0.569826137436625 -0.7237282589061407 0.4961966848759325
Ni 1.4221539360369069 1.2032803859084602 2.665728924450228 -0.2433446298030648 -0.43068317655415506 -1.0703687579860792
Ni 1.9269457459718735 6.427047387485602 4.632866252345978 0.29842254461381507 0.4668028050948477 1.3691782536256678
Ni 6.091408142014065 5.740126034640284 9.209322410777345 -0.031579060357861746 -1.114156958815623 0.44515925868314304
Ni 8.692623590534813 2.555859282208005 10.210481838928464 0.09221107221762184 -1.1767949453618185 0.7098808115000871
Ni 2.398373346696509 5.259182585514111 7.101429147508533 -0.7107760696208468 -0.16806118657871705 -0.8636212105807577
Ni 0.6339985959659944 9.059756408351422 8.959104397039464 0.18087145096950785 -0.2758261473705379 0.2782524974238434
Ni 1.5161918453117464 0.9993448200228843 11.405897416799073 -0.8035322157086612 0.7830289535489869 -0.07736860788815063
Ni 4.273275625484661 6.904231489095118 1.6004220145389227 -0.295115334617453 -0.08206524203287156 -0.12731614345087106
Ni 5.726272477565679 7.729272715605307 8.056733572849502 -0.6859556681430574 1.3041835939218378 -0.4777590469960353
Ni 5.2134920541578165 2.8048166493627766 4.916890379365258 0.5138465367472117 0.36199487004882175 0.1694395549834824
Ni 0.6352203839089079 7.2151548320232495 6.813146836475191 0.6468617874653892 0.09889928287107484 -0.1233422464047876
Ni 5.17497681589822 4.457926461561232 7.130845138137067 -0.21989102676581485 0.1555129176000612 0.1436300501195462
Ni 8.279402618066882 7.134039679836919 9.188265546237531 -0.2583894399513292 0.4169781682632367 0.36726434597787716
Ni 4.718586605240213 0.24722228368554544 10.58152220930806 -0.41389875800696463 -0.0028570098328208862 -0.950408540679647
Ni 7.96726833146752 7.234746816196597 4.549751235723501 0.11297658689974736 -0.6978362216307272 0.2922585818949483
Ni 7.340867051504538 6.2102794334422065 7.018209302926457 -0.1963664612813134 -0.8253521397972301 -0.5708430087369137
Ni 2.3336330447510014 5.265824701919742 2.5144061500117125 0.21680133209689761 -0.5457189599757762 -0.12241587793577627
Ni 2.284409088204773 5.389639173856565 11.38396849207811 0.10898494924185101 -0.7929433844492215 0.4018114878251273
Ni 0.9669204476917171 3.3764633942213704 3.73423760557584 0.22088270125512283 0.2822994137997074 0.09901858205775849
Ni 3.583652241611746 2.630829347107493 2.699707642389243 -0.7409294532757755 -0.824941791732689 -0.5397933385199607
Ni 1.2474436823361117 3.2386688487069795 8.025214697203838 -0.980162632013628 1.3362539920938212 1.815467512148196
Ni 3.607961483967052 2.5816686488127467 6.9945471021148835 0.174299454178945 0.35831664986628614 0.27158022760999034
Ni 4.139845899322543 6.746700369118278 6.124487689092725 0.09555144944476447 0.6634605723643348 -0.4324873196424293
Ni 0.8296491382860146 7.498343950122966 11.37400893222689 -0.4731925106712754 -0.9973190891882564 0.35770395598295174
P 0.10373991767359679 5.44335446625803 8.07778953370001 1.354364585651603 0.37885642169085076 -0.3366795312124847
P 8.619804306185722 1.6953663241885717 8.111543233001608 -1.017772471946602 -0.31485343647632874 -0.37861576643495437
P 1.8573345586622358 3.2116756491102136 10.468806849438444 -0.403424340838202 0.22352708085650536 -0.37067851386574874
P 3.982866029822904 6.119558063923648 3.7497123812670026 0.2648637348217632 0.9701276163751293 -0.1717265512454462
P 6.875132693413303 3.862603056862154 10.334333362126868 -0.05564304328560094 1.041150227440594 0.8887887109853211
P 6.41057313142102 7.73031195830823 10.261336954673625 -0.2724600591117824 0.34446637424675514 0.309141473693216
P 2.3085556664848395 8.420576961589035 5.856692014646552 0.14537865737953673 0.1426113790470447 0.015244584863896326
P 6.748525821518193 3.8528432123477563 1.613079086971206 1.2534127911268738 -0.06906343045656493 0.09299243046833662
Ni 5.268852061097819 2.8918961509745733 0.33707520778018335 0.1557936820652736 -0.5957261451318385 0.3837458885726681
Ni 1.4594311199460663 1.2320628903328659 6.8992377019852515 0.35267410686852807 -1.489668375293641 -0.4699884019116809
Ni 6.744197149738196 0.7478580264981309 9.22986236503362 0.5143301612518497 -0.05509025610592448 -0.21080449108351437
Ni 2.85676071072274 1.5597044854384379 9.373726087933075 -0.1286235494083849 -0.2850180982824511 -0.7229574421783871
Ni 6.346438301311129 1.9403022739276887 2.712762338116558 0.08528709140427893 0.5308497561734277 -0.8225637784188157
Ni 4.060890564579676 6.915789675330225 10.513313547802714 0.443565688943778 -0.04155596906491553 -0.6558688760600059
Ni 8.155045932545926 7.341571929163911 0.22676817991342632 -0.4299617250070982 -1.2909408699793188 -0.06040652611251532
Ni 7.638704973268921 3.802561939312468 8.253608614180356 0.15105308205649468 -0.22663323058565488 -0.7118996417023288
Ni 3.135801894903837 8.427987213905523 12.409107315987518 0.10912507436414111 -0.6724200955504677 0.5037284744766034
Ni 0.13644262631128556 4.935960031119224 10.283940935306832 -0.34697757070438306 -0.1961404613134364 0.08878199193141484
Ni 8.504800804991064 2.303639596655365 5.881822710581821 0.7277481786988113 0.3332098274963294 -0.7259736032968916
Ni 3.6893838905177256 2.761873333499425 11.558821528689394 -0.12934474384512562 -0.8300042938572609 -0.43504993816328297
Ni 1.1451189421171026 3.3795088271855858 12.56211004884754 -0.44958798387845794 0.03157880324754561 -0.2810236324110773
Ni 3.229749435247988 8.378202969989024 8.000018031949166 -0.5529776984207186 -0.35976032429134813 0.18747275833610938
Ni 5.606380017220754 7.9239725767744815 3.635092948027772 -1.0781067500602852 -1.4606596467661168 -0.4934435476108276
Ni 3.024503519867423 8.499649775941798 3.629246981901509 0.6711067760556829 -0.6388862254590804 0.015669073995824626
Ni 3.3252965056653316 4.3014978425387955 9.267478432432863 0.03494591994756562 -0.16577007655169515 -0.05832418966218988
Ni 7.157671155212059 6.0755212839989605 11.532751899564268 0.5558614477264169 -0.47933693300611635 -0.5435924005510767
Ni 0.5167069534462944 9.040236719322627 0.33429726685080746 1.3917139728343386 1.1181817637043 0.2592276195819084
Ni 4.7311117390336905 0.31001423148540086 1.6716065249318535 -0.5850506676958633 -0.05868620098729893 -0.4106725377601831
Ni 5.935711511330209 5.421638812213494 0.398948103554933 -0.37546410817985015 0.7674280137869364 -0.4689645886328569
Ni 8.054438202010004 8.936963105331385 11.246678205196963 -0.4763493111327023 0.45390255209341185 0.1355909818651536
Ni 0.07669340040772447 4.9045658645979096 5.648429584359593 -0.16727082946693775 -0.219015566139397 0.44543333828013604
Ni 8.0660867571758 8.761620269115769 2.5013912166139014 -0.23989755179472877 0.9186597875131405 0.2831967288029961
P 8.393249396948722 1.6317285231974685 3.6109011852823616 0.45635178496485274 0.20560006406443945 0.5105974336822949
P 1.7669837017595023 3.2388857341406325 1.4558705840769246 0.11875694102695032 -0.4935440777444339 1.4490362035945754
P 4.656006120738169 1.001450416107935 8.208109664957123 1.1671810764211383 0.10249574197308153 -0.10500745265134173
P 8.530393286162152 1.6848293068702491 12.49149486271795 0.05939736812171062 -0.1570730629983295 -0.8633404461155454
P 6.517723572538815 7.65081440998123 1.5488918428815146 -1.848085041072901 0.4918715751380174 -0.8391993300929677
P 1.7923502606038686 3.400546714249955 5.960625321831823 -0.04032518198160797 -0.7150065627624267 -1.2848319288681032
P 6.942647321530958 3.8459570998292643 6.013755927251732 -0.31521956156649583 0.6676800097623211 -0.3449921648432381
P 2.340645673772458 8.393457245489305 10.156967165553127 1.1158721417345168 0.8312967874164394 0.3633148744118259
