# total energy = -340887.95320026355 ev
CRYSTAL
PRIMVEC
9.14263204478218 0.00000000000000 0.00000000000000
0.00000000000000 9.14263204478218 0.00000000000000
0.00000000000000 0.00000000000000 13.38116614895356
PRIMCOORD
 96 1
Ni 6.5570409582662075 2.213358114636462 11.440161044031285 1.2772039800092003 -0.5104357112934499 -1.1267905884192335
Ni 5.166876304313091 0.37053899765653875 6.16980202863259 -0.03322739459456213 0.5468325047549292 -1.2020166960430847
Ni 3.2306587995645026 1.8573988725497512 4.671900596831068 0.3482027013607358 -0.7228080610847164 1.7743956818085505
Ni 3.7163794204701555 4.492817460081136 4.979051896916446 0.007623320873212677 0.1880707969314245 -1.025274693860918
Ni 3.967308103839752 2.9874464977719644 2.8339837592369492 0.29411054750202253 0.6636148385540119 -1.2582886311619361
Ni 5.405169869981864 4.914265376618638 2.5265517803430217 0.08837010120497683 -0.25568772474944995 0.03780498666291554
Ni 5.658210501389732 3.208588485432964 13.172915669004604 -0.08301140799622478 0.1413368832099953 1.4680698231872586
Ni 5.802883513327373 8.304188829112471 12.348447725392536 0.0069674324567686454 -1.1713920291786921 0.8465274883232646
Ni 2.020850851026821 6.915505281575803 -0.12564536580236427 -0.46164157260888233 -0.3268424905174048 0.8703978671829591
Ni 0.39398984925032343 0.12709081595323266 0.005782714866693498 1.6391286589417189 -0.7197175950848508 2.6019733685021897
Ni 8.797132129456365 0.4766127307077081 6.76899642909234 -0.886587332458628 -0.9949886412828671 0.9621186300277237
Ni 9.172894312888937 2.8764640854924504 1.3563012585464038 -0.5026509251417085 -1.5174481165100706 0.2878249716036269
Ni 7.565363578373549 0.9561639034045946 4.830133046584983 -2.0434554569895327 0.0061210252960733295 -0.8222030526452871
Ni 0.6879474168074396 7.78958663308605 2.20642068532287 0.04551726770550871 -1.1335101665312544 0.294349402985706
Ni 7.868734400044099 4.194036239775138 3.511418977540477 0.5795575057917761 -0.6015926312149446 0.1698211066926172
Ni 8.10274921384313 4.08860340524121 12.55504012816997 -0.6904180747897851 -0.1934253763751185 -0.03207322638546089
Ni 8.301674605257386 7.890402438358824 8.591805981238673 -0.5332460243197462 -2.242040008968087 0.026086155564090555
Ni 6.798351592561083 1.0056164009760493 0.3810676528984111 0.41061571638031863 -0.32846151417806657 -0.8995991713372636
Ni 1.940057410272717 6.863099713803648 9.063384778656895 1.273366351430665 -0.042087673198669455 -1.4616518354760568
Ni 0.5736215439322743 5.1275904137483765 1.264623514157836 -0.27922180331564816 0.98215755095647 -0.07353175064056368
Ni 6.613606423689501 2.399822098361702 7.098239985626538 1.3770064914208349 -0.7812546352573836 -0.3238409846869197
Ni 3.838863264057654 4.456201218118911 0.3508256541062391 -0.9933554765548183 0.47860519704641447 0.11567624521909756
Ni 6.413154212697793 5.9285581355527786 4.625882986177269 -0.2520722394840497 -0.8768827035763543 0.0924949220066278
Ni 5.375922589573086 3.0467547528553487 9.210216366057027 -0.42121097539766167 -0.3122651069238622 -0.20386508365120373
P 0.19364003573925948 6.088151923241319 12.34409948951807 0.028032737767500107 -1.2925339254980515 0.8357417105616703
P 4.1494567651664465 6.399156842799125 12.658877573384943 -1.576617170671059 1.2229863563162164 -1.6533520016299526
P 2.330228382052973 8.738500429155803 1.2827816959708638 1.0224585645683617 0.3358590921937183 -0.5552585240350953
P 7.2191960953733645 8.287558381140114 6.009856249604339 -1.0653515072771458 -0.5103367238217404 0.9043438851111005
P 4.760687440917899 1.1481226090822179 12.675898411752254 1.1830735792816784 1.1065164115512298 0.3018421118183253
P 4.323029637489255 6.3123109795284185 7.951115916011396 -0.9786230554406502 1.5005379710182931 0.21862527267951384
P 5.160531317566079 1.1882130512805593 3.6173171720534008 0.32564975576088434 0.2181190224670566 0.38381710813023573
P 0.28447574370217893 5.840697440107839 3.5332433548658275 1.0103293854049955 -0.5118271923243378 -1.5600268704125455
Ni 1.2444036687836395 0.42459572480406754 4.645378735081201 -1.1663364690326559 -1.046558542940359 0.2148588636585461
Ni 2.1876673181536024 6.747289991722374 4.513734888292216 -0.21598269285034416 0.32846691349470525 0.7592457350864601
Ni 5.82220189516662 5.728014498239068 9.26024850650998 2.6481143858346265 -0.32383250004648745 -0.1995821400051337
Ni 9.034346864525503 2.721277046524458 10.425226472316682 -0.516060256569079 0.5446884618287329 0.028469825304918712
Ni 2.744087913864221 5.302077549291215 7.022249169567255 -1.4824754570896275 0.1429790467991086 -0.43291026611246086
Ni 0.7140569458450734 0.23693588478702823 8.886178624297685 1.099042728882004 1.1575744065693097 1.2644610785212353
Ni 1.4996751024483814 1.0268638782095603 11.389446863216188 0.21266854087544662 0.5245073588951676 -0.6774563724227946
Ni 4.073810626341115 7.001811729546691 1.4620933985258036 0.6314002014946802 1.313653738195802 -0.24985543433838903
Ni 5.955666040026685 8.022010628882228 7.970598865230247 -0.22409323777262055 -0.4918165535303659 0.36274640350286563
Ni 5.849657219664138 3.188593548810895 4.5913055511957115 -0.6337918416553083 -0.6348033136389584 0.2326061603396381
Ni 1.0969787245537064 7.635816702109106 6.669842754353582 0.41737488948102314 0.3343112880906242 0.11993656315734828
Ni 5.489410083075484 4.717634785886659 7.052516767729587 -0.7114358146920329 0.18466459946335292 -0.25012514306000794
Ni 0.8237868175131451 7.600279290746516 10.928773397486493 0.18316950297506518 1.7956098539923202 0.9255711699209931
Ni 4.995680516362363 0.5267408687987655 10.504295612637808 -0.8009207462277431 -0.6537227762512806 -1.0308820127453666
Ni 8.47010931828362 7.491353970712071 4.414098482573282 0.5624743250572442 1.3209261034874993 0.6933475897317543
Ni 7.589152707358744 6.227266214801173 6.827793611035728 -0.36132792588878415 0.22169825517788272 0.38507514890705297
Ni 2.6854013577704574 5.50006124958884 2.541645351842507 -0.9327031529800839 -1.69788247994216 -0.512729135313317
Ni 2.6171698936595744 5.4698174222702285 11.174839114788746 -0.6931233895360902 0.47888647573225906 1.1534516426501875
Ni 1.2643711775091078 3.7873993874021314 3.8426428282092604 0.34259641091755194 -0.2773976056227158 -0.1954660609542311
Ni 2.054971154398362 1.4780070641336562 2.6440117475364526 -1.2049315556970344 0.046551108286661765 -1.2946576567092736
Ni 1.393273148901221 3.465121602341348 8.174260140124263 -1.3339973348491605 0.15363369829947732 0.022050809152452347
Ni 4.189702632112193 2.818902073159325 6.76511629598653 -1.1735725817697786 -0.8035152464277967 0.7643637730393158
Ni 4.5941178248605254 7.069128930437543 5.70211616400526 -0.32118940599668555 0.31591581630257204 1.1623175776812498
Ni 8.013169703544532 7.412480482720032 0.08937562960053064 0.009642408185770491 0.2305323085297449 0.5643106069350347
P 0.3296769173004915 5.745851773661864 7.919161502208107 0.5271486531727567 0.7142568290805956 0.7044557838297739
P 8.678451620864193 2.123732891176863 8.352832203734197 -0.07216572353097249 -0.9254562416096836 -1.3428103051551004
P 1.9852768691354303 3.3837521757586253 10.465731075753698 -0.3893136124684327 0.2952981400522205 -0.4672571190234469
P 4.258217517821286 6.444888289065055 3.66242509080327 0.8036350598351129 -0.29327956696029495 0.053271457729630836
P 6.783503957867786 4.159833652713794 10.387706024029846 1.1299232205109446 -0.04604794339799811 2.291103085043325
P 6.673289526693098 7.9459256437112815 10.318350930421547 -0.19988064508215897 -0.4013453468219862 -0.6678047082656434
P 3.032894522439685 8.71360504167437 5.677775734298386 -1.1265985270130856 0.29241619051873513 1.0081190080172382
P 7.113031850263412 4.133219450378704 1.235421946910059 0.6173779190736594 1.0043718822699799 -0.07790853955202066
Ni 2.715855465629676 1.6399047951366736 0.1740848597260251 -0.09306313580527198 -0.4838263362360377 -0.42665014413536195
Ni 1.886856433499137 1.1552264343018555 7.0205760678745985 1.080365464187475 0.935820358452827 -1.2891878918439539
Ni 7.267853183943393 0.7684482933311334 9.468674007043575 -0.3746040741724 0.7804614499321268 -0.8175208166782694
Ni 2.957696372592169 1.743893093782953 9.160318622297417 0.2352060598563304 0.21426956681397938 -0.20118033773018903
Ni 6.60971166237217 2.3704102505733173 2.3074613993477713 -0.296572892999586 -0.5122259704246533 0.8982030623206854
Ni 4.375407777364807 7.007992148914098 10.273992707512102 -1.3695659759823897 2.2801779534903894 0.983019384736133
Ni 7.21038259793227 6.165516876920307 11.512178472136315 -0.02366134817268183 -0.25287262389815807 -1.064288356119954
Ni 7.742556933047677 4.15375380230059 8.502700973551272 0.9747309194750954 0.41706198622629465 -0.9126300363792926
Ni 3.2906070389019084 8.755971999290587 12.39813244582188 0.1396918914074046 -1.2093875345858591 -0.7707213398262274
Ni 0.4266509885226964 5.466571787839119 10.255513619308843 -1.3764251649960682 -2.140552396544545 -0.8115386309529057
Ni 9.11170267557229 2.4938449279096475 5.802996881966656 -0.08264888245048348 2.060660508013909 0.1283363571852693
Ni 3.7863205568024956 2.581065639100566 11.23021055244668 0.5640676376862931 -0.05854299054121531 1.3844102400840739
Ni 1.3226646004182583 3.664458412204618 12.554691793883139 0.6689938434777382 -0.22619717148950078 0.3491357546979665
Ni 3.532667369037208 8.83016445959607 8.05436457571267 0.4348272806295157 -1.5198420706635438 -0.7548784592566999
Ni 6.195833845296521 8.191158467220088 3.7767134788864145 -1.1012541347110258 0.762492524158532 -0.2699501482057351
Ni 3.356936835515128 8.630800221836198 3.466137348778802 0.7580041493698753 -0.14149603449567888 -0.017254930425705767
Ni 3.39048115305805 4.4318726738338965 9.204475707298455 0.9227586401728624 0.3011106329689395 -0.6203994795088025
Ni 4.832365677368299 4.710046401160405 11.3999910609328 1.1111922197603443 0.09308241907898163 -0.31496965033921887
Ni 8.107384528368684 0.27995654060556774 2.3569184682353255 0.4936988581547433 0.2568328940974867 0.4662302204208293
Ni 4.4979830472743085 0.4372683272969116 1.5296547076964044 0.745525043066258 0.1633262429968929 -0.41562988176545845
Ni 5.895562375941874 5.783519418327125 0.15349016643161598 1.9818996477639221 0.09990664108966665 1.1563037673870022
Ni 8.16190204417911 -0.04520208786153253 11.637720526194816 -0.9008852371385387 0.0743943557511751 -1.0348931907872887
Ni 0.4871788707416017 5.485561034919155 5.7055821358723975 -0.0828543135930702 -1.5168454499290651 0.0467357134936421
Ni 7.495011023592194 6.411654821016944 2.4282803696115938 0.012919279164829364 -0.22194945195674035 -1.036341493198041
P 9.015814749055483 1.946365826490928 3.6355420950814903 0.5811947842848829 0.5734917592136703 -1.5300691477081907
P 2.359356808243147 3.321856555762554 1.3493702290753518 -1.7365927520281643 1.5446483310739463 1.3156417151601083
P 5.256227248806681 1.049382181318914 8.302532184157775 -0.23907274190058828 0.9079092338648557 -0.39948155414037007
P 8.9027569592665 1.8937134076493665 12.51290265062198 -1.442680950800509 1.2583238552752458 0.14109339974062152
P 6.472590464631981 8.201864489526647 1.4565931909940997 -0.6904342727397013 -0.25621197268403617 -0.004283714977018429
P 1.9664521894350002 3.3094042907057375 5.9780892597611555 1.7055456529143722 0.44550584338928434 0.016606241098113338
P 7.2074935261569735 4.212284933646949 5.951461343477764 1.3351489319551006 0.12231689046406678 -0.9246496865479882
P 2.564846609577223 8.862200242825942 9.977679997900188 0.3233547890791205 -0.9023463950650976 1.426347503747808
