# total energy = -340861.7911412384 ev
CRYSTAL
PRIMVEC
9.35554477015737 0.00000000000000 0.00000000000000
0.00000000000000 9.35554477015737 0.00000000000000
0.00000000000000 0.00000000000000 13.69278544408565
PRIMCOORD
 96 1
Ni 4.188000154822191 3.6161050730413185 12.24314364470429 -1.4443794215488543 -0.9964323157079291 -0.5708730906439007
Ni 2.6284870143752554 8.17944967454264 5.404131130933829 -0.48894565974047405 0.546396188548459 1.2378169935711456
Ni 1.7468017864606324 9.12374220647463 11.92448537790735 0.8026392715807468 2.1191230230261766 -1.4908940201706258
Ni 1.5354881020852205 3.6388671128910275 13.021468816614151 -0.7194525143489222 -0.22771823611971748 -1.3750943619997866
Ni 9.104488495824937 5.616189516654098 4.562942313086387 1.184123874923064 1.7162213874606638 0.3459640418382042
Ni 5.953092030845578 6.286598482371442 3.098403854078946 -1.0215303963271376 -0.4714827270690203 -1.2466160799200143
Ni 8.095567862256372 7.999065420394577 3.6422257533785105 -0.2236767190604922 -1.5745898558283848 -0.9637865046484497
Ni 4.374343890838017 8.888244439480435 9.526275736676665 0.980246707087002 0.07179239935195376 -0.9277527509533442
Ni 6.062954190301037 7.126670248201598 11.617766657043907 0.8318169215859673 0.019817034725927163 0.8479518794746171
Ni 6.178813253802392 0.5488636022486021 11.593968958414354 -0.01907861389800585 -1.5488523418529647 -0.18258174879239522
Ni 4.8763624104990875 4.194464836094755 8.744062400458732 0.17374332456515884 -1.7944104343675806 1.3148860679410064
Ni 6.595948917912123 6.471894397399529 8.23070589637766 0.4547679854175007 -1.3026036510292276 -0.2788104268098424
Ni 7.930713812033716 4.663888638601537 0.9253559742419785 -0.8797399705194914 1.3133963707693574 -0.34271699565581626
Ni 7.704010256900897 8.73746112823598 6.287261790478858 -0.3560018856901805 -0.3066629302457364 0.42955137694255696
Ni 1.3470019463712513 6.657199667972151 3.272904406269968 0.9270294996340743 0.9489437832086626 0.1715568584368013
Ni 7.790109333241576 3.392704025128782 8.898201545527309 0.604588737728791 0.3869821361217787 -1.2431535752927105
Ni 5.943577442055132 8.0385925960481 4.943369627110502 -0.5344930093529697 -1.2571172365616543 -0.69153547622368
Ni 7.58288402182725 4.093490443946005 11.230836304014643 -0.23523254221889164 -0.9240105103020925 -0.05206303924382646
Ni 0.6109048958216992 2.0109368752714976 8.486459352841072 0.33133909283617774 0.9342435008840103 -2.2161572276640547
Ni 5.575109320608034 2.5851989098193147 10.201426092363524 0.1502467841051154 -0.13201020649243073 0.8604186444830602
Ni 6.965212260644559 5.484912515761735 4.896881926324146 -0.8016277995970968 -0.29673718649159214 1.602771974689556
Ni 4.56223129170185 1.5040908946312035 13.44024918545285 0.44248556850572185 0.7764993799605853 0.17930127826891054
Ni 0.3691754006138214 3.4869143585799 1.2686473897953026 -0.33125964574849404 -0.5460799428596208 0.652001936905432
Ni 5.48157258636332 8.834852346828447 0.022381269187200525 1.1545605594436503 -1.4635104859513506 0.7151060644547684
P 6.205766577603055 0.9120617454600481 4.73055624894639 0.16230705770375917 -0.3992702094605124 0.07720817105088638
P 6.057518618927145 5.541186116130005 10.36267264461411 2.4667145731654747 -2.821294638807464 -0.4024959154866617
P 2.376074422864713 8.074976308738407 7.9065839915732266 0.6545663551984986 -0.4026129006805002 0.1462435764829933
P 2.6640848613247594 3.3703349181494753 4.375351482984262 1.5096854418455161 -2.1931977906544033 1.2873719216811377
P 9.375471843234235 0.1863325093623857 10.184241828164614 -0.254460022989936 -1.2302216977223912 -0.4424752840930767
P 6.158792388500963 8.508297064890883 8.237168706541317 0.5475007344665473 1.8482421354760559 -1.0905120657031735
P 2.694406181157438 1.9811020437545548 12.446577153919238 -0.7520631012950919 -1.2923634613584583 -1.1294298258142936
P 6.671831739622354 4.255612675164915 2.7928901273514026 0.45545858372662207 -0.6217145987758003 1.3042530137071926
Ni 1.1602652774850235 2.0134067390283095 3.2580478015509637 -0.46976394460570065 -0.9146393534998376 0.19903938012778624
Ni 4.440506301778067 6.274080763785782 9.406971026123667 -1.0977137256579352 2.3174381233934285 0.11847026302446693
Ni 6.5280089535107315 3.016816956866715 5.148664889687591 0.6736737654519108 -0.8735135299938053 -0.11869009234475687
Ni 8.483289694353163 5.6189400467469115 9.826325825396713 0.8440620575019075 0.506924869926714 -0.8442831723737783
Ni 4.11685123864585 2.7941924191504492 6.128753606113193 0.8609884009436011 0.1278221365530121 0.485356399727319
Ni 6.833963326385796 1.0786942846984995 2.261732828686672 -0.6261777767534765 0.07336668581760913 1.0384379707157534
Ni 7.867498397621681 7.609229235233244 0.7153689060813995 -1.857115012485653 0.8763592269727165 -0.013227554433867543
Ni 6.0547119555671305 4.640733665881426 12.812749424737843 0.6147849615355025 2.10850539541133 1.0621083177494999
Ni 2.897720874956811 5.042385903788417 0.3309598723038784 -0.10851186626017441 0.9498675805745125 0.0301055611361288
Ni 2.223990690930118 9.182382759609844 3.161307728858021 -0.440822321870686 0.6185500850048895 0.7603502810045486
Ni 0.8762253321249432 1.981111399299088 10.76055740473751 0.5557344352302493 2.73617055534361 3.060560984776097
Ni 5.735594331533603 3.0498420290695396 1.2809405753121617 0.04649891489248766 0.8162728032037813 -1.7238421372307149
Ni 4.527746754551818 4.76476011976042 4.847040262822574 1.608348697446385 0.9162565773882865 -0.012220453325591858
Ni 7.867142886929411 1.8497595540504592 10.620534840815345 0.165185921913451 -1.365159876494894 -0.38942185591152284
Ni 3.413117823300613 7.54178511469212 1.8668062917447275 0.5561972337992809 -0.5585415656617413 0.5185274871626488
Ni 7.612756275522327 8.049379538895085 9.884260034919658 0.030500482581702314 0.464452045474484 1.0960365950658286
Ni 2.282322511095731 5.661479707740181 8.930584827375144 -1.7131412058734432 1.3821060174309292 1.363614386384645
Ni 8.583599842840043 3.603615421089259 3.802199016018103 -1.2362208527286194 -1.3615459338913907 -1.1695848007666243
Ni 2.9396992032780793 3.109193603589291 1.85969888456272 0.5297488097997651 -1.3991791708631323 -1.1461517665546648
Ni 2.5397496744761634 7.559242560791404 10.304875026041355 0.33583518093431836 0.4056848547376045 0.24757615138590908
Ni 0.43276971457945934 7.706143321054507 8.918042784373698 0.014692054794535989 -0.468924993644173 0.43314912159614427
Ni 4.788223825450132 2.7699896254425997 3.39849417164049 -0.13356803789785385 -0.3128119805662677 0.7814238138453962
Ni 3.6135790760173063 5.2181859411151255 2.446093189261422 0.6858494815824961 0.5537994229910655 2.4454844601421044
Ni 2.2205104283637014 4.076266886460056 7.492788256861911 -1.0515539392724214 -3.4461359561377036 -0.9742316112411737
P 0.827056332275321 3.9351384971740466 9.465658356981548 0.14165312889883344 0.6791113915277143 -0.44086808750695683
P 2.0753872215619396 7.1616225625783 12.850131374029862 0.1623505093471849 -0.4628016543552546 0.5940127619851576
P 8.1918831932275 5.789716156659195 6.897712942390689 -0.368003795247063 -0.14184904695972345 -0.7522981001240334
P 3.832975950869557 7.097471593712926 4.068359580220444 1.002236581094532 -0.8735402694666827 -1.0476443198053698
P 4.444940829886888 8.38973424901938 11.634020044561746 -1.6400622264995817 1.6092989771747963 0.3539606868904355
P 7.85420416883975 8.001582061874055 12.262628437303956 -0.4523485773427307 0.6167019760525573 -0.29725423533732676
P 8.922859954253935 6.410624936250436 1.959697493416639 1.0950271799647078 -0.7475754978373835 1.5038631787367842
P 4.125673517140826 1.676719402361097 8.844443651084065 0.8608701301981819 -0.68329766169492 -1.3953222590108874
Ni 8.116776881713541 0.6491045197059354 8.338304014056042 -1.3077620553017155 -0.876044266835459 0.010010333048150502
Ni 4.791423421680548 0.13837785919319606 6.45450524677534 0.4262392818501885 3.415966374532859 -0.2584416333455033
Ni 2.325077349613269 0.7235624919837321 9.660985286858324 0.3646762735357268 -1.7685970728489024 -1.343539470011641
Ni 4.202725781917728 6.70320088044277 13.051579636694829 0.15914537214632593 0.1955200541206181 0.04222548432811437
Ni 2.1542170398001836 1.6058417969762242 6.03227455311273 -0.6482614960263933 -0.10846198685884546 -0.6858366260666898
Ni 0.4042764681486029 7.1755716794775655 11.473458318171003 -0.7593058989004343 -1.066787468392724 -0.08724987155760457
Ni 9.307952878336845 9.156018835114784 13.225176443283926 -0.6609781722621132 1.1052336881840643 1.1946944513500586
Ni 5.777553948765804 8.425827939829153 2.5100243028302613 0.9963610961503615 -0.6621642221504145 -2.0730213435721074
Ni 2.7383023961080477 5.33487764807995 11.626133320520108 -0.9238624147600024 0.6627943995352457 -1.2932723463259728
Ni 2.3957304219293407 5.24644904115046 5.410279594801166 0.500620524975241 2.395391400140455 -0.4563836666440527
Ni 8.747499627520295 2.288291348508026 12.849035839765003 -0.7975124918771427 0.5799603976571495 0.5192196281336671
Ni 4.462024054204837 7.472787973758456 6.979486014939134 -0.8661416630097662 -2.8868305157267447 1.363838072359677
Ni 0.6416088574257929 9.109250467992428 7.022454159872033 0.7626110520142672 0.8197360791620334 -1.2464944667404856
Ni 4.440721479302335 0.21654624043293044 3.7214391489426233 -0.9297669531698955 0.9734715931466977 1.2291454339390766
Ni 0.7297914135340552 3.8158646599180086 5.596035802620294 -1.3100179412154278 -2.225231164940864 1.0404876541559307
Ni 1.4635813868016763 1.6018189128268716 0.6729742560283964 0.3996674448989311 -1.8364171178166697 -0.26260682046678646
Ni 3.0296714750555767 3.0525270703506195 9.909728633802874 -1.4216503553824549 1.590917646454131 1.2106481464658376
Ni 6.071982290775747 2.0482654979596764 7.834573429745363 -0.31568056036331443 -0.4494673991401937 -0.30163539512415793
Ni 6.30376590659019 4.3161898260185385 7.068517118936573 1.268425462485622 1.122026591371687 -1.4122825410143096
Ni 1.4405948138831661 4.31364511790546 3.0714832746841503 -1.5005086604422546 2.3483512680325167 0.316691518126332
Ni 3.0471289211548607 9.055624486727103 0.1521819651521955 -0.3523434630019867 -0.08701050185328886 0.05886360710542765
Ni 0.8157810300036937 6.658443955395089 6.550478164816546 -0.4671396196089761 0.0975283706654772 0.49444087852709045
Ni 8.42376972003181 0.8588614414709934 4.4407074459855345 0.28682018448819635 1.3323957946899956 0.3267393892806373
Ni 0.8484496559597969 8.346661321987709 1.6444624203644624 -1.310850207308736 -0.1848044674753269 -1.1301129679242472
P 5.0648859883911905 5.391029626369286 0.8642502351222192 0.1314677037253994 0.013689838782266745 0.8818896698726425
P 0.5454965417710392 8.441283299398295 4.705114781142321 0.15426130458114723 0.5726605215616266 0.6462040992767323
P 3.74034670444458 1.029053765404395 1.8201679666913841 -0.1268155496653687 0.17698728542375328 0.19900287046289597
P 3.9402185578556708 5.237710962556285 7.280713966715936 0.227021467163009 1.480774929458753 -2.0783036750169694
P 8.726543207765527 1.2109349066777995 1.5037961949784022 1.861661494205755 0.10961281263383703 -0.9465958518017762
P 9.229936992473005 4.8243736495271055 12.327066621386505 0.05524889317097582 0.5815935623851984 0.5339067978321965
P 6.275521517643922 2.5723631027195197 12.30374792663706 0.4170712421976753 -0.7814071016748478 0.9058171272225174
P 8.235218075506108 2.223073847565847 6.731592151438213 0.32618428810811567 0.33067471977930146 0.3094579764923703
