# total energy = -381161.23838265566 ev
CRYSTAL
PRIMVEC
9.33255177666968 0.00000000000000 0.00000000000000
0.00000000000000 9.33255177666968 0.00000000000000
0.00000000000000 0.00000000000000 13.65913287395408
PRIMCOORD
 96 1
Ni 8.721689606674719 1.4439044143148725 0.8942404456358638 1.7153479837167749 -3.5917159308947686 1.4111764524343244
Ni 7.284224653090583 4.863454045923079 4.700817532499327 -1.5676177953859258 0.29354721879938483 0.7124169476583796
Ni 6.876410805247545 9.26691594698059 5.287259221247443 0.8987445366464523 0.47082272488751814 0.23580872643733586
Ni 4.553436008221173 0.10993372699098013 3.891746887696462 0.747182633274339 0.11315964944483092 0.7029174928083766
Ni 1.6843856086766147 8.895041756056486 9.629934479517168 -1.3013646364158038 1.6013992627117453 1.37650872584881
Ni 9.222063703108248 5.119380613486803 6.352083781406035 -1.2132292769294524 -0.11357899637043667 2.632447368721331
Ni 3.1459098807590657 0.27279142189200384 6.057498051333615 -0.28858576102905137 0.5205388611657229 0.2599673259614103
Ni 4.234738697360449 4.7913600833941885 2.2864565218968513 0.39185874748778965 -0.0001758634562319552 -0.005263562391784484
Ni 0.5312461777339259 2.9902522495591475 5.11952526803945 -0.023084906843921532 -0.5824373984427325 0.3315308971320096
Ni 2.117779980958706 4.570253266535356 5.871542290767996 1.1441249659326231 -0.06799333732083773 -0.8110925445544225
Ni 1.9826539636828733 6.335281455174707 4.188464172596274 1.7920157088831588 -0.08416146244026795 1.7662535123173904
Ni 5.476070742658869 3.4326898645196207 4.365185373171947 -0.7619690475548941 -0.58921894014094 0.2643592843815189
Ni 1.226483955410592 4.982229432473912 11.834081627702718 -0.43147970431352145 -0.45326311873720004 0.1605006006226397
Ni 7.563566593079549 3.229725528328253 6.530581899841321 -0.7283104789601844 0.8685291894053364 0.2750033943589264
Ni 9.099247321635083 3.2499398354916935 10.321018338394918 -1.304415764537302 2.4274525423410585 1.360860992009224
Ni 3.6996568408434327 5.917855078994484 9.276121576060008 -1.013517810435306 0.9638219858720756 3.4764194376125936
Ni 5.406795210768647 8.325065488420309 6.893573367977723 -1.3428624985492743 0.9810134100496974 0.6023824741060917
Ni 1.7004562628481033 2.340799970933192 7.275509916234987 2.20130962112826 -0.7261548660697623 -2.7238068915719347
Ni -0.0006915420871703307 5.411760128317562 4.228402827954512 1.403031454729687 -0.32924235820814907 -1.7959865206054488
Ni 5.848654207518532 7.2008942982141475 4.563530096230396 0.09031642629807027 0.03894964179032002 -0.8933879003202292
Ni 8.49693376206847 5.4198701158175755 2.0478185065123853 1.0711490877955296 0.3097505680321246 0.030873806760721018
Ni 7.928292049337358 1.0731407970530251 9.745504134530307 -0.5373829293062551 -0.007091616739458755 -1.1045880841802653
Ni 8.961442861997334 3.2706767655550197 3.050999695629446 0.2093890987932265 -0.10853552040925825 -0.7194301457514191
Ni 6.852304823990313 2.370169511396418 13.013192617004195 -0.2697264622307032 -1.6161635655051134 -2.7617802854919145
P 1.0004682163135465 0.6492898922249197 5.053387340058901 1.1311514364910906 0.31601017578859125 1.666961621993587
Ni 8.046946112715005 3.370003114188674 0.8344225217232194 0.27252073714638875 4.221223543352427 0.22565801115657913
P 4.990040778316848 8.932931916298207 1.811897196952147 -1.2880792321608074 0.18661452410087215 -0.8615648422723613
Ni 4.801784543736552 3.9910564377369067 11.599294223184193 -0.5260970719797907 1.3593836361327492 2.1134236586485535
P 7.869226329098478 7.0206827232713795 3.8547162554740177 0.19162894659632806 0.20165624892534303 -0.2435557173726063
P 7.018396248084379 4.642235238442842 12.883813585116748 0.5317121041737229 0.5434175655361093 -1.9107626226077803
P 4.535396185623329 2.710331691359594 10.053504474536583 0.01582951083308887 -1.593838419645352 -1.3502513348141778
Ni 2.6273279757955876 2.8684064534714846 11.714891875852688 -0.32696693191041104 -0.7445166564064016 -0.0032766138687427442
Ni 1.0644708564459908 9.073685462299595 7.412770288103747 0.4798413834463607 -0.27461541489188834 -0.6183425969797738
Ni 4.54215295311471 1.9431026092236579 13.267825692890701 -1.414109052700087 -0.15167348924931298 0.488497773569778
Ni 0.99255421240099 6.472833935914295 0.16996070006357888 0.14328063719992742 -0.3858526505030258 -1.224095273109679
Ni 7.8476494693746215 6.534260791754445 0.08140784920899859 0.05955677651771034 0.364146883394818 -1.321541368473995
Ni 0.9246626979402881 4.235167994742498 0.8818290850187542 -0.8154261389327698 -1.4925068731837006 0.8504391646728451
Ni 1.3977736108481662 6.924426784174554 10.46009575809596 2.6902673650535927 -1.5324183646666578 -0.7996490786041713
Ni 4.439149579078286 6.504695267703763 0.4127573005228507 -0.9174104884870716 -0.8717327839442987 1.9341717455603402
Ni 2.554954036713186 3.9049356498771517 3.6657694120617297 -0.8145499069754035 1.5551168347054378 -1.0634967134565942
Ni 7.276049337728083 1.6697988302387303 3.6557845149083756 -0.45058994278041115 0.9040942309941398 1.112907402679238
Ni 4.349977046785271 6.015156263891081 7.338287192318235 -0.7135518325937711 1.3895321346916714 -1.1192467146337046
Ni 3.5814600725031864 1.3876664572664459 8.519788248131512 -0.45727044012438023 1.5641979710710998 -0.10467680878480037
Ni 0.5102619350483323 7.492536541453997 2.8127975104132776 -1.132997488560894 -0.5531782444672989 -1.7150137403058077
Ni 4.096047645303252 7.798093619403305 10.717583661573094 1.2000755131563139 -1.9941434981282817 -2.7277391367468056
Ni 7.202247518222781 6.982801895581442 6.5110358033855915 1.0904948393119929 -1.273367894092562 0.646523430289364
Ni 2.9551151920936105 4.232190910723506 13.604564692859626 1.7089148264969214 -0.2826025468624229 0.3631243556675746
Ni 2.127140530397732 6.028809787150598 1.9356766977693876 1.1706564365642484 -1.2527900699412102 0.3651809810862872
Ni 0.4037747194310633 2.422581122213537 12.731705123360163 -0.265161211457524 1.087745815811946 -0.3215493604392656
Ni 0.1225877339544653 7.8052143564142495 5.435883841423184 -0.8401143857080693 0.48654142117435567 -1.3586531857246278
Ni 5.818500732705478 2.1924777254352423 8.305107826430918 1.05739368588265 0.10908856469925084 -0.4000037451924272
Ni -0.182467252708882 7.2127373064276314 8.55606760993537 0.7144887425857437 1.8996683124668314 -0.26430631965639645
Ni 4.2398342706343355 2.143911125952997 2.367482669737898 -0.964030759448772 0.2507884876756197 0.25536093753765055
Ni 6.363661745148863 1.7615284817204737 1.6153835205536555 -0.16527899584788955 -0.8486645892709255 -0.7568324976592772
Ni 5.532598008812589 4.025120251747321 0.4539418515442093 -1.559762046786933 0.14631042516518672 0.9814291574308776
Ni 3.402079094669166 2.2371993135826136 4.841096984870106 -0.6451566318488244 0.03436536485374726 0.3861858654727285
P 1.2188499280515457 6.805082111964915 6.87580232287125 1.0087980363621336 0.25681103972061575 0.5716552202255638
Ni 3.8723277139449905 7.180997297811351 2.928627543621184 1.9883073510624787 0.1865304490274981 -0.5619873581184968
P 5.792826882748588 5.049078500900378 6.410107988865858 2.5426770447347176 -1.849450296851544 -1.2498320157541507
Ni 2.3189524672076085 8.600366433486942 3.7645255417814023 -0.7445246268262016 1.968250946632236 0.6942770435245591
P 9.355883163134367 8.31369844034779 0.6514205137971327 -0.7537808553171469 1.2165537133169952 0.7262140014424718
P 5.619913363300654 0.5420551392097784 12.073171338593513 0.4932162620913699 -1.3913406486553201 -0.6256645845624836
P 9.501377645441861 1.0040799138538288 11.11326145907664 0.5274049921579369 -0.944284172949464 1.0729761137019391
Ni 4.369332759184612 5.414578558956232 4.658310558890222 -0.6813037711933427 -1.0730527325761454 0.2174374230189997
Ni 1.8540047373449111 5.109049478662275 8.038959314898534 -0.39796614593710816 0.7608840420208315 0.3632554819288002
Ni 6.229189006497887 7.336598933700568 9.05570443477799 0.023131443811140805 -0.8032139131372941 -0.6925140380868653
Ni 6.472992589294618 6.39707228053442 2.0384346256939 -1.6928863122791493 0.1931834355676415 0.6022156095109241
Ni 3.782707219166358 7.368058965763337 5.582788472305194 -2.017753167127422 1.2997101315315165 -0.36779553589099884
Ni 2.3023125273773157 8.650771545670572 1.1036647741718915 -0.23562386412003938 -0.24445328948621126 0.5081669698639313
Ni 3.428844853184746 0.6337651923327761 10.869146169050335 1.449887495851277 1.821920209752075 -0.49164994604551454
Ni 8.844151351180106 1.3362347643866122 6.585395709487559 -0.8363883430067339 -1.0597004796389558 0.3006925715949144
Ni 5.669469213271968 4.720833989564954 9.155825916823613 -0.9698355390560072 -0.664942813336816 -2.846798696615839
Ni 5.3049490731534 1.8265017072384202 5.874232865447229 1.3637971918194125 -1.8919622020718256 1.4576434856476121
Ni 0.7719345547452655 8.156239626653624 12.244880025606175 -1.2969012013278116 0.3339073677839863 -0.3898872255837156
Ni 4.044186655041369 3.5979786891602914 7.032855170562827 0.2634781673281462 -0.1435742571809463 0.17092796660355078
Ni 3.292038976587852 8.594944220900627 8.22973720497078 1.804366774249344 -2.7781890658672412 -0.6171269794051177
Ni 6.841460398817682 8.737144312428486 2.751058947343553 0.7258499332348338 0.005705020804577272 1.3081122395522826
Ni 7.14290182143039 9.060367910904292 0.48360256762308573 1.0691958207239005 0.37527153255306983 -0.373366345110557
Ni 5.832919525211256 7.736060147697217 12.97545271084619 -0.14353569063352697 0.5301542727682999 -2.064715909030205
Ni 7.650172673632054 8.193756484823998 11.17935832382934 0.010430451304704616 -0.40569385359866905 -0.10989177732683655
Ni 7.8893193130887305 5.458310896614535 8.681799480585758 -0.4432779825000301 -2.182132791089493 0.5710098733320811
Ni 9.048795546692535 0.15318263846688765 3.4973663148908463 -0.16924697935670205 0.7147407106955497 -0.48396337603453415
Ni 1.1361448541446162 1.9373910875320488 9.415608694784352 2.1998775166674243 -2.893855540894326 0.06490492820350112
Ni 6.094240307705944 5.88681501176198 10.940173420910352 1.3377375186178833 1.1307639712446849 2.0387158854220178
Ni 6.629023522565884 3.949274603401393 2.564884805066195 -0.13319831326326093 0.4054190026707276 -0.16337020886095088
Ni 2.7550252818516148 3.7939716091692537 9.640534391833064 -0.1162467730105869 -0.2534189833199313 -0.17516437328240156
Ni 6.722769005232901 3.2509477510843303 10.447365224207848 0.9169782860456595 -0.9110686054294439 0.8238529295438843
Ni 1.7280712835759982 1.7967588647038475 3.192617435926003 -1.1400168573015204 -1.6639809420987082 1.362019016873067
P 3.1474497518033724 6.081352053692689 12.487384517194615 -1.0730236791104228 0.42678821237512304 -1.4697783212379332
Ni 3.3930638496461354 8.355125637715526 12.595769040589506 0.2979597460447836 -1.2518495604048119 2.576009854558893
P 8.83341891662888 6.298445873284541 10.688941126893816 -1.9003519687974175 -0.6171619464081113 -0.14295847797381833
Ni 5.693733847909525 0.1150544981546827 9.706671386558435 -0.47965857801159323 0.8401393254087337 0.7509510991778358
P 2.2685566875757623 2.4181761577716427 1.3990363051044974 0.6657190293812084 1.3302460953368445 -3.0154777192842133
P 7.060850026148318 0.05648806943622912 7.7044610606128705 0.45495130507290027 0.8252330977208626 0.3465607948819386
P 0.3407445311944779 3.4966738395484973 8.166468103408533 -2.907573661811367 2.0696951074123517 0.1165913008341992
Ni 1.9599012024342732 0.6343270119501533 12.579378279891838 -1.0528544032513996 2.644165685599524 1.1883543680646436
