# total energy = -340890.8290531908 ev
CRYSTAL
PRIMVEC
9.06743763837030 0.00000000000000 0.00000000000000
0.00000000000000 9.06743763837030 0.00000000000000
0.00000000000000 0.00000000000000 13.27111153440157
PRIMCOORD
 96 1
Ni 6.769340956998886 1.8087906085741197 11.083209808887833 2.023030356365961 0.12994381088170523 1.253345685334364
Ni 5.011881113281436 0.6335989974128381 5.767320177900696 -1.1145824763888157 -0.9084093134297259 -0.033863999737296514
Ni 2.9032484746277656 1.8338439389572636 4.591047728164796 0.21415952359867632 0.09639091462692431 1.2514772646670576
Ni 3.384149100831318 4.555317489882212 4.738171438672106 0.15953103762051882 -0.057606080549242725 -0.17663812961445063
Ni 3.6673070455308525 2.7768121232479044 2.512155378444774 0.695566451759944 1.8613976990214072 -0.8168191626255544
Ni 5.190545905850914 4.809559375735621 2.344779545819927 0.07157822645861865 0.04366041700242804 0.14191538142128463
Ni 5.393565836100132 3.153255867072225 0.18323115419848598 -0.025025832620376255 0.7620808905424101 0.7958135069081649
Ni 6.076951413728216 8.29623399471468 12.3887023133795 -0.13460264980995526 -0.31204219227977875 -1.7003715649126006
Ni 1.9505962668665504 6.822267590891904 13.258955087726388 0.2870582686409315 0.8100407062511403 0.5559802326924683
Ni 0.2538084623310369 0.44176647180593726 0.7656553466832071 0.08994927276663864 -0.13718043783946052 -0.9258915293748893
Ni 8.173034718596048 8.718776591839001 6.887707288819936 -0.5193895780526281 2.668073859675689 -1.8013853230235168
Ni 8.962690666144672 2.7706281307320504 1.3158973892599102 -0.8084587064760013 0.19277771548879058 0.19990841299630088
Ni 7.075784081728792 1.324290209601075 4.770314598597986 0.10600786889139806 -0.8005006279711891 -0.31330588948355076
Ni 0.9021792225115838 7.770939193499953 2.4210357901880784 0.5005778446627638 -0.20349047392060438 0.114105558297868
Ni 7.718094166546293 4.504467299223989 3.5200563908956504 0.5728631244907361 -1.2028096242580253 0.00041600449149605776
Ni 8.161945242280963 4.044167891489674 12.35807250880684 -1.2874608818505182 0.18839038505437233 0.0016092534686488412
Ni 8.32192204573728 7.583778211799457 8.750400187584297 0.7255339446563117 -1.0551838227155248 1.4511915593746814
Ni 6.897890021364369 1.2514968196930478 0.571492489585728 1.0834932111831792 -0.07251282245774608 -1.5014327149184208
Ni 2.1910556474060328 6.588980553578288 8.850756774632634 0.77676471780683 0.7361562002568484 1.7842347793861595
Ni 0.1784127178012357 5.240298936546647 1.12135823349761 -0.13687216257042234 -0.2461281060854729 -0.19669710514785477
Ni 6.436266767724901 2.3181720566138844 6.924693367224874 0.30859331449922983 1.1986830036841614 -0.10289323452181635
Ni 3.341931110869712 4.726945950791422 0.41254846728418393 1.7907422414873742 -0.797183390672498 -0.7817698843309053
Ni 6.012092031813404 5.7237112429949075 4.52393599472368 -0.8260550794015257 1.4296336306982473 0.6690848605296477
Ni 5.490188452300921 2.9496374859343755 9.62565637405765 -0.8036510006747127 -0.36808272811411447 -1.3085891791887012
P 0.5319385128223005 5.755583286533362 12.067462037056307 -0.01784705548374991 -0.5923726552785733 1.1549048301569464
P 4.228889732447113 6.311063587873128 12.606494006396426 0.9216371249739095 1.3624229371797052 -0.5176494554330698
P 2.33689631547787 8.92681081513993 1.0790994400663245 0.43624730090549385 -1.1663135862145204 -0.5952965137935877
P 6.579477878861844 8.086340946683912 5.4937093383623665 -0.3278866155112031 0.21409421757837965 -0.23762675348268109
P 5.122222762732206 1.30174855946264 12.352445256966167 -1.4461372847802254 0.13188293688594707 0.7244168003327329
P 4.314930648844381 6.324909565251 8.090414946445454 -0.6150626406769214 0.6808972797835434 1.649469892966727
P 4.980707262446384 1.4106666211934844 3.4241727708679437 0.11550269575571076 -1.1730023110886056 1.6048931347976167
P 0.40243646075386114 5.792297341807104 3.551972864878867 0.5414756113183901 -0.10080909829927799 -0.8070672254451132
Ni 0.626004111589848 0.29114273034390564 4.756114084405788 0.8592253955059073 -0.25433069650092327 0.2632701650823982
Ni 2.1415474375283763 6.567454456462984 4.617855607744153 -0.41440192289562827 1.5073555081607588 0.5189838579737772
Ni 6.102548790373753 5.257871630821903 9.048203857667419 -0.13903600299096056 1.2394848681918718 -0.4183958745463698
Ni 9.143060137002976 2.4813678004560202 9.831372053537018 -0.7603217417594583 -0.8169585164168962 2.4827222614476403
Ni 2.6097445835050794 5.428611482835873 6.954885214556309 -1.0490036620467418 -1.2584912340910455 -1.1666514291699135
Ni 1.2657417643300073 0.10324184572655641 8.812044256088374 -1.5630335184493533 -0.6252457518575103 0.9457797836583841
Ni 1.6046825858001177 0.9037923196795755 11.69171648593539 -0.6383426942507845 0.535263311860091 -0.7874705342601083
Ni 3.9023531657595365 7.28567712975956 1.4580702787794553 0.5521845130954619 -0.24839864728720445 -0.6455482108602882
Ni 5.899211499804806 7.853797439262229 8.036228845455 -0.18352971452796135 0.12660986141246583 -0.052942870745618494
Ni 5.3048953627679705 3.295270076431906 4.625871222676726 0.9420858797465647 -0.7958723851705584 0.33118276976397154
Ni 1.0947661589356679 7.550410041039425 6.929351309974718 0.9206876165764467 0.18795946816454082 -1.328495688304641
Ni 4.949007500224353 4.799086485184578 6.874874144233883 1.5872833921356535 -1.5382519406292992 -1.3583590515229766
Ni 1.0542800495760092 7.380187032974728 10.827382028179551 0.5327320607978051 0.6447987342887733 -0.2874426485635437
Ni 4.855694498786448 0.5036181846334937 10.218357600438953 0.7788987334306973 -0.8278455956430453 0.16007662571134365
Ni 8.624448037377965 7.335711251024195 4.817811650792334 -0.40985312718268124 -0.42800125884661777 -0.3531626164691724
Ni 7.357074134260781 6.396741806762134 6.62781910950667 -0.37199543290495934 -1.506141947468632 0.9122469420082612
Ni 2.4048204913374898 5.5874276542657535 2.34501892617538 -0.6380423894015463 -0.19418385180769782 1.0464747249773008
Ni 2.8099989452538057 5.3542222238914965 11.267491879116506 -1.3010211370334561 0.06632109182473739 -0.3839821729531903
Ni 1.3687297218007808 3.610499548299439 3.6482953488915704 -1.1948204354049616 0.2984258870479247 0.14204933589598762
Ni 1.705920527793531 1.4821270977586514 2.418686417078316 -0.7266158648665808 0.40263269817484204 -0.25293458748434505
Ni 1.3002887019918885 3.502279679271997 8.031968963220471 0.7339499366341489 0.12395802561191556 -0.011549395400496239
Ni 3.7079291664561094 2.6228379635533092 6.9933184560192085 0.7164456092017983 1.2345375514889256 -0.661001569300881
Ni 4.1070687068598755 7.073408413049681 6.074253851010524 0.905110588073796 0.7803326376637464 -1.4235146622847032
Ni 8.516110291660338 7.470680061285902 13.186827247746022 -0.4809461864747653 -0.8052006045500197 0.40744091819676276
P 0.2853867208878001 5.82346212520445 7.936735478476322 0.5221491430756362 0.0207598582551707 -0.43071942910872923
P 8.829281455168488 1.70443346800966 7.95183820272032 -0.006589223181743491 -1.0354909722722876 -1.7989384041449215
P 2.026817148227646 3.3521319782895587 10.286464938540245 1.143992811230133 0.19097254395925176 0.1814301516864553
P 4.086222667572562 6.53119377307457 3.551614701089459 0.14576200886088445 -0.9111375109941663 0.10889161819709633
P 7.31408541209412 3.966849850166088 10.305309794325726 0.5660113916762252 0.05923975949792379 -0.680556608614673
P 6.812130195536004 8.2344756764955 10.091034453651393 -0.554613948472561 -0.9260211129742181 1.4248968873442105
P 2.7082622941865333 8.722349162295373 5.458222107410318 -0.18108896629695262 0.1276547577372124 0.601059384419294
P 7.109406140744606 4.047903675824764 1.28106029359142 -0.133992269919466 1.616068434688146 0.04346295627964128
Ni 3.098769633893683 1.6640380330270665 0.15811344500762584 -0.3723209345651781 1.1722160677418842 0.5107720115869462
Ni 1.7779069157456768 1.1468948583105116 6.8128710051966275 -0.4381175213450132 0.19417151051252365 -0.3499564508270489
Ni 7.024217563491753 0.8690377376942148 8.771647007618238 0.022145425748787664 0.2987315912138016 0.7615908382798691
Ni 2.9563020526486756 1.7323883784588936 9.180238445087292 0.004550338374843776 0.3484767809577289 0.48322906897167106
Ni 6.701752276334409 2.3713435113249792 2.5873625202702795 0.24461141233063033 0.2610266204638601 0.07899020265197364
Ni 4.5978981773520795 6.751568779094087 10.360915856061027 0.1907519433080134 1.458882500261036 -0.12236239899002152
Ni 7.7480801830417905 6.251281971073972 10.995262010340882 -1.1673785371439251 0.5394035592807097 0.09680126269146554
Ni 8.009177051801336 4.115066186917035 8.1058622333223 -0.6831333682029138 -0.6463658216655771 -1.006553463302331
Ni 3.574075651032306 8.63156597597759 12.230005832127345 0.4276603305674312 -1.1579199628341863 0.5896390583974942
Ni 0.42757049133259306 4.91020793427811 9.935232298515162 0.30334646427799367 0.26492029909131154 0.7404640836035828
Ni 8.884066913791345 2.5311208311517532 5.898863310196875 -0.15068824251790822 -0.006747346026162574 -0.24253447519694357
Ni 3.8244638758604395 3.1314758817011383 11.6619897981583 -0.20224271755643233 -0.4698323359497908 -1.2015747234096597
Ni 1.4571372394394535 3.5016721609456596 12.461919152628422 -0.6517504830162582 -0.31364656065242114 -0.42539441735139
Ni 3.565035415638895 8.683250370904814 7.9086672250557575 -0.33993609047656936 -0.6210893064869756 -0.06405492149838
Ni 5.673314424222011 8.080238561107416 3.3899994116395713 0.10564380068375999 0.48564282061948616 0.2020892226977036
Ni 3.166140696053205 8.99254067107457 3.224720877356245 1.103751704321899 -1.7428315338490243 0.3904950343710436
Ni 3.6897670887299285 4.318485084425341 9.139017873273405 -0.5772203730181672 0.45579231291695693 -0.38055669221140914
Ni 5.627877493874586 4.742523808771241 11.41725693422773 -0.3841942889639964 0.13474611736635503 0.9541988609600148
Ni 7.897303005378162 0.04637450340627965 2.760656669486179 0.03638213817345992 0.04446260118874923 -0.044996619315348305
Ni 4.8003831287766126 0.5169926552506263 1.3621467620258396 0.025042544790924614 -0.21630793740024684 0.28077037874969063
Ni 6.190711487194349 6.0430845338943255 0.3832143995597871 0.18024204491562507 -0.15799377504038598 -0.3685866643337265
Ni 8.50125782869704 -0.0930038018121128 11.385286962362043 -1.1253983360573974 0.77244989248156 -0.5898671152479003
Ni 0.2540786719746915 4.911776601001339 5.843973576040392 -0.061933504280003014 0.6426976287853705 -0.3883414783631506
Ni 7.762107509173792 6.681586294875085 2.3771348837881403 -1.1248702314680692 0.1803513167999797 0.031920502857680506
P 8.959199702627657 1.80944346408899 3.5258822196220962 -1.6486795358549475 1.3888351086246469 0.03209636631391247
P 1.8985582418687719 3.558869557998454 1.3474294038843702 0.021808354124343083 -0.6566677178122174 1.0864414951782257
P 4.90309906311619 1.284556697571058 8.124415117613632 1.0487537508194646 0.0812975106289116 -0.3306148130756435
P 8.548063942138151 1.872498425900203 12.457963936300832 1.6587245787957754 -0.9285886165910782 -0.2886747211984319
P 6.605147795009032 8.23601714090561 1.1309125926089811 0.7994495609988554 -1.5218709281681144 2.0004164756211873
P 1.923040323676404 3.3398274653217968 5.983745408055249 0.4486788418006273 0.37723559825797615 -1.4931043975583833
P 7.029331598358236 4.249917120488558 5.903574750829189 -0.04040540040024009 -0.3525092991558897 -0.31086462703190976
P 2.8768531634640553 8.667327950292147 10.14187648361568 -1.169825713132837 -0.6126715147369255 0.304350737172792
