# total energy = -340875.92676847725 ev
CRYSTAL
PRIMVEC
9.22049951759163 0.00000000000000 0.00000000000000
0.00000000000000 9.22049951759163 0.00000000000000
0.00000000000000 0.00000000000000 13.49513306636689
PRIMCOORD
 96 1
Ni 6.836041497836095 4.258441623057194 4.976141336143948 0.40577972844425597 0.26221755544816777 2.3020886375205514
Ni 6.540238651189931 0.889105111859035 7.519650257869488 0.8031442362416232 0.19849919135360006 -0.24706630162902607
Ni 0.6814244236856963 4.40739879358083 12.904248660283475 -0.7878675125882109 0.5658607250309738 -1.0343375753941346
Ni 4.130488750549827 7.007422923309498 7.249423232925488 -2.0066796829220794 -1.506861856353792 2.021622420274841
Ni -0.013965368645936246 7.425581799225156 9.381802987606136 0.030936798788172522 0.40383828844716907 0.5441698703211015
Ni 5.01188552476988 4.48886190726553 8.529652715966334 -0.5708378665305911 1.5330601120157146 0.2537491129658404
Ni 1.74963589555634 -0.06376436476361555 4.640693107504562 -0.43318974502609264 0.3409992416337611 -0.2130269526561299
Ni -0.14001420799247755 2.603030012587888 8.896045863206423 2.78717275742309 -1.9093688275840472 -1.9622610475973883
Ni 6.036412113786491 4.386680331051173 2.8582423760350957 -1.2258814184758242 1.154893774413353 -1.1987189991284193
Ni 3.2242980529909904 9.432294443241384 10.365935490064592 -0.6486859851583215 -1.4161371388737094 1.5810428105425802
Ni 7.4129128328185026 7.23917095945565 3.187550674012043 -1.1188600207182473 1.9740618968870582 0.5783634854836749
Ni 8.083399899916447 8.806536019548588 11.603871463636242 0.999173625898492 -0.21345324156027112 1.0555826008158402
Ni 0.5839277833019215 6.148358199043531 4.993158690146945 -0.24369789937742545 0.8865590503238536 1.157417055055839
Ni 4.219540335379123 1.1627049955450683 8.48248709452532 1.4016728838192636 -0.3187833676583542 -0.9362332776205294
Ni 7.5617224753490495 1.3896952539140492 10.27701575837912 -0.49433032109115504 -0.15319018300415552 -1.4610746228163483
Ni 7.854150619153266 3.795157622254958 10.177935036169536 -2.098309685825251 2.5750438911011977 1.7631926140038796
Ni 2.406246110804202 3.7150591425063455 11.160353447758272 1.0217183439682276 2.1706875253670295 0.07457638985499414
Ni 6.326820968185282 4.740618427474591 12.079966426538482 0.17306018245520519 0.06695564008494274 -1.1546513193852437
Ni 6.330297096522479 3.495168668804848 0.6767062940566684 0.5763749942987364 -0.3963669197707883 0.5652529162436459
Ni 5.382309874421169 6.564147406570171 9.999704623616903 0.18412698179232806 -1.558102399696323 0.873300899762367
Ni 8.598733620780951 1.512659836155041 -0.0315507054223324 -0.8223614326000225 -0.29082184944842177 -0.04181436493262476
Ni 9.177071015194697 6.862900813078147 12.532026313216393 -0.6784876419007864 -0.4976889531507428 0.12293909742909795
Ni 6.367732324769212 7.449149396121374 7.406871561501444 0.7329531199385183 1.1359614562852243 0.1310938653257484
Ni 0.6322542656385656 0.9284213220176724 2.0325696909552224 0.4163821865504507 -0.24280906901456892 0.044214232623369015
P 2.9942097067671076 5.080744215544905 9.362113532828285 -0.6762466683854095 -0.4828842840377426 -0.11582536920245215
P 7.510622466742302 2.8213253398640936 2.7929262011941587 -1.0402513697754086 -0.20762532202458436 -0.7408500061880918
P 4.756016661753419 6.690154753668656 2.8352870203102025 2.234873316016319 0.17741460276915896 -1.9245900154091757
P 7.7831343314792925 6.10951223436287 10.796660062791739 -0.4573231477391866 0.48867826501170025 0.4950977953847989
P 1.4584340781946876 7.678417117883692 11.176884881434027 0.1266923938239431 0.6332814776777932 -0.3111034825155932
P 1.1585926527376686 4.416149047671015 3.8921720305113174 1.131628376127509 -1.2364399107179609 -0.24752138688857372
P 5.020635778860064 5.023051549746922 6.458258267479456 0.5429678795932004 -1.0296777080246202 -0.9351840104204088
P 8.7722449816546 -0.017296735139912717 3.725061540437886 -0.07944760190436641 -0.3415638558879795 0.5469389484258064
Ni 0.7270760390976169 5.428357049264564 10.506419943535047 0.33866442285299736 -0.5287152263289281 -0.2920462087738261
Ni 1.943533780975192 2.456553156448087 0.387515467650832 0.2280067138944138 -1.2045500039878998 -1.0262794809763487
Ni 4.884366015742217 8.619931549288152 1.194896525687388 0.7950635161160179 -0.9130750943365114 0.8385827795548914
Ni 7.161488250593896 0.4176499043394949 2.2349965384746233 0.8767850016562255 0.3237083157637974 0.09627444365371807
Ni 6.547034159371665 7.078863353963608 12.709878685286732 0.34592778928363005 0.7744185861721565 -0.3044096154351854
Ni 5.542829551403279 6.642955016379241 4.92986641496122 -0.9158745114585194 -1.009962231873564 -0.35865757814547267
Ni 0.34903371270311323 2.685378294231132 11.28700530777657 -0.27130949044710695 -0.990599768186552 0.3987279638037972
Ni 6.304239964742856 1.9946983330789159 12.147482612576379 1.2484636746517144 0.9964364294729872 0.5702483125757082
Ni 2.2213935354617154 2.432819590559641 5.258635313713429 0.7026490696383383 0.008081234346237696 0.22421973604815576
Ni 7.314401015432273 5.957355550489082 1.2075258439458978 0.5386425127449692 -0.5217058848906305 -0.5559830609059457
Ni 3.3400522045696803 7.459817514121736 4.035584914644619 -2.110795219886771 0.6002307178704114 1.0050313702308498
Ni 8.291598780165517 5.261991575556239 3.3270632868280123 1.5077607140189777 -1.9076158494486823 -0.3328763554163106
Ni -0.004706142979589239 3.5214563130736742 1.4882301225491992 -0.7504407352003205 -0.0647869145683981 1.1126760033947225
Ni 7.448937324631307 5.9464108175016746 8.605563244811087 0.4528980220882975 -1.2930077798106765 0.9001933532778368
Ni 8.535342686249844 8.27603457689446 1.0440131928039627 0.49101539778530917 -1.3512244973607246 -1.0285567070462993
Ni 6.889944538311562 8.301861196184879 9.728479940619629 1.7574906785230955 -0.09912271173579058 -0.926638949063875
Ni 3.1255004001181486 5.491535912305601 5.672152590146474 -1.4588002249598748 -1.1377139201999569 -1.0880620615007843
Ni 9.504029929881677 3.9343779452346164 6.1553731551149875 -0.7978354224342001 -0.7996153971527584 -1.4247673037448816
Ni 1.8995151160367927 8.540570709504992 8.0282281187004 0.21103357637518494 0.9038440626565466 -0.8505366094826579
Ni 0.7390064434888601 7.5418707397787985 2.962289259312092 -0.27961852453343455 -0.5223496891222166 0.029251440665949622
Ni 4.475824120876151 1.2112693667705712 13.332382272631968 -1.2962972491952256 0.5615986073205103 0.10668895411882272
Ni 8.838503491551402 7.979171372797958 6.946511381112272 -0.04895071886708989 -1.2138982779720189 -1.0399852605982154
Ni -0.09201136519067596 2.269791937694991 4.139726769067167 0.6007251410083267 0.13345490935875728 -0.03088974760032099
Ni 5.442003388625442 9.178122152145466 11.4232520196455 -0.17006947525799743 -1.0951097123761848 0.12555133824096443
P 2.3650950212315007 1.625039284891784 7.465574794052096 -0.4647191830929416 -0.2471416349516518 -3.2732310683134402
P 4.137348802228539 3.5755437635405056 1.4583916638966739 0.4407071364490604 -0.7652366625625724 1.551074032094632
P 2.363601300301459 1.72211270434538 11.791615587643305 0.028602494228041064 -1.0521938868492653 0.20036606935900977
P 5.0028678761922185 8.445110877475825 8.920390748216237 -1.8094382752349807 0.0028210143885628834 -0.4689049390395151
P 6.874407996539212 -0.03708484926314247 13.304973415615654 -1.1298872250666863 0.9611246415455705 1.1169826011898765
P 5.852924172380093 2.9103769246933897 9.616928492744105 1.7503080447317276 -0.8049445226751557 -0.5631716082345849
P 0.3381931713608266 6.012494137906682 1.0582505661871595 0.32758991020639067 0.32307659571706937 0.8097123763774442
P 7.932432660486951 3.4596697454674294 12.719986196913352 1.1850073059692816 -0.3414486704663539 -0.41271785032498604
Ni 4.784858384402626 5.842348259375413 0.7897579172119303 -0.18200787856679623 -0.24078406816474016 0.4697732005770813
Ni 4.499668332759415 3.6906709211485604 4.487644801322533 -1.0038733453670066 0.0628120502302144 0.2522596729045075
Ni 4.4192563560254845 2.081841274497603 10.772179636438274 -0.7043089738392644 0.8201245728497036 1.5083330415826797
Ni 7.116602858696089 8.769700123773786 5.2066519812480525 1.141805573770827 0.43666253406604155 0.11437758101233204
Ni 7.188467432330334 3.424198483628715 7.853074586853662 -0.9854549907608189 0.3180228353432459 -1.3634493215616905
Ni 2.354177949742798 4.70432654117431 0.9555507978970716 -1.102621704482514 0.21943157063089305 -1.7508981129072425
Ni 1.1990798663414624 -0.042993345386419864 12.868688881648907 0.02301420150698617 0.516334336166072 -0.1786695582221826
Ni 2.46957250183833 7.199725662303058 1.422076726347473 0.17625914900847708 0.1479333054805904 0.204405529535706
Ni 1.2861121617653317 6.193142165446088 7.763264154909906 1.1811264828576369 -0.3677250876643796 -0.3084174510429979
Ni 4.856326476555441 8.679754150486378 6.123551367005351 -0.15515913380506827 2.889083573426979 -0.9658169048149173
Ni 2.4606747197550547 2.4287625707496505 2.738391556498272 0.7327008947183963 0.5637382793713324 0.37853323402347716
Ni 0.38485443147546083 1.0862947156237204 6.3603909630130415 -0.24623994907298882 0.4568914595184067 0.9532930613162937
Ni 2.3438602107260267 6.146716950120398 12.479152280492734 1.0056260663920553 -0.8600108675216802 -0.22313601606567376
Ni 4.4932232035612705 2.8097259514073474 6.76119685874142 -0.35727792418912657 0.03129341079664288 0.13834180513741337
Ni 5.325216541095117 8.810067470883194 3.624104446566181 0.12833352897179187 0.2341717050545451 -0.5499929047607818
Ni 2.213786623317983 3.871023892701784 7.521620678627204 0.6729641409793958 0.17764368806082953 0.6075758453815729
Ni 2.3189556413924244 2.1126838455531005 9.390021218871238 -1.3050490272459265 1.453020385053304 1.8384426328871306
Ni 0.7341315653671734 0.3650607850524902 10.18802963909676 0.24091468020533344 0.8925548628959725 0.4661818836813971
Ni 3.2152343019154883 5.117995033800273 2.8619941973093805 0.43183194544661757 0.10917109711072812 2.9235890634030164
Ni 3.1056210030491935 7.247349542572609 9.800853485830036 -0.35172768379485875 -1.2864985179372488 -0.46074194361274845
Ni 5.42642074435525 1.7962916233712332 2.3156159764488367 -1.7023564565531135 1.511230674845449 0.511483435831674
Ni 3.3542886559029204 8.166070899044575 12.955381862688666 1.1875023044769937 0.43878857927010884 -1.5323281189456965
Ni 5.8013908002936425 1.8178675923607293 4.9781652357991595 0.6135384907229111 -0.806254756846147 -0.11673631105249571
Ni 4.284535636835089 3.626579228650275 12.86782492083937 -0.7846670033730423 0.5657180288055226 -0.8293280937258427
P 4.668514120851574 6.189555391114074 12.149856891215181 -1.8665625310517981 0.23151832659209806 -0.7331958320769437
P 3.843703552481324 0.7186687875913679 4.676306365036627 -0.8928996478299009 1.2381082995593193 -0.37874586425491547
P 7.418887716538671 6.577655438437527 5.77656460520637 3.021343948257003 -0.2777297921511539 -0.9901745077236754
P 9.10450568359327 4.65565152395399 8.077525519641572 0.04485546575179372 -0.4707011117079894 1.2752507129375716
P 7.765458633807128 2.3769894656744284 5.959275258499172 -0.6135734577259047 -0.5280716792076583 0.22971186951097858
P 2.1648165501114813 7.407150020588403 5.980786683991691 -0.5301267619644741 0.679690661069952 1.0900772921586
P 2.705857023772017 0.46345365799429017 1.1726004356816184 0.24557377624389967 -0.6326762399936265 0.003567405636284179
P 8.664180726715754 0.20170672650312738 8.434808813308319 -0.5729896227662712 0.9854940715288705 0.7221837972371562
