# total energy = -340867.5442258938 ev
CRYSTAL
PRIMVEC
9.31063540287946 0.00000000000000 0.00000000000000

0.00000000000000 9.31063540287946 0.00000000000000

0.00000000000000 0.00000000000000 13.62705604556167

PRIMCOORD
 96 1
Ni 6.351370963009361 7.254912262866259 9.844457866759432 -0.9622554127159041 0.7649792951361277 0.2714066781466035
Ni 4.2523533909426865 3.0811592558050274 13.527987299771105 -0.2640124425650614 0.06489078713611404 -0.4945123551949741
Ni 9.19124510293096 3.9563589815639446 3.0766072861675435 1.6983259952374816 0.3773320146265244 1.6173311034506532
Ni 5.352628416387732 7.120475998608461 7.514953653723532 0.031390341385823355 -0.17933084595526536 -0.4043856763102067
Ni 6.94638573826548 8.406209570195973 1.482268980642057 -1.6278093772741578 2.3637917709573033 3.0246087350512036
Ni 8.147513566151169 5.334770617728098 1.5547243451724388 -0.6728880363258217 -0.4394974324116754 0.5972670072563973
Ni 6.2005200485758944 2.2248880517744927 1.43357994398372 2.490551527684072 1.6369884726702646 -1.586801053182596
Ni 8.096984747941663 7.271913483070895 0.11794712899908467 1.0977602626251546 -0.5939605685909836 -2.09724113535142
Ni 8.270898106212416 2.3078737449201228 8.659121807542462 1.9230108438475135 -0.26234662482686427 -0.8095172296475026
Ni 5.214272374634779 2.4311837998983257 4.325759371345408 0.11648768537679938 1.1840811946105865 0.4700495941669195
Ni 3.473220801038881 5.5544923020704875 6.300987390711789 -0.7733752325093068 0.8486558475201772 -2.205141850390157
Ni 7.385214605015152 7.804919426693456 5.493093317054347 -0.43439302130557444 0.3507036134057186 1.0093030010230102
Ni 0.9569377937635714 8.711607721308933 4.01112413887154 -0.9208624515914141 0.5846544606987092 0.13052873685089778
Ni 0.1326895890604322 4.890830212154577 9.109454895368176 -0.0760966831542625 -0.1812792279308878 -0.12604678982014422
Ni 3.3392593791854845 7.5436164447421366 13.427256466653944 0.6200333544186353 0.36459888333057205 -0.4657622796454753
Ni 5.26827405984118 4.105422254004373 2.644480214764692 2.1509890184968374 2.1100022916718304 -0.43756087751059486
Ni 6.546149455167623 3.05917684567187 11.382883944698456 1.896114276566986 -0.7161062235845086 0.2619789570748004
Ni 6.7629569106359435 4.359975025304892 13.7114077478288 -0.17811677104250614 -2.5001247731948038 -0.9479261405774254
Ni 9.34480541226013 0.00826784421780764 1.7456528896008987 0.55294041742488 -0.18136278878362957 -0.45085425218539127
Ni 6.513683269596119 6.215221541841568 12.026912697787688 -0.2997507765069354 -0.2132141289662715 0.1841318668883345
Ni 2.5958796291424693 5.2948093706753605 12.784086154146786 -0.046356989997984675 -0.35054626189224786 -0.24176751512393205
Ni 1.2126823263927835 1.5407704959278123 6.7007097267366476 -1.1022131561901858 0.2916307185029623 0.5923574857699218
Ni 9.314173421858566 8.459782966174874 7.1025036791336476 0.09899081414361662 1.1896694873316414 -0.6799943083532999
Ni 2.288675214765709 3.8727774077539676 10.474300004719527 -0.043127427317093465 -0.36103379168713307 -0.1463677607656834
P 1.2926513736751593 2.516040930755419 8.91950769190881 -0.6157938624159911 0.15435052186084386 -0.34386807854112394
P 8.19723235908258 8.16571585831988 3.443924886814408 0.18229635634149247 0.10971642809123686 -0.5883447650661028
P 6.306223692049734 2.2761151676375304 9.303559297524895 -1.2882234710481557 0.6151883676215083 1.1074450940130862
P 2.3773403954933916 3.623438592266481 2.304471638752119 0.08343229758372729 1.1495551358092588 -0.09315903795318795
P 1.9188660880910449 2.6658490540262805 12.326271970792911 -1.220348661583053 1.5840304324159946 -0.46147676489624395
P 5.788757198877084 0.8082590505643543 2.809176975072374 -1.4530715500062137 -2.4866426795479692 1.7021710800151846
P 8.90610689440578 -0.14269107358607294 11.744901000623251 -0.4020739974578946 2.1104499207322105 0.11265108523952858
P 0.43105541727056546 7.281540680054243 9.173012085665496 -0.7918272685669073 0.5500420128311624 -2.683411518474024
Ni 1.4693951651015584 2.1478146120954253 0.8395697862851484 0.29938516563740053 -0.44828572012726664 -0.6079111172338046
Ni 8.710993219373826 2.743006289423771 13.17999299179275 -0.06990649518315056 -0.0058497739125576665 -0.22414234584300108
Ni 0.5513665165927372 6.170604977098624 6.941786284387556 1.007997137727393 -0.5252488650468825 -0.4126481734293152
Ni 4.189711436103261 6.675036580738693 11.335788888817245 -0.3805680050653188 0.13636077015164258 -1.2240592776654209
Ni 0.9260702442868849 7.848009047234012 12.931081534469225 1.0432513329439967 0.07450851273153619 -0.2887971057089091
Ni 3.483779061560271 4.714710233298666 3.9748620072554415 0.19661740094985491 -0.07169238343897975 -0.10005756484523413
Ni 4.313906001442604 1.9638830101553466 10.362476480610141 0.3310989518009137 0.8773956386570309 -1.108808035798884
Ni 4.04013607871691 2.251320945619488 2.290789660060601 -2.1449335563313765 -0.263847634852423 0.07711406867518332
Ni -0.09133547095478535 2.971610319919076 10.787136422437898 0.23086038129312503 -0.46470118537081256 -0.2970097234266885
Ni 3.49658118520834 5.315060002627761 1.3767683090195095 0.31143849725750883 0.5126419749161494 0.7202477565567079
Ni 3.0712806716664085 2.259961215252512 5.462446429636176 0.3929159851077104 0.544336992026585 -0.3892786454654393
Ni 7.2348106010799444 3.7349334509469383 4.748333730847954 0.3950312316785003 -0.3653339617243837 -0.07166255864230883
Ni 1.8263556149512512 8.917475180205267 8.659544510388733 0.2904631805574223 -0.5717418664020992 -1.3241435819835325
Ni 2.555313190790005 9.0459526378196 5.676132029061444 -0.906476100962755 -0.3676145302284443 -0.22191345651248232
Ni 2.92131426759408 0.845743668605901 12.675928227186668 -1.2149493449443527 0.03335183598756837 0.21385896163912202
Ni 7.73371168730405 0.5904097349969653 13.343476576310364 -0.12400661946166386 -0.18232540980721504 0.30010250341939926
Ni 8.072739853411065 1.4191735978596054 5.966293325374357 0.6197872998461004 1.5364483117616572 0.4071149023159118
Ni 5.213778910959617 9.007229705272458 8.806035254273553 0.19289804311673875 1.4666971112094485 1.3815501449274592
Ni 5.7310219488831375 5.626668347539456 5.707897123788802 2.1862583832220928 0.259048927912199 -1.1815764259108619
Ni 6.0382449845306585 6.352190298922839 0.8460723340348296 -1.6996441998282728 0.3782298438504454 1.1822518547113317
Ni 4.626194022737069 7.618436710659143 5.205453340802451 -1.0494734025943089 0.006215127671776393 -0.546560224930149
Ni 7.8030759208881335 1.151930430535582 3.689239645690481 0.1542790451929601 -0.14110188438105375 -1.426023030528854
Ni 1.3926569082961862 4.663874164121605 4.986753033161292 -0.38148537467326554 0.2793205336770415 -0.2048189629240408
Ni 3.166267773817392 1.6134958688842262 8.151446378535857 0.06649824083254999 0.12780439594119924 0.2673479346961976
P 5.851268804821184 1.5281359637165906 12.866543934266346 -0.026016992889051967 1.5823589582508426 -1.7493410528327678
P 0.2660486128047162 2.497959676846655 4.779553222342021 0.37870601215591554 -0.12201735694577695 0.05298555105809585
P 7.9363204238172385 5.476124684073542 6.108559833987083 -0.3400415057061821 0.4006259521574584 0.2713861093213133
P 4.666723218548012 3.914079386301484 6.025993119433571 0.03090671688118548 -3.583137959417771 -0.18118821087897827
P 3.792566283951701 8.996969385083242 7.253722363664641 0.8160468032359042 -0.7412459560749298 1.0083856314150632
P 5.901946593196778 8.229959242444735 12.978053689963414 -0.4535971050378511 -0.5502104200882266 0.5622295560362898
P 4.891761275692618 6.435418068588358 3.2702349837927853 0.0367703747508141 -0.8198047276164399 -0.27193761094940905
P 2.1853737152200154 9.017322434024827 0.8354014148253371 -0.5145960133187266 1.0644171683883346 1.385360262702169
Ni 0.4442420701598458 6.787937345361595 2.5248068939660784 -0.7188747874685814 -0.12155352993548096 -0.2496623444909765
Ni 9.122551235094265 3.7083702082066172 6.553482511593237 0.10570087917394054 -0.22393974291389174 0.878365458769468
Ni 3.646622074363712 0.18988202901170134 3.6520650718071015 0.2576600179844724 0.6787570935120891 -0.4349200974536381
Ni 6.843233208885873 3.5221761218690983 7.277011055941672 -0.7672220684237174 1.6622480185680018 -0.6321933868199371
Ni 4.654796294625702 4.154815174697469 11.128522041423237 -1.3243533840014934 1.6731518099646991 -0.6697957705537433
Ni 1.5776126801281107 1.804941153576299 3.1427537641641567 -0.038558576999488434 -0.4330017973850026 1.5905242676704543
Ni 7.56346671937318 6.081297362529692 4.020090280742878 -0.09212751136488005 -0.8543971208793285 -1.815771159431544
Ni 4.419600334281063 8.024873876920356 1.8352649619467694 -0.0004710260991475759 -0.6697716021840272 1.0441825865090146
Ni 7.993683248395969 9.130837700582834 9.061719267772792 0.039548708826899634 -0.29301011534899213 -8.638906621920607e-05
Ni 6.588177663274812 9.18764188703874 11.056680247764422 2.648385894328458 0.8783304917664744 0.6188017960043795
Ni 1.6050231906880494 6.450156804395554 10.620981616629646 0.9749198955574501 -1.1136867040474239 0.8903491134939053
Ni 2.5537490040460957 7.166368120398522 3.299355858072106 2.3185565532685875 -0.30739312354354154 -0.5767866279148584
Ni 4.607200326561025 0.6698694905240327 0.6826418201388845 -0.5254643234917983 -1.2408894618488824 -0.17905213837258196
Ni 0.4122432784844389 4.656202200568144 12.269010632139826 -0.32019696017642924 0.6894497973392448 -0.08284480051137345
Ni 5.600970993889514 1.564577790595531 7.432959543245916 -1.1560535990494092 0.4810695994265069 -0.8032709916274746
Ni 4.469337748483235 3.652497085288753 8.204250716032336 0.21516791025853266 0.9330715920630962 0.964904420302977
Ni 8.497276894851801 7.281000663202178 11.072868649500348 -0.05925544322720762 -0.5901517363678547 -0.7187089513146784
Ni 2.119379931643641 4.051197113548842 7.249253258682043 -0.6379986806478045 -1.5409603406993977 1.5804794818399426
Ni 1.2241344079106928 0.5941656453094244 10.56710096968319 -0.09077202577825012 2.3523089671286845 0.7719734670657739
Ni 2.8869021592280695 6.700482547233366 7.94623625049738 -0.7462094707277922 1.3073761327172064 2.5580661255962784
Ni 5.538012477447155 0.4618736203797358 5.267265718029481 0.33679754484758767 -0.9860540577973985 -0.21670825816245903
Ni 7.821026825901572 6.744372882416638 8.100971562011557 0.15716716537403255 -0.06322882605265884 -0.7824013472673171
Ni 6.5313920980896665 5.11422028683685 9.318248686964575 0.6670945695724962 -3.158679166506773 -0.7120474801341027
Ni 4.455976986712341 9.295431112837793 11.251683126235351 -0.9901164007922302 -2.2149788910852375 0.72057171555503
P 4.595031326118824 5.931591656248016 9.225912322706394 -1.3818139401118075 -0.029038039103562893 0.6048882712470808
P 1.7234544727269154 6.922252571359446 5.165758377921594 -0.2204870084786009 -0.271903415277364 1.4955325473839016
P 2.469078085896611 8.308624800773853 11.26740878939287 1.3505344132722352 -0.28234415099471377 0.2655466198214007
P 8.35262686358169 2.8270533950027685 1.6310492097669207 -0.7966198048595442 -0.7191627510226453 -1.2852906136720768
P 8.03081406229306 5.214635489414616 10.862862613177422 0.7272074757039927 -2.5143581431853663 0.28054849254687164
P 0.49783036315535667 5.947065932250263 0.42306689211417026 1.364605803763637 -0.13595402163152714 -0.1841462650660377
P 4.8026212525605345 5.207810793680771 13.022464489664449 -0.818451556022655 -0.1451922524003435 0.7229756970108323
P 6.9486482226629205 9.356723025547058 6.858211228022345 0.07645663759684253 -2.7415832417187493 2.5408289357823857
