# total energy = -381173.56164193153 ev
CRYSTAL
PRIMVEC
9.23288620337055 0.00000000000000 0.00000000000000
0.00000000000000 9.23288620337055 0.00000000000000
0.00000000000000 0.00000000000000 13.51326223308228
PRIMCOORD
 96 1
Ni 6.630634026143983 0.3306739661960269 6.370922175313376 -0.12109844467593338 -0.216794133008046 0.6023418506761433
Ni 0.6226436742000845 1.6442108080492104 9.067236964431206 -0.38451773374168613 0.4552981468893578 0.8938884941057316
Ni 7.637581808270503 2.049146723073875 0.8053375597253601 0.6338041829504826 0.4285558457985071 0.12688496945072342
Ni 0.26025012808551967 8.91725057762851 8.126037486935132 0.17810571529891261 -1.2948903415453699 0.5533510225997375
Ni 8.013434132335076 4.809733478347702 8.552489719538652 1.1968379800556228 -1.4162834346435866 -0.4913516980788054
Ni 2.4922052244713067 0.9582812399199669 7.908352809974761 0.017558320598737503 -0.41599266442151583 -0.3261524064289157
Ni 1.1114825176345062 1.9734647563755034 0.4211700985120068 -1.7286904664619518 1.7444359022216667 0.32315732835633376
Ni 3.821519221953889 4.143285299718711 7.1204755610000765 0.6782906953986318 -0.08595634955716164 0.4646608190511804
Ni 0.08000572722110502 7.244676343728695 11.851049967774623 -0.5143815833150754 1.3835550911726302 2.22777707129117
Ni 2.5136162871495453 0.6320464453219121 5.251172531537388 0.11475399051514432 0.28395031913956903 1.0435362111742674
Ni 6.66076093322423 3.2529119364690526 12.411147302215676 -0.9987393665745509 -0.35324000667432714 -0.6717364392198818
Ni 1.9478342647865465 6.772072607070219 0.31928889444590347 -0.7272771525996636 1.3121419295369658 -1.3872700781303722
Ni 2.6363305752290933 8.09290158230127 11.957304789947962 0.1557252907211834 0.42855378891597806 -0.04510152032432878
Ni 1.1722164418679923 5.00163901425421 1.4076762709922912 -0.5540061396852329 -0.8192516833264472 1.231693140061595
Ni 5.89119988353419 2.948891465632896 6.3086666714639446 1.0358390996403257 -0.015917442561204843 0.5039020239399902
Ni 6.271290102281519 5.755393363079591 10.958822641012333 0.19383263911586618 -0.08391103699235872 -0.3631899187981874
Ni 1.875254547790585 2.386747200361413 11.553906150445474 -0.7213556449089061 0.5686542286157109 -0.020514575013584023
Ni 8.08718642585546 0.4502749251099422 10.327212911199123 0.38181961808423276 -1.4956832140291532 -1.1987855907002967
Ni 3.2719316816683506 2.510864887115861 1.4313918620208916 -0.5346606452790856 0.1519876780556221 0.5449332308496873
Ni 6.0469032733598995 3.6058851689783533 8.664770846416646 0.19750545998176308 -0.10088366029095529 -1.4799004972735996
Ni 1.4756090764548515 3.0302885887770756 5.0703113738868995 0.0789017567032254 -0.12068809661139214 -1.505720029439865
Ni 1.7888439675380465 7.680625522891438 6.274342494399425 -0.9865955321231653 0.7514066986580156 -0.27677102778231044
Ni 2.7992633148077397 6.993624939983982 2.393684790916147 0.30303561790579425 0.3846437177965892 0.5867182852062734
Ni 3.339451777125858 0.695274172069151 10.449062077858684 0.14746176516081055 -0.0035902884544196235 0.20084635142953797
P 1.528661239520466 8.847791576106996 9.98566537513843 -1.2625474064382902 0.06252460089678263 0.5513622743044827
Ni 9.034323572350402 0.5488396765179933 2.1328382183937955 -1.0991761691360749 0.8546930548531925 0.7071245889111887
P 4.176034346428375 1.7584954711933414 6.214330581852631 -1.0574404799601853 -0.5389153067903815 -0.47926314234538747
Ni 3.9305780716112224 8.793834590211512 6.754915134980967 0.828245145074309 -0.16197487117532103 0.22844997207941947
P 5.02513670917276 5.381406081990872 5.618247150863625 -0.3292045629916782 -0.09717252998795523 -0.2948065451277826
P 1.7062373363253676 8.048611428067758 3.9866558514252883 1.5937713138528424 -0.049076960032309026 0.7766395050828753
P 7.435750919893487 7.413481198815473 9.646536855214734 0.1111387623600602 -0.08127205670761486 0.31465777552575486
Ni 1.582248909975187 9.02513685076142 1.0237442483724244 0.7027403438005639 -1.1610698213170778 -0.014593581543458738
Ni 8.589732411873802 5.53672169060378 10.65840945874383 -0.12058988047063104 -0.690881387579449 -0.04703061902624159
Ni 5.329997372636654 3.5430092151884414 1.9434098658062051 -0.09237176616520221 2.0294339458994597 -1.655722301634342
Ni 4.042960760235424 3.240742992695909 12.40358002883444 -0.30096305164748166 -0.9381261237678682 0.9691842786252535
Ni 7.331474705194036 1.5339609160954162 8.15706460040224 1.13724417965239 0.5520736985492104 0.46887228602936665
Ni 5.8910336915858466 1.6170661231531251 2.805015402797624 2.353490646141611 -2.447673497373623 -0.3727847615754741
Ni 6.2362236011810666 7.67081096505316 12.786451192850716 -0.6363842849728332 -1.452948394164788 -0.19905352119517333
Ni 7.925047714474454 2.828014521871144 10.158797683902351 -0.25503132211237367 0.6735133286146465 1.2615367057855889
Ni 5.963604175695789 3.830973697237423 4.170773447974706 -0.4558841012998149 -0.2656384082042586 0.20878437532969205
Ni 5.488479861154104 8.395832572587175 8.553178492835677 2.1285985666167795 1.01127015205171 -0.9300451465319466
Ni 1.4129916434734737 4.962039166118391 12.627562457348425 -1.1827956430299436 -1.1983909263650394 -2.0339264344531744
Ni 3.193378287418046 2.7300443683227216 9.333015744664948 -0.07422492005284637 1.6443112315839228 0.08180684616516233
Ni 5.633971679042714 1.3315114243551223 10.421913699808192 1.4196312680698968 0.44133602828231083 0.76831504437758
Ni 4.211839478410354 5.492237645763868 3.4159905556467995 -0.38317073279548847 -2.182012720571861 0.4346848415143804
Ni 3.309915774750831 7.921982396316121 9.053223290031452 -1.409300061347218 -0.09279754084871115 -1.4071688739368282
Ni 3.7576922809040116 7.380649056131637 4.660927054378243 0.037341930983567945 0.7625650292676803 0.33033276305885045
Ni 8.540290307241648 6.89674426698581 4.700953461848145 0.36511464662472604 0.6862559729922956 0.31312205560751877
Ni 4.994788212828055 7.671235677810038 10.577492445672643 -0.09509739262648138 -0.10476525473354861 1.393708120446232
Ni 7.67190967848943 1.62331678698804 4.764492336854227 -0.982007912752483 1.2010664163146734 -0.7438692526303898
Ni 5.4945366343826185 8.199236730582975 2.6164373990123906 1.3094656682563834 -1.9257372416397416 0.6226895610945599
Ni 6.525222166464184 6.094646526964544 4.03166801734549 -0.677657175579691 0.8621780503763282 -0.3098549548204728
Ni 3.7801004952723103 5.7813747043372725 11.87575163103006 0.5345529160566278 1.345423317297915 0.3035840342100965
Ni 8.136628530487616 5.523361704534175 2.167432919018674 -1.225029354888174 -0.764847911764586 1.6354504387591833
Ni 0.3634894896850292 6.509590890433888 8.344128410880344 0.6658051613371114 0.20346836243341732 0.6018942216157634
Ni 7.962283943789391 7.696783073424823 6.928451844152524 0.14574169714591031 -0.5395133453856966 0.16105698734674198
P 4.860560515882719 0.06289995929356168 12.031167878100575 -0.23737992757919765 0.16170773355686344 1.066785668620511
Ni 5.156391416819955 0.18552007193571507 4.614724769450182 -0.47519977090929133 0.5854890407848626 0.11593386975585841
P 8.947432882024872 6.788488678412136 0.5507711962731842 -0.4200956308462958 0.30200640531033146 -1.2245845540412716
Ni 3.0291714095687676 0.988029598673432 13.241105275799507 1.457293558507361 -1.0169273503374874 -1.6735840124061112
P 8.460047294849852 3.2014108982546428 6.888831683667462 -0.05579525259274907 0.5509146452441027 -0.0052944156297199145
P 7.4884060688602805 3.267342937316869 2.6953961169589324 -0.21057463446089544 0.21960820541807338 -0.3308181873357012
P 8.891703182013725 3.1304284705399814 12.364553542920406 0.7807908082470876 -1.2269054888649646 -0.6705948694162709
Ni 0.34261116453009116 7.358877910898655 2.5314256009917426 -0.350596398403893 0.5321124249359351 -0.1613439224595415
Ni 2.5111049421523566 5.249154222653618 5.42480433943494 2.4091964243443473 0.394892649218107 -0.2637144517086684
Ni 0.6250026765779586 0.3810042744632176 12.177705781975147 -0.12230069251415067 -0.05693013752814067 -0.37213144426219136
Ni 1.6677823660559132 6.583250855094082 10.407184476741959 0.8670376924614744 -1.2347337266601315 -0.6894569964280964
Ni 4.028603622475759 2.3528902073294593 3.7374030138770906 -1.8149327226906486 0.38481495326713083 1.5105902130479725
Ni 1.8271235129731385 1.2093880409807949 3.250223320060297 0.5483965068079394 0.7355887577891524 -2.432371062688598
Ni 5.676258297010085 7.381175330634726 6.360773387001206 -0.08336287779837256 -1.0972465562135296 -1.1842650284866185
Ni 0.19298947672514807 1.2342429701441493 6.424542160869163 -0.21977507001324087 0.8140097182012174 1.024824493697377
Ni 6.153358449159852 6.147144716869015 8.330696408299792 -0.4268483761890971 0.09604484414141523 0.9379769997845137
Ni 3.357769822987706 4.690906235282186 0.5472996311300112 1.0751150144218131 1.1360043937080178 1.201065644983725
Ni 8.275454204670453 4.005659900718354 4.75361415054655 0.44086680195537625 -0.06313806611106546 -0.06926474783409362
Ni 1.5209333139224988 3.1207524059919893 7.333336055015481 -0.37293465688977706 0.7478691178184023 0.9973869663117145
Ni 8.097924272295646 4.731032357921092 13.52272122542177 0.28223667888257203 1.0371418776121493 -0.3504081936524869
Ni 0.16159027795147213 0.1795657837420125 4.469903259086557 -0.42279271806248475 -1.810864723268862 -0.027213070079682166
Ni 5.449609411013791 5.973612624140468 1.5793082357781112 0.9649918378104608 0.4005647599022198 -1.1441198237263004
Ni 7.201364875413207 8.721522626910103 1.0527115049686755 0.6700240845144654 -0.05974652393101324 0.6080324733030174
Ni 4.945992410217236 1.4003333567413194 8.27123754562554 -0.7491945214980452 0.3983754655603849 -1.2902389588162875
Ni 3.860029589539457 0.22940305589578455 2.12052801146456 -1.8267451419445442 1.325770318953678 0.028438200736034897
Ni 0.5485516104741981 5.409677178981285 6.331368491607651 -1.7848302468783133 -0.7190455087184906 0.5114271286724418
Ni 0.38200419601908364 3.0819004216237142 2.594275702700801 -0.22678955365786105 -0.9843607292553758 0.12013222410792213
Ni 3.9987075375459886 7.740417692750979 0.4862933367589622 1.2769445557002266 0.7109740445642658 -0.6100487324020978
Ni 0.8452679451806628 5.192972111227537 3.8299830085675763 0.15038819477898616 0.8865431094842537 -0.3537598837335391
Ni 5.295807995708012 1.4630892830129836 0.4071758131728923 0.12264239212428554 -0.49590152223301687 -0.6229507851757464
Ni 7.200663176075756 0.4823167327505459 12.3957690072623 -0.3318486854827446 0.9889871722837935 0.21773464254444436
Ni 3.917448907692095 5.588933661041659 9.230408835757746 -0.40533749870051483 -0.6682744488132103 0.34888635769132176
P 5.612431355960209 5.274683152496365 12.980853301136783 0.37254950563621647 -0.5849537371066829 0.8198260677726783
Ni 7.206359866749528 5.299168766218957 6.415299118675465 -0.4060530367103007 -0.1492895623981687 -0.8968473196237392
P 7.348786366479803 8.987005031502633 3.5709331556645365 -0.09257565464589218 -0.5233591042233374 -0.14181228018451705
Ni 0.8616480082671067 3.7859449121223863 9.716184207611038 0.31930864403420495 1.587611979119666 0.08208092576215541
P 2.595493520366717 6.224405507076647 7.56125076968499 -0.41761245941312597 -1.079950231026927 0.6478310933571939
P 2.6286488140612216 4.37077437834274 10.893864671425119 0.2676667514881971 -0.9970486091356893 -1.6294019185722584
P 2.483313955234936 3.986529360886827 3.002444051120744 0.5242093680387746 -0.4372996534294082 0.1273364551658452
Ni 5.135977505831777 3.7646077125323 10.545114560980943 -0.8122382281230915 0.10154494802403803 0.5955999039666193
