# total energy = -340895.5291054548 ev
CRYSTAL
PRIMVEC
9.05849122428039 0.00000000000000 0.00000000000000
0.00000000000000 9.05849122428039 0.00000000000000
0.00000000000000 0.00000000000000 13.25801755306647
PRIMCOORD
 96 1
Ni 6.536072969689055 1.9465701663294412 11.522675579704353 -0.6020955389932922 1.175420176501479 0.5839474073293556
Ni 4.63078234883641 0.23261934254564054 6.2399653782113935 -0.2611893712939695 0.20669818222462466 -0.3619966698210347
Ni 2.845308394216283 1.483962067151362 4.819740668506561 0.2350541076594984 -0.24977958679513115 0.5420062870108794
Ni 3.4636410196817446 4.2619477530104914 4.921469339038383 -0.34956384337432056 0.46334724244607944 -0.31728672850816975
Ni 5.068832877729742 4.495856118887566 2.7958372549333275 0.7886442428532353 0.6649574686248354 -0.7204426461763335
Ni 7.538612450948425 6.298097341156926 2.47292558729463 -0.6026758369767943 -0.9567393679936812 0.468331068813916
Ni 4.893125319333118 4.821291482240515 11.270429203762932 0.5900388649390742 -0.45507626068653884 0.061849943427261224
Ni 5.582929442233717 7.9979504347178745 12.522887028664504 -0.27402920337111514 -0.2621512209866066 0.036725637555807725
Ni 1.8932790612076522 6.24331158494809 0.3959212969197779 0.05802619880579683 0.8225187841134932 -0.9116900410635266
Ni 2.5628827482045313 1.6179643309736678 0.36698485187455565 0.5901635634423964 -0.8163676769104327 -0.00868930024388181
Ni 0.8818740343792376 8.998895621484394 4.688353591162014 -0.38593698268671595 -0.265395181845201 -0.024033901020752157
Ni 8.620921007798898 2.2101269746786594 1.5152990124272956 0.9312509939145898 1.2657078064441427 -0.9478626343293418
Ni 6.651659320420659 0.5598129590864409 4.895403529929434 0.2935145657892364 1.2243778373471044 -1.2632513744838503
Ni 0.8418726420441522 7.349135985568098 2.3932316971824483 -0.17367904698612668 -0.13469212419996804 0.45438566237741745
Ni 7.543069228735254 3.9850659037579668 3.865083467132159 0.8194414307397501 -0.6486101376150636 -0.4874171389110896
Ni 7.897364945805356 3.9920771761299307 12.748538579597078 -1.9322791565233175 -0.530214436582274 -0.04193469256057294
Ni 8.220173346641676 8.889396576998216 6.5135046441237945 -0.22820417461720052 0.34165615849146963 1.3754103505783086
Ni 6.88309471813553 0.707726348208004 0.35563003285871975 -0.25376325403322747 -0.7227658949928714 0.7004127241086519
Ni 1.9286977627249384 6.58694545759726 9.228508450722211 -0.05243276387841937 -0.47735204136560366 -0.1736242824887913
Ni 0.1717363157507985 4.867598490464649 1.46939963631781 -0.39531610990877075 -0.8893098735961135 -0.16349207915079586
Ni 6.30948386489279 1.9227644508339354 6.8769865773598 -0.1278308783037605 0.8404784539157074 1.256470604116591
Ni 3.484729187746257 4.31394349385684 0.650135177201239 0.02781342266784242 0.07359782799180872 -0.3015760026411322
Ni 6.12325939793822 5.7819807330625785 4.629765986097219 -0.5274710695091819 0.23837443028198302 1.320174055812823
Ni 5.235880518312932 2.809726639853137 9.67483934663778 -0.7494824850521092 -0.3676700660567281 -1.0199815637827787
P 0.2933221053608933 5.536903247244118 12.214651928851461 0.3774420578418273 0.49723515344277597 1.9025376635948266
P 3.9615953524456167 6.22737769851103 12.714518509157609 -0.5569330835240409 0.04859256419672276 -0.6088228304147966
P 2.3768575680615673 8.48333158136768 1.3233305560527482 -0.4813994719621 0.1706266333130481 0.15256746181849207
P 6.309094349761014 7.770491714743692 5.979246595229276 0.03599235893420898 -0.8697170390658505 -0.06091946119319185
P 4.685821742805472 1.231746490080825 12.634559205246335 -0.21768964823912187 -1.0186106515771811 -0.1277192924265607
P 4.012676185656864 5.93379199104933 8.415341262191648 0.1292958928850612 0.7540536493625595 -0.21420734611747624
P 4.6863924277659805 1.1250012269913876 3.504902448175668 0.44434833274607344 -1.7134147712498038 0.7966681415989764
P 0.2527509339144428 5.453130318438016 3.6830639519024793 -0.04705838694038348 0.5608738133393437 -0.4109422464818019
Ni 1.3933228018362815 1.0535478465391233 2.6070302120701694 0.31543861955583735 -0.18457409663207566 -0.27154603193794524
Ni 1.8099590569733817 6.420568145380381 4.866713475851288 0.9446788372847216 0.31990539707793936 -0.748934325858123
Ni 6.168760200424494 5.6298161939097975 9.004712984685009 -1.0814538121556472 -0.42889728829832585 1.3434304552376024
Ni 8.492317604872834 2.4261448199683584 10.155933109290624 -0.06848518935559172 0.32112615685891793 0.02366931859248182
Ni 2.42117170816964 5.1494715684987655 6.939392336565143 -0.9006281268224102 0.029194619286085206 1.0479762492234919
Ni 0.6121003833570494 -0.0021414273756231355 8.929208646862275 -0.08042847776039697 -0.13392824945075 0.21142926915170682
Ni 1.1921337070283717 1.0336010483956286 11.226200213474364 0.47159097051211035 0.559464848806959 0.7208401387250682
Ni 3.979232235272767 6.780824349815796 1.757164357182321 0.5665256123084824 0.15611378440885373 -0.9820791323100506
Ni 5.5611981212772035 7.8844203615423885 8.190365474720249 0.7125742991718502 -0.22266010487051976 -0.11009052360120396
Ni 5.343277992785809 2.7765182102463926 4.694027830197929 0.3207710875123443 0.397903925240605 0.8163759044405489
Ni 0.9230331019199265 7.426341508082633 6.827017221047829 -0.21055252297370838 -0.5465411987667554 1.3379907722792699
Ni 4.932411996693851 4.674272166223748 6.810484568326806 0.9568812928881844 -0.5305612783987314 0.5312140814913819
Ni 8.249640619285085 7.18705239829219 9.169430781270693 -0.11957969403856179 0.3246961335983634 1.2595330450919986
Ni 4.832813883347928 0.38440976600208804 10.530989077035231 -1.5996660820707223 0.424380888485211 0.39256091576113683
Ni 8.199891384315025 7.211492208188261 4.76347294309869 0.2027052590151477 -0.08090850272060904 -0.3967237888895748
Ni 7.5037734928830835 6.275632282394044 7.213502287438053 -0.646101512260597 -0.01797766752434323 -2.0434035207056747
Ni 2.292885352443858 5.205742917303211 2.708281500103281 0.17038006451988075 -0.17038829204999686 0.019476877777689038
Ni 2.512463184868159 5.237791860006065 11.26130730288623 -0.8966683708437138 0.2774623974223802 0.9710591270504632
Ni 1.2033934118841227 3.278902145322785 3.8073845000772977 -1.1879784727824638 0.02918510620438845 0.7666996202613441
Ni 3.559443625115714 2.8246550337407297 2.9171349845157373 -0.7173827763040871 -0.29353719149705576 -1.1109284245759965
Ni 0.9168642692515705 3.2544170429695303 8.290437347168309 1.352347298111258 -0.27826818115312724 -0.547631860727773
Ni 3.516171211522855 2.6986423593655458 7.248569519487597 0.7440661991325443 -0.08952195542123292 -0.3934474321311482
Ni 4.10702943246097 6.807401963690915 6.07447942155188 0.5556845558289204 0.2083282616288799 -0.4170393605184753
Ni 0.6509703701116978 7.4373475751781575 11.363579482904253 0.43805890019293586 0.20770991131859068 -0.33036335918646975
P 0.3735250826918141 5.46443531575095 7.994332473238077 0.21325758060969727 0.9963464408623423 0.15720933146587765
P 8.288782360782834 1.5119075132334154 7.990421922484878 0.8283145648596637 0.7632641122172339 -0.2231956656590156
P 1.5894572584225426 3.1473909666455566 10.474218605352627 1.1280260034882315 -0.5336823405262163 -0.3418003973788178
P 3.9963256086137178 6.172908989502477 3.814251742435419 0.04822669621687178 -0.04841412963732953 1.0862157523206646
P 6.765832546488147 3.9801471429078683 10.502007339532826 1.53922150363142 0.5423047920879047 -0.10435362111742674
P 6.381181824613844 7.794723179336719 10.395757575924973 0.5173185544562123 -0.454000768234173 -0.7679373493231871
P 2.623148891732537 8.414958088003877 5.930828052651259 -0.8649715539610651 1.089009513015718 -0.6746032192447156
P 6.93171164167601 4.024180469781405 1.6517769619592366 0.5380138780220346 0.9774879133949425 -0.6277147822232931
Ni 5.423644928811733 2.929796943845881 0.44094018766162163 -0.25928649784430186 0.606356114041859 -0.43405594968112987
Ni 1.4036041896168747 1.1854032478909438 6.958775696541277 0.06535127171230036 -0.3344123324448628 -0.2855785987716114
Ni 6.771457869670304 0.7206292634103626 9.319087024144666 0.5280541957061615 0.2516220393205086 -1.367701411969825
Ni 2.716750283747402 1.5459312070694582 9.26150762917677 0.20464052836464755 -0.4502873239383277 0.38977178305177385
Ni 6.477473588585392 2.034192953996119 2.417546499896694 -0.8162362935388909 -0.7257707432574663 1.5416974759757383
Ni 4.276658743103605 7.0878438000780415 10.494755111288647 -0.762870476323241 -0.5705411612257787 -0.47040672039602205
Ni 8.100229861529044 7.176145974602468 0.2256941258423246 -0.2185568813354236 -0.3332432518374261 -0.22821625880205862
Ni 7.766913610626216 3.898022859543235 8.205878141305504 -1.5389613079914979 -0.17276604825355407 -0.48357436812623167
Ni 3.0280181664934345 8.526006134525721 12.476603572518105 0.43509210425512806 -0.5557424056500494 -0.6266542021692627
Ni 0.2587385967540659 4.913090234459486 10.155906839665459 -0.6334244310135607 -0.351584216238459 -0.35650402213757953
Ni 8.406877913642388 2.2554013148790166 5.766323130614335 0.9902282437797462 0.706397480937177 -0.44421694937453177
Ni 3.515446532207924 2.8627641072147 11.701857975416075 -0.1341205679672142 -0.1966629094758097 -0.4613451244143861
Ni 1.097191658280884 3.423937651714925 12.639875633870503 0.7573893986040117 -0.18554134564135144 0.24276073227513673
Ni 3.2281655347861298 8.25057364390306 8.092416006815794 -0.5292415311460433 0.586771507041712 0.20369796194572018
Ni 5.740402257368373 7.934124304055266 3.578338732403414 -1.1991324325167543 -0.2841097275355688 -0.6192558528226626
Ni 3.1314480217170595 8.369747157243577 3.4336148381166938 0.13408945761896263 0.0995006639004996 0.9924478771388843
Ni 3.2669721121007216 4.060477844968045 9.28033389192955 -0.2590119040266765 0.38306146091113386 -0.36830204321377213
Ni 7.285500083225659 5.989465479418957 11.369572580838737 -0.2388853084801305 0.24505698450848118 -0.10392039023475007
Ni 0.5363704890975445 -0.10369073977700044 0.12133034015158138 0.38548266875811676 0.5302193216782805 0.6143327044894323
Ni 4.538711841874339 0.19151915519928994 1.46951830255563 0.1640556649637497 0.5162088663318013 -0.5185120605436812
Ni 5.859349308422973 5.665570059610239 0.35640906312227133 0.561156120466453 -0.29455483412829275 0.6276499904236288
Ni 7.943626661572307 0.05165242402089966 11.257171195696257 0.6349629791452742 -1.2396386201609166 0.4553320854510868
Ni -0.0370057492169866 4.924938741258619 5.8476738188102795 0.24882339352944885 -1.1561381883434154 -0.10807606427433644
Ni 7.944958259813495 8.75795786625248 2.6823887081807722 0.01395903328325338 0.11810156683113854 -0.6049564054808548
P 8.380671697916172 1.5660863505159957 3.609535271062079 0.4262709064190724 0.17022425566830685 1.1856279702724162
P 1.8396437334112707 3.134781546565745 1.6309750422241225 -0.9310404205656805 0.859672767455971 -0.004961200660017262
P 4.746549869396747 1.1180443055680436 8.286447081690467 -0.22030008927877548 -0.42244150537065317 0.10541702938493458
P 8.48376638895664 1.7452361356585453 12.579326865409673 0.6912086890118805 0.039867525618899086 -0.33129101320706167
P 6.246626992813902 7.7535070432999795 1.419270850556554 0.5852620123757211 -0.048627016979083997 -0.3256201880745295
P 1.801498425971554 3.182320509625264 6.0532001193180545 -0.6029802555910906 -0.32769044033999695 -0.8246245176025863
P 6.871671960433919 4.07478120294651 6.014499526353272 -0.0516596331578207 -0.22779176967013026 0.2119144363182415
P 2.38292675732412 8.521313835961537 10.22466260136789 0.27750044974916727 0.18381073610348989 0.31763845542063357
