# total energy = -381167.69736843236 ev
CRYSTAL
PRIMVEC
9.22750986673896 0.00000000000000 0.00000000000000
0.00000000000000 9.22750986673896 0.00000000000000
0.00000000000000 0.00000000000000 13.50539342096203
PRIMCOORD
 96 1
Ni 2.7269136306796318 5.14267563836753 12.149748363827198 -0.4622676362286555 0.48687335059247755 0.6500676959971966
Ni 4.193838510924736 3.8871806850977997 3.1269169434040878 0.9193879239284166 0.338547694769475 1.43143854511747
Ni 1.6498141200937446 8.62831201664124 0.21718973845436054 -0.37431302529454247 -0.37741840369274354 0.9366963332998771
Ni 3.247215985780815 6.440654045737318 8.917030641096343 -0.3638257526099734 -0.16512884342327047 -0.8530156671507697
Ni 1.0683056939574433 1.272335158250748 9.002992274829035 0.06288738355284007 -0.5437708351104699 0.30422501022820503
Ni 8.57125832491651 1.895090552203569 10.636185804669735 -0.29479883181829875 -0.06321957008127821 1.216979230890188
Ni 3.235386318500999 1.398678219401484 10.226688307339813 0.5312094535056916 -0.34739100409271784 0.6601258515641469
Ni 9.235906612356356 6.00449735048375 1.0342497243555575 1.4124100677311093 -0.4976390737494139 -0.19948803762943063
Ni 3.4238120640968233 0.24630160842401122 5.744775252128566 0.6529036227840949 0.48895671548406755 0.531720074593523
Ni 2.243733546613316 3.1292330483083264 2.1858475335245933 -0.7878076058845529 -0.6837229221577967 -0.7433804859194294
Ni 0.09632689524237867 4.188495782878703 11.91328235786306 -1.1714331668292728 1.2361799721883548 -0.08273809973018008
Ni 3.985435207091156 7.574511967741418 13.482744247296967 0.7963680938600542 -0.4876932753906117 0.19390694399722733
Ni 5.161582805494163 8.177871136559938 4.6917327817651495 -0.9047439487629967 -1.2425375389752664 -0.5973235715259454
Ni 8.652543456794747 8.671413713883066 12.95192806778188 -1.954494259167776 2.2981432797195582 0.1746763779023895
Ni 0.8291498689511309 1.6898984217033557 0.5008138548710962 1.59233895228169 1.2281920688868717 -1.3512867180572277
Ni 6.6302055475017365 8.926572808751613 10.160823266718442 -0.29965487435901944 0.9149946799567275 0.322044040687497
Ni 7.876712906441871 6.700140842598247 8.418586410685041 2.687512685126591 0.1284404868633014 0.9732149970512014
Ni 8.062582631884412 2.393006969066972 5.75807855268809 -0.13527499328663153 -0.6609010391672746 -0.9540929315097697
Ni 8.529725304303051 7.842783353721213 1.8052662829612578 1.3689836211163584 0.39391434446523776 2.0972388213585753
Ni 2.6011703576515073 6.981404562064767 6.6568352173947325 1.1423143950864456 0.6457505566790814 -0.24102292364842362
Ni 1.690378252201445 7.629618654945054 2.55119601127551 0.3183236544131163 -0.23879377720758876 -0.7877029619858886
Ni 2.0134795000975174 3.4907761011090126 9.253881801015547 0.48116344469189387 -1.359695253835897 1.6560454893017154
Ni 8.277611287595455 0.7629406422224746 1.454760254367583 -3.4279780542817537 0.8654790897251031 -1.0044271609879476
Ni 3.5278706896151446 1.960642780250226 7.896089753806057 -0.24353874809174184 -1.123282061045343 -1.5081564067954993
P 8.724979406987071 2.763583753745146 2.216639732988514 1.110219828544746 0.4295562620385634 0.6537124918386354
Ni 6.094299473703073 3.5685270968186313 5.042211127830089 -0.2971922717511398 -0.30881648625362945 -0.7922165335855259
P 7.471616008430005 1.2705542489020705 12.712207519189356 0.4739910953131708 0.3552904614454526 -0.6349750633301322
Ni 8.642236328595407 2.699323377039499 7.893970194855843 -0.5806818492042064 0.5208543355236126 1.9597807043776958
P 4.48599069169405 3.314226160340897 9.176077285750372 0.4613541232754506 0.26081270468084117 0.6410737200287023
P 1.1542230356441585 0.0993922739244028 11.192972809893902 -0.39378321820401213 2.0541551027952236 1.2373274555292368
P 7.7217092005398795 5.3684635702472665 5.115370514773377 -1.4358886104690238 0.6890471625841875 -0.46859434977763165
Ni 4.4813031168281015 8.200395487441398 10.00480822576663 -0.8573780578845235 1.583961269740956 0.08235963334483881
Ni 7.138235314863328 6.093838098224141 11.116356797862453 -0.36443638961077884 -0.24197500314904777 -0.4279030427058566
Ni 5.980136725196141 0.5997226072935783 0.5948975425349075 -1.587890172481717 0.6648613093666033 -0.04610142234375286
Ni 8.618650814112403 7.609558049121092 4.078466958663002 0.01453676016359432 0.6714708442633209 0.46398359047849774
Ni 1.467432393271929 8.504792573421568 4.6930569293896855 0.8684407434565883 0.08721978965061752 0.5672432072007972
Ni 8.014055159010347 3.111091764476721 0.1631765111357925 1.0488432252094775 0.4287214248420939 0.5474652532429217
Ni 4.322672999661704 5.110969915455324 7.003721293980707 -1.2526113782715007 -2.8208827480810257 3.582950525997313
Ni 2.6588976575754777 7.757152064831436 11.542100248556526 0.5717675774337121 -0.49441053950978714 0.37284158295533854
Ni 4.439345630774026 7.216290818389043 2.2059976461914688 0.3028654108765171 -1.2726153321972533 1.0373627353737036
Ni 5.881817610635735 6.56023334236691 8.996050419373024 -2.350494796738081 -0.7352444870758563 1.5788889974243712
Ni 6.253178733628093 8.77599830744737 2.69793186859504 -0.1287886142313395 0.38126605957360793 0.4876336257972698
Ni 6.711573726966182 3.81092454593992 11.760860509141171 0.467309312417621 -0.8098172773864246 -0.7559128140584852
Ni 6.051428464200713 8.902867336644087 8.007199119393416 0.2871616269880151 1.2498024480677958 -0.49655201133282234
Ni 3.069457241257898 2.9786308644753468 13.362735871471967 1.116673811700206 -1.5649155659634146 0.13250000164465567
Ni 5.114845469478352 7.114695937928219 6.939070593619882 -2.4050818879553417 0.8293026398045459 -0.5569490243636408
Ni 1.4242291934247377 2.2525089082226026 6.5639178869416615 0.16475551924425172 0.30389616613387666 -0.6586245844282721
Ni 7.36718828252854 5.509773651934557 13.382304651035389 1.8491607906355831 -0.1852518394253906 -0.625439098815239
Ni 2.232642080099791 5.431302910477804 2.894732501884438 0.3186440138670125 -0.2649709498235888 0.2895303843305078
Ni 6.770731290874842 3.7362463109199884 2.482102265052571 0.9779028894451739 0.9119204119067779 1.086714032113322
Ni 9.146289039328606 4.421804135065032 6.2373978467467035 0.06921229732960338 -0.3070254557914777 2.312890870342378
Ni 0.5410679426569543 7.0158877653601435 12.38447221598289 1.3177317649199178 -3.847321637453374 -0.7545799541796747
Ni 0.8586345303077586 3.8261591642542543 4.230307474281436 0.5261844894872745 -3.2672748507300056 -0.8154850171951633
Ni 7.105929803828511 7.439384317471817 6.330950029858785 1.5942801351684608 -0.9368709112045285 -1.5606688748719186
Ni 8.6065996866027 9.048920358254799 5.8900264031568925 -0.2684398822087957 1.9300991181528633 0.45372437464433474
Ni 1.3790697615468743 9.097503196186338 7.1117099158285715 1.3607054402679664 0.9424874860603575 0.8106001782990362
P 2.2607583017859065 6.481356590488698 0.5619294963123432 -1.0923822861426928 -0.7272545268918443 0.517269960606464
Ni 1.6501186279098399 2.6623856561962036 11.579780783920901 0.24886144585623593 -1.230953690792409 -0.6473446406390787
P 3.2137939460869815 6.904437904669333 4.5057772404835275 -0.8454576522978536 0.6411325982910958 -1.1717345001197756
Ni 1.1048558593984357 5.978614186115666 5.080148187960751 1.5981090219962477 1.1427378557771093 -0.5513419625895085
P 9.190322715037874 4.894335673077596 8.507938231436926 -0.36162874495865466 -0.1962494760874749 0.6648728793308292
P 4.115469272073348 2.330518274200424 5.598727767023602 1.0523370972953487 -0.2788777897126681 0.40975645370381697
P 4.190498152457268 6.158642897994928 10.763001314310896 0.6680114249598108 -0.4560293686284276 1.2543584428695946
Ni 0.34455889867024136 7.175975829039966 6.9039977524624305 -1.282629779010462 -1.4792708341094007 0.29736942075895234
Ni 1.9510830803267551 4.751539962348145 7.5504604640246935 -0.040432139873117466 1.3736830834745566 -1.744326887447628
Ni 3.4711584157448243 0.4509299380889694 12.96007226773599 0.8756318618883888 2.053908019781424 -0.9444577224128508
Ni 3.74206886946411 0.16959793505156795 2.9852857443834613 -0.2035745489939784 -1.3587979388326081 0.7893674941725051
Ni 6.91557550873075 4.403469073532275 9.314804587506599 0.6466278170777122 -0.7795348243527995 0.4446000437455633
Ni 1.250429050511057 4.185017011767556 0.5157411971164617 -0.950154258576996 0.6034798209353284 -0.7810000960444163
Ni 5.522489160133922 1.285170624074636 11.879735746789914 -0.41559748586562617 0.4516098994044932 -1.2506108029017042
Ni 6.711499906889553 7.744205868892604 0.7218929886128533 -1.4445665978589959 -2.4061134145436496 0.10948580013766951
Ni 0.8938651618790053 0.6475755492174463 2.6149820939888158 1.6485311832025418 -0.0927548605362338 1.4518878141107574
Ni 6.2817471032835615 0.5415754556837795 5.753526622212948 -0.37400037915013007 1.3556686491750072 0.5586012152550832
Ni 3.739143748927681 4.8434090477130844 1.0538443409457992 0.03017189559768997 0.9946770235797191 0.30185471022381566
Ni 5.340790269020927 1.9661977410165672 2.459291861374173 0.05268833153265119 -1.2892732524689086 0.7863880998292069
Ni 5.169416961126427 5.546434547490493 12.854662734815356 -0.20915744239839465 0.22544589514577304 -2.180364129224845
Ni 8.438234546830838 7.933489772879242 10.662399313880734 1.9968809516641028 -0.2608975510851636 -0.3056067210670801
Ni 5.995980359142666 2.930860047386729 7.335251871876867 -0.9337804452046629 -1.7413030130196399 0.48230989959151127
Ni 5.691214172779351 3.2253744706081746 0.4123100422494883 -1.3578484304351455 0.007867575673534839 -0.7457926949053478
Ni 6.043132933089516 8.019757759929945 12.168075120601335 -0.67505984716616 0.08774249492330696 -0.9312491941423768
Ni 7.560153962837054 0.9976506531137986 3.8163401713116234 1.0086373424145532 0.8441600165323527 -0.2538691834834725
Ni 2.5690124867699473 1.899039926303227 3.964481378339981 0.17683713299913417 -0.2106499677835211 2.1353009183376197
Ni 6.246544154241051 1.9244248051540647 9.524948199646712 -0.18584422159375089 0.5567279094917702 0.2408943684903593
Ni 6.602033960758149 6.562623267347778 3.724976753471595 -0.4327218042507386 -0.9738886260794583 -1.609628335489757
Ni 8.979806311510787 5.4421083241943915 3.3251764459578688 -1.8007006382516666 0.3588768932451303 -1.9526721183573728
Ni 6.687831344820342 5.010002505645847 7.092668027062089 0.9385498415688481 1.4863683643861305 -1.513517928217729
Ni 2.9227859765054185 4.058323305252832 5.418512659450851 -0.3454732182447147 0.40754504787479495 -0.4358320677449462
Ni 4.811241949321946 5.612429695996924 5.0196978499601235 0.7132186176240685 0.6162813435753709 -2.3222070055369812
P 0.4862639177674969 1.2972771166418111 4.73300558660849 0.34758075150602075 0.5393575365341227 0.02742415764922374
Ni 1.3169409395538927 5.531227611704893 10.282533195309743 -0.7468010815652042 0.5659689684740641 -0.8945556953760851
P 3.765940436744051 8.702002908136258 7.834397393016144 -0.4375549639733239 -0.07072667709160078 0.6631204154160967
Ni 1.4012065570260315 8.023827091654125 9.650818812307019 -0.19655209492955827 -0.8295258115589456 -2.629152757130459
P 3.5380763152091204 1.4182959047656722 1.3672862318149515 -0.3130503218293189 0.7502718137226241 -0.8060508683654569
P 8.127138288896576 0.627626596259385 8.810986255516697 -0.18855853520112043 0.45264116888248496 -0.19715604706214432
P 6.006730407801781 5.478907632394007 1.4214563267963563 -1.5775214276528833 0.7157133590214643 1.4149510889854082
Ni 4.393678685869338 3.532465989385307 11.45940699871659 -0.11637198573454151 -0.3213737540933498 -1.2116675888692876
