# total energy = -340869.1448366363 ev
CRYSTAL
PRIMVEC
9.28661259993153 0.00000000000000 0.00000000000000

0.00000000000000 9.28661259993153 0.00000000000000

0.00000000000000 0.00000000000000 13.59189624518223

PRIMCOORD
 96 1
Ni 2.346671214268913 6.216569728154138 1.4876465731631707 1.6277083329199191 -0.032376359448176496 -0.45767770286512793
Ni 2.783977788544215 8.851980292760016 3.334119488523853 0.3003804396711343 1.6168991581195573 -0.9413891107898562
Ni 4.3711527006145445 2.8766953259739156 10.810572336014957 -0.19620499600278468 -0.3958850950383634 0.2866702891738934
Ni 5.630445191407786 3.208598850386727 7.077123874309426 1.1286083583542628 0.34640884268510663 -0.4706630593812023
Ni 8.37210388759752 4.253287017015009 4.363093778440918 0.1468470143949471 0.19181046647951483 1.1950063261635226
Ni 6.881342584661319 7.828874213169657 6.966689337890505 -0.17861119418042143 0.5832629796678213 -0.2608798104733507
Ni 0.9758000764185946 5.255637518064164 10.776375314797896 1.9316669768606154 -2.2693219846124917 1.4347472977757292
Ni 5.432566056035985 0.5512607367645219 11.315579242783873 -0.673060300237628 -0.6183055730942513 0.323039828941863
Ni 1.5456358951509537 8.484165438495376 8.797231998472851 0.4995110939611462 -0.4738265447108485 0.2783609979772496
Ni 0.5052780758487403 7.3233667579965465 2.0393140635474265 -0.6524688492395215 3.72655795040904 -1.4829554820498396
Ni 0.8046041642335678 5.483270959317853 13.511078338357937 0.9577732085748344 -2.128975490340224 0.3987230787077907
Ni 5.659568007651731 4.722762416376097 5.005338242114495 -0.6149921924503021 -0.8487952013115189 0.5459429030611244
Ni 6.04082987655962 0.7211871690450373 7.612684664281215 -0.2798077577261052 0.9745828239330054 -1.7567656274316132
Ni 1.883696443533706 2.277495239077222 10.80930842807784 0.764645823056109 1.991347680550699 -0.04743968153920217
Ni 0.6120369711103429 0.9131823068491847 12.81983492208617 0.44949233884085815 0.4071920354107504 -0.9374843764188113
Ni 4.4907642673307455 3.579376133982304 13.318942972707717 0.10345682033477022 -0.677992961652555 -0.43227803184510066
Ni 5.659809459572121 4.4020399731998 9.08804412068024 0.11610921899145808 0.021502392848150066 1.2194510894694481
Ni 6.431006893297289 1.2546584712442213 2.1999028071374807 0.768434857784896 -0.3623478825128663 -0.18847497434837862
Ni 7.226748843391317 2.359691044745319 13.067710392219617 -0.8867089456381568 -0.28903236164816676 0.4838903567047538
Ni 3.358456913437917 5.159613946647587 9.819329551964966 -0.524699934521948 -1.2894380601815472 -1.4844225535136693
Ni 4.583166059941475 4.3574828072755505 1.815401767851438 -0.05514090683820181 0.5485661996165843 2.0074217032944266
Ni 6.550776332422975 2.08130626714815 9.507802712310593 1.017662942951931 0.65665691917894 0.6355111383392603
Ni 4.894592604182764 7.118318357911631 4.988701276138403 0.3155319506005921 0.6793327635099009 -0.04398848976580811
Ni 3.05601980992499 1.1225471243416847 12.431270061247718 0.48848029006828136 -0.46846605172988354 0.15992647328672457
P 7.015914883829368 4.000393990243613 10.790470534981269 0.34137873646036687 -0.14054498343631924 0.03202026166033841
P 4.989557501794554 1.5687874196714109 13.248320143316151 0.979490802757584 -1.2012793036564278 0.6071017339586319
P 4.567165226909486 2.3126543533309127 8.674851163962025 -0.16475911878867755 -0.4751360075508914 0.46352053479915006
P 7.15226092595105 6.260318958806313 5.245588474869786 0.28904316028144417 0.7303889587557679 1.2921703715110455
P 7.936468903540302 1.1721562073694753 3.874995006727915 -0.13827084269016188 0.686185010545044 -0.9771351580412139
P 4.304679129608756 6.598583812660165 2.222152601601405 0.8623996794688308 0.5551515661435859 0.6280089164249443
P 4.230971287603594 0.45373366281290173 5.601682695721962 0.5582528307767288 -0.28732566336970516 0.45017702361270856
P 6.37213905778378 6.538945188323873 9.218363151404498 -0.06756267754132236 -0.18963248499158952 -0.47549724754505207
Ni 0.4601061361887292 9.131813781879524 3.6166674544252833 -0.8436704784904437 -0.11163010017418194 0.5739345031780437
Ni 8.612487847570257 3.9913581164536396 8.905967084836721 -0.9438468283017293 -0.5071902077729588 0.06054665123480541
Ni 2.6640969100706564 6.7374465267212935 3.796433981122917 -0.5567335659187251 -1.9006291337182044 -0.07596221445892724
Ni 0.37483181853566144 1.4601619153329484 9.285793243479523 -0.31940686017496606 0.09873653204096544 -0.09852595869205613
Ni 7.226953148862417 8.393620968349184 4.426676427030655 -0.20662413445357963 -0.09782199064649605 -0.781289602260377
Ni 3.408186722425903 0.7197319568940724 9.597577322295233 0.18281906161418193 -0.9373504219441081 1.4078126781684142
Ni 1.746096708748462 1.8578982345012833 3.18579093052221 1.4968260693843447 -0.16862708638451604 -0.9555116662341674
Ni 4.4480458506463885 1.4715473020405616 3.5191998147925285 -0.30496214550454576 0.032779765534182256 0.0204019606951197
Ni 7.801395127306828 5.059253527276315 12.805672838294072 -0.1855032933145644 -1.4576900226148315 -2.518862715923939
Ni 8.909232257729377 2.746274142514108 11.27966977025451 -1.2039283112435009 0.6079792514675787 0.4390631730877341
Ni 1.0858928655040416 5.707579793360019 8.413179502561993 1.7108485531845248 0.7582355486543909 0.6813536505946717
Ni 5.05363512682109 8.58660605902693 2.726697035076653 1.4129903657146117 -0.7068463955491375 0.07035978067048526
Ni 6.711425438993127 7.128403618894068 11.237806650565071 -0.934784460989145 -0.3190399637538506 0.9166548412679698
Ni 1.0212673303504671 2.308001760557247 7.055077456655369 -1.5613175641995112 0.16177252535652786 1.7773069419180747
Ni 3.5897492799467443 2.6461458884509033 5.3877321490645205 -0.4108496867679956 -0.2408581159357852 2.4735930454528625
Ni 3.0275191967066655 6.553525169670491 11.549876757040323 -1.1770682536278632 1.0441748731995306 1.379865558136185
Ni 9.180280611591625 6.904299090323001 6.863826176498269 0.3094276374750671 1.3591630354815107 -1.184988022695572
Ni 9.033691436078021 6.463770061571727 4.059097452719011 0.516430238313988 1.0999153612949444 1.4551703415167712
Ni 8.122786206570359 5.520463841670212 1.5049354593243163 0.8343165480793696 -0.23551844889042667 0.5825870366467193
Ni 8.635713664989296 6.378528247061788 9.886391894192013 -1.8465176965857812 1.1059505117454307 -1.043333608245158
Ni 4.222891934882857 8.535325385781055 7.662240813618766 -0.43816534386381306 -0.918055064049606 -0.3276922401122098
Ni 3.6499822474716885 8.417821880062105 0.7021496137835304 -0.7966928241893247 -0.3017680640472803 0.44265269021120546
Ni 0.8322058333790563 4.540382636970858 6.479555445197829 -1.0661536914634673 0.021449428123027574 -0.7472489677359002
Ni 4.5557891268141955 7.490572212866514 9.996323096223044 -0.1432767805451855 0.30784152393486985 -0.43443518739741954
P 7.70284559733848 7.656152510580013 1.970865230100602 -1.4774003565595655 1.6095799987503245 -0.6954533232208474
P 1.4102278008738636 7.757274432161745 5.338488958562243 -0.2968174049102243 0.06004091524298046 -0.18909126777613885
P 7.5111513457735875 0.9272143780687638 11.086080121114557 0.876710182554232 0.030173181149270617 0.45877350703246794
P 1.4624371353520065 3.6213051886192327 8.91266830428877 0.24840507504510767 -1.0029459484567307 0.7117757145299548
P 8.129611866627533 3.1053595811954224 6.4040394997734404 -0.458931629876887 0.32458249083863455 0.4953983573443532
P 4.077556452032815 3.7260303157821673 3.8054048486266323 0.013744860389918265 0.7254388138393442 -1.8336557530214483
P 1.7724056814586324 0.02671479766867192 11.063014962088701 0.515464531966609 -0.32644911173372815 -0.8050669071856329
P 2.9214196509199732 4.351799400534067 12.083874610158201 -0.6897868689636893 0.21454313219034019 -0.74429759841706
Ni 6.539511671675557 6.2241290305848045 3.0982859685892326 -1.5791659052348417 0.040559923700233376 0.2055519844353234
Ni 6.759353645190511 8.635193614699224 9.344849597223183 0.9615660999583632 1.080150005742559 0.01565853247286336
Ni 6.736174260833087 3.5218920037048753 3.042545864106004 -1.257606260382931 0.29814897923745426 -1.795802686729417
Ni 6.186908288395477 6.333423171010501 0.35190410137218103 0.661601407668409 2.018839201102749 0.40683773739512513
Ni 3.2927727044795567 3.7511877485643246 7.603021015498228 -0.5990392686654715 1.698000750687579 0.012603547696623455
Ni 2.0760407579611866 0.7354495482502191 5.366434232363671 -0.5563160187653322 -1.4018628883428825 0.09319991849345238
Ni 9.001550470829203 8.695175843691455 10.738481293215173 -0.23913830503120104 -0.6004628884858756 0.06994377617898921
Ni 4.095906797982443 5.906935500091128 0.03968448043853572 -2.086090260940923 0.26910348393472366 -0.7323733361756484
Ni 8.547750873068809 0.6466193867387948 5.983261238110056 -0.8109832726700678 -1.245949907090925 1.6653886210795126
Ni 5.067685771265315 5.106893848491696 11.527667823670617 1.5553019541330504 0.6216336090262198 -0.3280542514373189
Ni 5.938937166155106 8.81168568189188 0.1795139308424569 -0.6916974557228409 2.5463902319202467 1.635120052002958
Ni 2.915745530790812 1.4461577039503373 7.474604811638888 1.7739783917654737 -2.056788940873645 -0.08923193498463988
Ni 7.226145213590343 5.594691733965444 7.559445444496485 2.386208962310239 -1.6945446738181784 -0.6371419890744641
Ni 9.05000801392898 2.6951699149023653 2.2875972159618403 -0.6869902800551588 0.1495531004722005 0.18560382344817067
Ni 1.726492670135271 4.1002715057741055 4.297499649622087 0.7555855126260536 0.9613282729159445 -1.4078437885166657
Ni 1.5110154044119788 7.823339392225336 13.235910443269344 -0.5470932146154835 0.4612582211275346 -1.0590296788241762
Ni 7.758138087107755 7.976791374245407 13.031964364067134 3.226940155666701 -0.7289758804583252 -0.3169583986344735
Ni 6.44397100409976 2.3149481465746167 5.125857110854621 0.19326879619259615 -0.921480030570755 -0.4681274374435421
Ni 5.052065689338557 5.68811505393167 7.225737531309377 -1.3764555040133715 0.675523931286772 -1.3119768647140115
Ni 8.54761157388397 0.26386423056941727 0.9075230452997397 -0.4349422089408252 0.27634833842259504 2.4640691651228273
Ni 2.293644657906374 3.7120911106858148 1.256576156688856 -1.1852644162854105 0.45970013261179543 0.15603228043864095
Ni 2.7764742057874847 5.912600333607967 5.9223698497714325 0.1340318649081498 -0.015360027395838064 0.8562341740880672
Ni 0.3710614539326508 2.3297138601676877 5.01070683269824 -0.47732375923082954 0.8170202228927671 -3.0064444054373514
Ni 3.3055603696478957 1.6186286680072688 1.1910730366707876 0.4708255531009956 -0.8171256381223798 0.5963516945309794
P -0.0025222439068416217 2.868857425173568 0.1045078204345835 0.733710309819517 0.3266691981643342 -0.3641502258289277
P 1.5655556785831162 9.294784541530348 1.2652535672431742 0.3790155729765343 1.0637167998872004 0.6302182653714372
P 8.884418429603159 9.154036645167714 8.149198260677311 -1.5262104360837327 -1.2333016221992952 -1.0099586323291379
P 3.2369323045832434 6.36525767805267 8.013550571802295 -1.0715674062798708 1.642671639097971 0.6161849272068227
P 4.670980266064797 7.804701161293704 12.42868745436078 0.031844912424738706 -1.0940568456316384 -1.720620544969624
P 6.544089971550641 4.305505638105475 0.8578554566143161 -0.9690971182280856 -2.605132997177094 0.3281110728171833
P 0.6766002859613555 5.3541963346448345 2.3913992538598996 2.092955363491873 -4.3551916449021775 2.0244082105500945
P 9.20560520339559 6.630706204684337 12.073422527989019 -0.7319863851498748 1.4665163626572097 -1.7102780253930352
