# total energy = -340862.339010071 ev
CRYSTAL
PRIMVEC
9.36766810062310 0.00000000000000 0.00000000000000

0.00000000000000 9.36766810062310 0.00000000000000

0.00000000000000 0.00000000000000 13.71052916366754

PRIMCOORD
 96 1
Ni 1.1821341258066733 6.467334931268323 5.710709325030319 -0.9552980075614645 -0.9114203323419078 0.3671265348484322
Ni 7.58431692625169 3.6948518119501315 2.581486673575086 -0.013695238098905445 0.8338871738514347 0.9681234414609068
Ni 3.533278274575527 3.219508235477522 7.371548146581982 -0.7370401455236983 -0.16103230475639363 -1.3710952681427224
Ni 4.0348419537331734 2.993841113761716 11.238493387051875 2.434634147691162 0.13991506316180422 0.19175878730597298
Ni 3.5319949040618255 6.286192335476768 6.217724986954201 -0.013029579490448528 -0.15834987282822405 -0.7622963489873259
Ni 1.1322887644679516 2.020100129909788 7.742006628480452 3.1216527098810944 4.016248771576812 -2.2184529656767666
Ni 3.727900944594937 6.966566061098146 8.195002696212288 1.0349770087503465 -0.18270387619255632 2.6611244249410495
Ni 2.701223268969825 1.8964094418593314 9.832903845940233 -1.596212319194167 -0.5962858742900504 -1.1466449041409994
Ni 3.3853815324564254 1.243773381136271 5.921083728763516 0.7609856005957023 1.2253944515370767 -1.4533487149270001
Ni 6.347222692387457 5.158090918597316 0.46360776202322973 -0.6073940683880701 -0.9987180264183124 0.15692959544192972
Ni 5.237875346810414 8.258451784996245 10.054602823498348 0.9852264196897806 -0.8860880242247062 0.2543479228921039
Ni 1.9643062994017206 3.9762284551621563 11.321935889612421 -0.3114796349080894 -0.3053300703669257 -0.3647168969656751
Ni 7.1117930178420306 4.750625464331129 4.639286983283348 -0.0681468321795665 -2.3721987640740756 -1.9682627737067777
Ni 6.483278702175766 7.03252381136801 8.112931620244487 0.6320401490715244 -0.14691566284935342 2.4662648872225654
Ni 2.82255330468851 3.8842941615748203 2.484717726541609 -0.2805780602332265 -0.4235239398015545 -0.30189456232281553
Ni 4.9016510075566275 1.8733743462885895 13.239764504315389 0.7402272850024284 -1.6947889286185005 -0.5481008299443916
Ni -0.057524038784568396 4.293108560030591 7.107881079692237 0.9714872157268172 0.18765016445423813 -0.0947045280634369
Ni 0.5397088231853246 -0.004171422552928543 12.788481783057684 0.6250806870345557 -0.618283204496748 0.4320237497424495
Ni 7.3820877098299045 6.673367420891297 12.690658036609296 1.967533094629605 -0.2708464347677594 -0.47782332457506743
Ni 3.395170745498892 -0.09416941916813266 11.186667700701502 -0.5844287178411484 0.7172398229683197 0.06610691893140228
Ni 4.603993357389763 6.937741746713774 4.35225695244345 0.21225227927363444 0.2537136317422147 -2.713303163827134
Ni 6.881385856126714 7.480579371005495 4.224488518519896 1.1320037571890569 -0.09395839392603172 -0.3462345218907715
Ni 9.011434305155573 0.6714463380333691 10.639439450426044 -0.7857118996977888 1.3753260183946185 1.9798502214340614
Ni 0.4356789966980531 4.063610062109647 4.675578265817148 -0.667477921053844 -0.010660565037639704 -0.1608888371999939
P 1.2578810891190026 9.137850984589146 2.3833014794216565 -0.38145452143533015 -0.5829120240863058 0.9014223405889314
P 5.408188918413364 4.037090194049147 12.61582535769213 0.7931138485888147 -0.08126074385370521 -1.133886061813434
P 7.038219353501808 -0.168762285784929 2.8498703612943825 -0.8922226763675344 1.0388555178691463 0.5180829434260625
P 2.2136829887830607 5.152526523815283 7.4499864409058905 -0.7171194953403714 -0.5971654486815264 0.7956427856582555
P 2.6724738959293184 2.5674154994974887 4.424250291194903 0.31806731542793604 -0.3061417676349438 -0.8608295067682336
P 5.384966469482958 0.20512850966259327 7.24091414302236 0.916707548882776 0.23802707424489328 -1.2142723734819862
P 6.7084399698204775 0.8599622252945172 10.81786823280286 -0.08976852421440024 -0.3605247132611985 -0.516378044919814
P 7.240692129291158 5.901359167058044 2.729300043449136 -0.06317637554816861 0.08016622523794581 -0.27361268465898686
Ni 2.714056974106838 8.193880449587898 5.036439571866807 -0.24512151919782948 1.0938527000406324 -0.002765992780911365
Ni 2.50780902812025 0.17673229770505386 0.6777357903173038 0.9578228308658473 -0.33889787902004215 -2.497936764404549
Ni 7.830939521245964 9.179415327430702 0.8150077234098354 0.2340449496686937 1.0608070824395732 -1.3515983357603756
Ni 6.865048643163975 3.26326461262715 10.536129997606682 -1.086908150401999 0.026966501286514847 -0.2374622028803588
Ni 1.2686258042957577 1.8713040916642973 1.4551398209088917 0.9995099261919883 0.020869387249841477 1.0040198982472
Ni 8.67716780851028 7.844382124801887 2.4903252125963653 0.07617098803562365 -0.46368637095305304 -0.821458975390411
Ni 5.249912800168853 4.841716667799976 2.657224269219432 -0.48749272934403143 -0.33196927022100897 0.10935235988359876
Ni 8.804137180354864 1.2941245965460866 3.18407877839818 -0.48075335373766875 -0.8343150054174728 -0.12180035583896442
Ni 9.046553692424672 4.652480406870918 11.154352056459782 -1.6503332694082868 0.11315270746629544 0.4759798436084254
Ni 1.2503682193964591 7.3985185994724745 8.135087091791604 -0.08583987858395539 0.639165447262396 -0.47290120468310165
Ni 7.1949217035251385 2.0531211595506442 12.702736707706862 1.1370032672861774 -0.07385622385951797 -0.1751638590617693
Ni 4.961650920989162 3.245775176502475 5.029063470096818 -1.04937570067418 0.9564861143322947 0.10664344559286795
Ni 0.938921361958293 5.496216894451697 9.552413384119422 0.9438648260238583 0.15496321574417826 -1.3259839776263806
Ni 8.391884847749251 2.596633255937157 8.693544365678548 -0.4002654834942461 0.8685456444655687 1.0769037308911196
Ni 4.905341868742016 0.9126637886013231 9.136792438107044 -0.6791350456767982 1.933945745592463 0.8631064757278684
Ni 1.4064897740048288 7.089713424405577 1.0238954782340954 -0.4571071750736385 0.7090829981891401 1.0104085753823633
Ni 7.059690048519353 4.476349513450387 8.025979052490626 -0.4866897738267619 0.9820768183172055 1.678138207435697
Ni 3.286084251834277 9.0300665967742 7.347431085359178 -0.9922504164160975 -1.092564577356828 1.7960060609894746
Ni 6.206042568212324 2.7430311711789424 6.925750194928452 -0.7338599480235038 -1.5790052112872612 0.0716036803799154
Ni 6.430651143446028 8.852755377187783 12.550152384528957 -0.8343124343143116 0.8441461325752818 0.15463925674585624
Ni 8.521299180937456 5.801462355684971 0.9694815052199566 1.2080572458102097 -0.3147025127207612 0.17221248974292921
Ni 7.617141234864899 8.03081745300396 10.560329494307739 0.29669553462037934 -0.5119318362230023 -0.30941529617989294
Ni 8.500699679042352 2.4079403197511255 1.1194072842242238 -1.0416364230483932 -1.0054766852983845 -2.8734538373095226
Ni 0.9125101588463983 7.36451396469338 11.331025337856541 -0.32258242968947026 -0.5194523129697635 -1.756113338559595
P 5.818483408410484 6.020572109812521 10.18276844654439 -0.12283651041296265 0.9992173346522341 -1.084400810599113
P 5.059421271730044 3.262177963141096 8.836847203418678 1.6838177743189777 -0.6209193565680144 0.7868766094298513
P 8.287472820408263 4.160865191111452 13.065612999139713 -0.8847842178116181 -0.7596200877067435 0.8195874693993112
P 5.08767415836744 2.7304222900735264 1.5066638683502065 -0.2732036221460263 1.2554282788950055 1.2943702073758416
P 9.318768756349105 7.3732165282497935 13.173953826432863 -0.7021114519673134 -0.05272612674912209 1.0781933962368206
P 0.9677550440106488 9.174431728063627 6.537893143284745 0.4295449491846537 -0.6298248865877605 -0.958782109455323
P 3.098103258414971 5.4207041228389485 12.394880477406666 0.047320639462834636 0.723488889201825 0.07948282601767602
P 0.4470757015664404 2.842028686425628 10.21276746649386 0.7327181211095769 -0.4249316187823585 0.27776244516130233
Ni 5.894286577730712 1.9512477702331101 3.321992396747562 2.0695470118702617 1.9882695558460084 -0.04105074729372285
Ni 5.9776775581173505 7.412485792435458 1.427773115662708 0.06982807653673134 0.01602799999714014 -0.016863094303925796
Ni 8.105037486435025 8.742029541626104 6.135146183381707 -0.3347260070305397 -1.5360927281944512 0.35162381122714287
Ni 5.600900584164198 7.711529857463839 6.165281971283731 -0.12027157789926383 1.6003499955116245 0.9272863528398868
Ni 5.44655888647264 0.5944722102152378 1.4745533760373197 0.4077903311163815 -2.05950351159133 -1.0894684549300075
Ni 7.6613191570737715 5.9811061245992105 6.236590533505611 1.1857858360065192 2.618116811031271 1.6084122036944688
Ni 3.49976075853156 1.4386208751872784 2.5757424195677743 -0.1470413897939403 0.32681369416199846 1.043429510393074
Ni 3.54532509560195 5.899598045477199 0.9475855180759747 0.453477034520219 0.495859870361804 0.08666520269872816
Ni 0.50212011863585 5.880862709510756 3.0536499267673913 0.8975137495631446 -0.8731206654307608 0.6493727268127011
Ni 2.7343192399545466 7.54886967060318 12.81048737191707 -0.32735876803219105 -0.6138945885107492 0.30791222927180517
Ni 0.21617017991441648 9.840641539694374 8.559936127534254 -2.1063166152901274 -3.141156584241977 -2.111379374525016
Ni 3.432678888103711 4.4717031501307085 9.384089505196107 -0.9023335395492911 1.2299818137974432 0.3409627319688709
Ni 2.7563051567111674 4.644349271061482 4.796450222571453 -0.22239476702427505 0.10431222635653002 0.7295245538729436
Ni 3.642570856935772 8.327987984435698 2.2096989195897967 -0.05040647747700996 -1.5271987681389312 1.0570064777465604
Ni 5.275130562379686 9.483077652774812 4.249428060991628 -1.0637386542640712 -2.019327710703393 0.7604562104547935
Ni 8.220606406344029 1.4950704424541714 6.7609363811984515 0.24423808815161163 0.9559083874519536 -1.8894376358777591
Ni 0.8397430507195319 1.6981146459904979 5.222532043420696 0.12583955890534457 -0.759869227603072 0.44484764097999513
Ni 1.055164753962089 4.753248411366433 13.401960054844078 0.36205940473817 0.44495562731276916 1.0760645228192758
Ni 7.332186142483283 9.792960109659779 8.62445781430229 -2.3179194339052214 -0.9560901644454568 0.5599003936824809
Ni 0.6214126865681845 2.2223012433276246 12.845312614411492 0.3254268411168008 1.4254620158190612 -0.8923445466573793
Ni 5.253922162065673 6.542866438217038 12.215148652413383 -2.2365851565011026 -0.16905568928150239 0.07828366350325228
Ni 3.5994421135410204 3.61682850531788 13.853529426742071 -1.6093236597651446 0.7255820242854278 -0.06771334418657371
Ni 3.332116972303828 6.946369368926322 10.497247618108725 -0.566930818166701 -1.1122630842270198 0.2837891109713564
Ni 0.34996389788477783 8.378451611861312 4.387808189206574 0.9528711432875268 0.7539914286660563 0.6511668425986463
P 0.6120356509169798 3.85448624205221 1.8858286608722825 -0.2811421602668126 1.6706264724396842 0.24080592254161112
P 5.494586920222616 5.510643103145858 5.7737509202570045 0.002255885913712244 -1.040486882824982 0.5093856727623807
P 2.850843661997839 1.650377009948001 12.54900016136702 -1.8418100066974665 -0.16910634001377972 -0.5514936576760244
P 4.478663327442243 8.41790822940664 13.476956667950953 1.1639661690282663 0.8848888617102825 1.5599085996671265
P 8.581636330417385 6.195972325130362 8.249487863503099 0.1955930734503986 -0.072130756527979 0.0809666096520541
P 3.2271428848838477 5.935373169505122 3.1837218702480192 -0.7418591641788966 0.7234881178708766 -2.022129441818246
P 1.419267273133943 8.923134666745726 9.797009752528925 3.20413678461894 -1.634672165832262 2.852088998480501
P 8.128550333072912 2.595668386134885 4.84059816824278 -0.4018983911119788 0.5437037293179604 -0.2160881080799569
