# total energy = -381173.9231209481 ev
CRYSTAL
PRIMVEC
9.24367981153934 0.00000000000000 0.00000000000000
0.00000000000000 9.24367981153934 0.00000000000000
0.00000000000000 0.00000000000000 13.52905976966025
PRIMCOORD
 96 1
Ni 1.8794711641440203 8.04385002846736 0.5764756105841726 0.2865167943151646 -0.7731991119427587 0.6854800140582195
Ni 1.1088163483277107 -0.2554352215141954 12.342046442506629 -1.4357873090044693 1.2219193485042827 -1.8043292361431893
Ni 3.9536049779656937 1.174298574944193 2.7816829530586404 -1.3319641064692158 -0.95640075370734 -1.0420107756686763
Ni 4.057420744076607 2.6076605156638704 12.594972929364738 0.19759390593051132 1.1474766560136753 -1.407530628151621
Ni 2.7077788099161455 0.7106411500787531 4.6477997732172245 0.5774065208870443 0.4452104236360526 -0.0024425480032216
Ni 6.004768247865577 7.009907485277074 2.168857496632196 -0.45174848186488653 0.08154845029745311 0.41855091206699535
Ni 7.025778883230279 6.827261619139994 9.88649529726731 0.9677400899795592 -0.047616573436698645 1.1632480599153192
Ni 5.489516300684701 3.0174420780770927 3.01087906552801 -0.30088540433201083 -0.4750552749116271 -0.27274930821742704
Ni 6.061866457042598 5.242719297800249 3.9279463720026744 -0.012004480660043842 0.9103800640028514 -1.2150874131841136
Ni 5.115147274997586 2.847025600112459 9.166235174148309 -1.9154487152295399 -1.3990326179829389 0.1884433497794948
Ni 8.173446417112629 0.517931689910425 13.197502775400803 -0.10351184194242175 -0.5249195067319218 0.325985027613116
Ni 6.2814130923288864 7.758811922884944 4.822121705832545 -0.17532069635460773 0.042786241927590826 0.47618116098595403
Ni 0.27074552811285146 6.886217807925981 8.412044276150551 -0.49855104404072204 0.14988271589747737 -0.1283227303385145
Ni 5.2113647364389974 4.774249613310791 1.2784082900678682 1.4558102890936153 0.014348555412188192 -1.332502495471189
Ni 6.170424230812215 1.835009065043896 11.373826461603635 0.6211926648340592 -0.11111330843876346 -0.6545961799951695
Ni 1.0648626516081494 2.92869350979013 1.8268154674051538 -0.5334501699107523 0.2775192188022446 0.5347789160245048
Ni 4.301916070729058 0.35162495191666765 11.89320663611468 0.19386092125064033 -1.5316925422442265 1.2511052260396196
Ni 1.2455950760583838 6.4432699229407735 12.502907728820576 -0.19844236997373566 0.21433410150332763 -0.5655758468007034
Ni 3.353412858512251 7.30070440327932 2.391815974076043 -0.3290230431084914 0.19891622428636063 -0.2253926733103344
Ni 7.68198770134209 8.65206566185405 8.454038312785036 0.06012679008856742 -0.07427891321923337 -0.8201523407638456
Ni 1.6601556208488966 4.92059554947569 7.643580212410486 0.23657105852465707 0.9198823470663319 0.8230260627672147
Ni 8.273952945910063 6.986585681528714 -0.11326003360584008 -0.9870380189772227 0.3634580848579095 -0.5164148116950203
Ni 7.029947782750893 3.8615009539670164 9.87441380796921 0.741646019726826 0.23673638045792778 -1.2587892249474386
Ni 3.530531004220667 3.0141420844432583 1.326854415095675 0.6049168104921712 0.9170029686360078 0.3892951005256715
P 3.37774222334209 7.641038200507672 12.238414625620681 0.13349373301649267 -0.7250315510985965 1.9436174643542723
Ni 7.4065537789124845 2.682894824307511 13.35958145432421 0.21178176739511914 0.5665194416608953 -0.18882413015768126
P 7.619426477493932 2.1819613368992097 5.22229816072499 -0.18138927114619086 0.5161425318702401 -0.05897185054851779
Ni 2.37532987142634 8.137701107919245 10.443866070757899 0.1571684509256132 0.5674355257172614 -0.4825490121855109
P 2.063864085734306 -0.09095503461860525 2.366529888402781 -0.009668890548331735 0.6601474488307018 0.7062797244123901
P 6.361786886856034 8.590789309476769 0.6677865268691718 0.9495755032553903 -0.13024051618651764 -0.7842633401767204
P 5.617615213227221 5.281265441926552 8.944318459400634 -0.3567469913863211 -0.13876012362175458 -0.030427206141605666
Ni 6.72535005103628 3.004916892155956 7.387217849827737 1.117193431649102 -0.7052083457250823 0.4800666120832894
Ni 9.211567103503178 3.2990415348309767 7.110887290472412 -0.9138009167589424 1.4246138088861529 -1.9265332551784757
Ni 7.7618623371683215 0.2442642346612848 3.9328436734794403 0.2877421820818335 0.33727165627052885 0.8554132208486687
Ni 7.81217568548474 4.565194554423388 5.448260834053981 0.8484419317371582 0.17360011411907522 0.44692149278988835
Ni 5.657353792027934 7.290610305105238 8.025072417633266 -0.18346877938303888 0.8410132433732549 -0.3691407370649836
Ni 4.695105228176641 6.789242364753547 10.656028854742488 0.8760548083584202 0.6936532938976312 -0.7085181268246056
Ni 8.848466123305263 8.912922301480974 1.9481036367840618 0.723870955131592 -0.3461350201984297 -0.6126856558043126
Ni 4.975216452507422 9.196564611436754 9.583174117711891 1.553409622206344 -0.8422280896169624 1.2720085518511899
Ni 3.778141450914019 7.689280964583253 4.54564232323491 0.7309265764267928 0.8873337237063492 0.41254712907507657
Ni 7.69667590830053 5.394047577294663 1.853778356566308 -0.549059594313235 -0.3335173314344192 -0.39173276343288665
Ni 4.010952766493172 4.327678205904118 7.216373389495466 0.2567146233520675 0.3888865522333431 0.3816283280090331
Ni 3.6024653192304728 4.628735608314086 9.43490919365236 -0.5977987113901511 1.1365301843045006 1.4963696985732162
Ni 5.465565926720372 4.263637993312505 11.478283739082022 0.18901850555667446 0.952303957930147 0.8572484742851946
Ni 2.2063369201272818 2.808692060618028 8.36321823588927 0.6349457527540936 1.9052139248754092 2.202172483349188
Ni 6.57981755868028 8.549876783360936 11.983269655647389 -0.4975166892389367 -0.38759123046068733 -0.6202590972761963
Ni 7.830126911358429 3.5067100417713903 3.33535995216245 0.36821899658166257 -0.9470661065699755 0.25624282592197156
Ni 5.806907285030202 0.1592029701853488 2.6043170767356965 1.6314978818693386 -1.3128420409277841 0.4316000319414696
Ni 5.730369617556392 3.6000434751630643 5.499643676105511 -1.1296779372693575 -1.541584604546958 -1.5182035066188564
Ni 2.848772655565666 2.8995204568254747 3.5300290724158563 -0.5889572018391211 1.1918654665416957 1.7077552589711815
Ni 2.955592617561723 6.549932742382838 6.359010085490196 -0.23439976190495115 -2.27861189455485 -0.8051970050055939
Ni 1.8099771805609155 8.512393662393992 6.143329157032115 -0.48570786952946676 -0.06719063891388427 1.6954872402371057
Ni 3.361251498852564 5.463855845985752 11.94019318412629 -0.5431213744519291 -1.5599669637088875 0.8393669660190834
Ni 5.443658405957941 6.731210543932221 13.231758003435157 -0.3858364525531097 -0.3559031553287871 -0.25417257365650425
Ni 1.5079214607491158 5.789935889199053 10.076213502702 1.030626702201451 0.230538479177332 -0.6582060088336148
Ni 2.646678087452149 1.1403095648836614 0.192752905462667 -1.4355996184736954 0.18467077011094002 0.4114749790568204
P 0.27516955319171205 4.793615122170409 3.0722469303337925 0.013639702270621673 -0.10024731225853703 -0.42286548028194915
Ni 1.0931667986860247 9.043600200644892 8.546834688389241 -0.5175139582964701 -0.7768657621610685 -1.5057138587922778
P 7.506542661649708 4.601845744222139 12.627252783058614 -1.616344828277984 1.3244845102627187 0.24157391105588716
Ni 0.5851609719801137 1.663797630629655 4.357709996707943 -0.9290868963837353 0.6636019830382056 -0.30219769538553115
P 3.6112560585743845 4.622801165980971 5.0689732464269115 0.2276390461423499 0.015893274191488758 -0.2049017524458342
P 9.44870446115694 7.498519147716462 10.788424229584745 -0.711298260672904 0.20012104322773921 -0.3913329568913067
P -0.01463366924852526 4.060859392905141 9.064145203027417 0.5356605472985096 0.4885553662805909 0.4957305438727913
Ni 0.8239113517322044 8.474392895366838 4.045919757860314 0.14416741068025493 -0.5869779666255632 -0.5235452520922145
Ni 5.3452409487606385 0.8619518665818386 7.4225832437876464 0.7711136901686396 -0.09124150921550092 -1.2203471189211563
Ni 2.6449864940768224 5.508918784262905 0.9478284236026044 -0.396594205290246 -0.2264519678127842 -0.7604029886193548
Ni 8.611347253010797 0.5906267597551457 6.438019512901507 0.14820429975378993 -0.4007835607812452 -0.5807476694451353
Ni 8.702332791772236 5.072922146371937 10.980049406130526 0.6809376461031756 1.958641705677246 0.3881895261663185
Ni 1.6513648815049842 3.629614006352523 10.938636796945815 1.5517270922975985 -0.11121563834458265 0.5219624809861269
Ni 1.5166290069762087 3.8443909029411683 5.296356673317583 -0.22729708942189886 -0.40720514803687285 0.6569430829607913
Ni 3.8413312449781456 2.358746710140348 6.112578207951786 -0.9145321384980121 -1.0779604542904082 -0.22824042717177467
Ni 4.0848005231898235 8.793863707632823 0.755133753321711 1.7280101525654756 -1.14971377287431 -0.16409885949685932
Ni 0.48145428128903006 6.626017469553965 1.731015820283768 0.5684061171606468 -0.5694304446601032 1.4153460104309816
Ni 0.14092174494827697 4.693321198004848 0.1951997074651208 0.3115781081591666 -0.36354036015907065 0.03509915769597826
Ni 1.3467763934700174 1.3503167227746633 10.102920341936944 1.7830307317757292 0.15472667425333997 2.0072584382436847
Ni 3.250937425950094 0.8089319688648965 8.46940777893343 -0.8209707229000829 -0.6683610949897457 -0.8084412229745044
Ni 8.280201673351161 6.776070121257148 4.000854046479266 0.02426298631242273 -0.5021667864164383 -0.3316753931296739
Ni 1.7801663137006452 5.85119375421704 4.143179906365861 0.5875096707593173 1.3640990393305477 -0.7646735909702508
Ni 8.409372852732686 0.36346148370413317 10.648763322540264 -0.3429933892456544 -0.9655114577593565 0.25933483458373396
Ni 3.3208011567190625 7.111088802688708 8.503216537240853 -0.548957521517732 0.34505130021594765 0.6850205579232976
Ni 0.36553946288868777 6.06300342963913 6.046407327201632 -0.3039658430295475 0.7088174032325794 0.27741123246947064
Ni 0.6403531344140059 2.368979463509129 13.000006013543505 -0.37707516142071185 -0.9400649926617938 -0.3069526935720133
Ni 8.893778640932874 1.6766740763773624 8.559254496362408 -1.0582501203456744 -0.24849840608986234 0.9132987803115432
Ni 7.531740932366327 1.6833572567618509 1.868864041749552 0.4907284626725097 0.03884576922260406 0.5865871589450478
Ni 5.609730354488675 5.772872056571438 6.2190783386320705 0.17349804132357216 0.9208269703677884 -0.4379493711982651
Ni 7.562457679831964 5.440145807692234 7.823016672974267 0.4783912812633955 -0.23176798070905888 -0.19597513938016572
Ni 3.8149867579853485 5.082267506494645 2.8986820550815287 0.04071676099307182 -0.3131516232938736 1.99603968670973
Ni 1.5364474561385095 1.7257302842618445 6.696072544491617 0.01679830250426139 -2.2493141740319973 -2.140883040411087
P 4.188588558261797 8.403401435680985 6.641834329797254 -0.17088837161486697 -0.01129742729069022 0.043380938088796256
Ni 8.800602350095192 2.7130846820332915 10.90024132479775 -1.033014485707337 -0.9805593532314145 0.51494645467961
P 3.534293181836831 1.689800101475528 10.557739884692273 -0.6640156735368565 1.4201652861964962 -1.6812219885673434
Ni 5.4683575179736446 1.5428903008521866 0.6410057381970555 -0.047608603016898655 0.08115815683756991 -0.38967742356575474
P 2.2752115771740646 3.7196659334696562 13.258870640206586 -0.4833535103646772 0.6567677337251915 -0.48882378945062904
P 6.774637350911927 1.3587839333309448 9.108615621439222 0.25482871918326433 0.02260231078054817 0.5319357901487548
P 8.141204462505305 7.655717163786465 6.292162567389912 -0.5087511245021754 -0.26730525438372027 -0.019362720797327943
Ni 5.618918572057391 1.0129409030332228 4.862885408706066 -0.1364751842423198 0.641319003270289 0.3032572469982971
