# total energy = -340854.3974549023 ev
CRYSTAL
PRIMVEC
9.42511701873206 0.00000000000000 0.00000000000000
0.00000000000000 9.42511701873206 0.00000000000000
0.00000000000000 0.00000000000000 13.79461146233768
PRIMCOORD
 96 1
Ni 0.14503652867730954 8.951872496370173 0.27207768137393323 0.7927178987019766 -0.12073874734366948 -2.032077297059578
Ni 8.267184868382472 8.74245582066973 4.077328255458558 0.2567089669251127 1.5721758470702536 -1.1310635047629747
Ni 5.690621770602115 5.546511730930672 10.440534861246407 -0.7618291795429203 1.110228056074862 0.5947542681368726
Ni 5.311892292242561 5.580291350432468 8.127440542927891 0.20791302846833223 -0.28372380495105975 1.03404832628849
Ni 2.646742519323428 3.6968042348129706 9.005508952469732 -0.8694349890490575 1.4391582823592313 -0.8814137586774885
Ni 7.77656040042322 1.7755318249460694 10.971144445772179 1.4255751443581577 -0.16410837257855607 -2.425867714352442
Ni 7.975449220380499 8.328108824983923 10.425526304858387 0.10972568406261747 0.26303053826776635 -0.18238017430455042
Ni 2.964642292252015 -0.21433564428805185 3.1277627930102656 -0.8181448234155134 2.3261117399080264 -0.1899325327305116
Ni 4.100849577564774 1.2715990917143474 11.019452883204226 -0.5126733423747171 1.0142032665381049 1.0299479309668713
Ni 3.583514327890097 2.2589649285973215 7.319931387146174 -1.7499635169081154 -2.8007214426418026 0.8393793073142576
Ni 1.2659157461341066 7.285483526845641 6.174178343286702 -0.3731030641468413 -2.6823607086120065 0.6804514504953765
Ni 7.101722019751192 3.3705632332964686 2.335193390262115 0.004276515888166828 0.1277264915154123 -0.7358427827814875
Ni 7.586031659287954 4.632020899066638 7.792369149248655 0.8226725360825379 -0.43970312066457823 1.063710372129297
Ni 0.6357128347803276 8.430069741214512 2.3935998980999154 0.8159251900563755 0.05941099496846543 1.1811156842243593
Ni 5.148300535631885 0.4402311946360791 7.2349978873753935 0.4197418470513029 -1.1958445057941018 -0.3010579253541331
Ni 0.4945707644674549 4.880485834698985 10.537014129401589 0.8911716093952007 -0.1043857599069428 -1.6676979859389796
Ni 1.5329670125860793 8.451738085308993 9.568080051418647 -0.8101090975952305 -0.04726407519328635 1.1522650785412543
Ni 4.866772289393428 3.131419738425081 9.49674888057225 0.1492895623981687 -0.05507277260442773 0.5167572826361037
Ni 1.7903386838292505 7.003681952212779 13.500165368136532 -0.7745206589676596 1.3489310733408575 3.3102714088961895
Ni 3.191222106097763 8.476469592444236 0.6440719710906351 0.4493689258891164 1.7543225652077592 -0.6733485209020081
Ni 3.9946850591305605 7.700678783065811 10.445237994653603 -0.3230614262084178 0.04359331120991847 -1.757784298504115
Ni 5.2117409984852845 8.53726159740701 2.8005547744845884 -0.8136862734235277 0.5460768575358272 -1.2686746023819506
Ni 4.27400782797967 0.9319046781228277 13.702105098482408 1.0593482385058592 0.5267431902042219 -0.6736467688687172
Ni 1.5111855670870142 0.05150072457637001 5.239386751811921 -2.5124871514148985 -0.259204736763773 -3.051414028169506
P 1.4546914154983532 5.164351509965466 1.0211652491305712 1.2098055959598841 2.003530852880453 -0.7203480295799981
P 5.069761035266802 3.6065964395418537 4.109870357091886 0.8138798774915724 0.6121122997993458 -0.3819839115762389
P 7.692526056818866 8.85307841946788 8.035402389925956 -0.3515633903028526 0.5096916340385739 0.8315207305017874
P 7.983601946627444 7.298273410680445 5.573009505000802 -0.3632097162925293 -0.7747790548353689 0.3035315837056063
P 3.005848903988022 5.641318983321454 10.160062228117381 -0.118340422314822 0.32539058856222675 0.673608202321298
P 8.058559902514101 9.244437554672412 1.8395387373340835 -0.06543097591030021 -1.4640465609604785 0.28207521360404325
P 8.766970550112857 3.7953626837890515 0.7476983055036901 0.27560683227088023 -0.13069483011511687 2.6189141101215863
P 4.804378014532412 6.9230406507458815 0.7740028646743264 -0.29683591685298555 -0.02145637010156305 2.0791099729683484
Ni 7.8547605965745575 3.180043917278251 12.822188423487356 1.6192326913487403 0.7014136545693405 0.4811287347992166
Ni 5.963931314774286 5.857304965604697 13.047288493956492 3.5789316346459072 -2.7986676454365673 0.29990581402756095
Ni 1.1973103191381336 6.6555746791437755 11.52070794068247 0.2998204534026062 1.8930117263822623 -2.54498075316723
Ni 0.011499585310865095 3.961414395949384 3.8684921669683012 1.2198915194409765 -0.5484373873482038 -0.6245099021327503
Ni 4.504423664464153 1.6663041434710957 2.31247320310502 0.02608512712282604 0.3324726922199887 0.5031792868413528
Ni 0.9935864141349787 1.719245025932475 13.310130503134609 -0.5947804933891176 0.5029504586599983 -1.8692508765172389
Ni 1.3809210243598062 1.4182821883400285 10.501147788985257 -1.6807201092302602 -2.4130492224315345 -1.7794743818830385
Ni 7.22186398676832 5.527199666098312 1.3519991101848037 0.4588845786890354 0.16529082292243147 0.02588123864213607
Ni 7.196727199599993 0.46345468304356346 5.942042422940868 -1.4523675819606536 -1.6932650357748062 -2.723419683435845
Ni 6.142405331204531 4.735876263823972 6.008187894387185 -0.6697245509961757 1.107654381810415 -0.03106946771129488
Ni 2.4610111627658444 9.456125683581543 12.016679277543332 -0.030535192474379674 -1.5456963127224863 1.1114519011796342
Ni 5.9355522873412765 0.516583125334208 9.806231081464826 1.166398946839475 1.2646210011378671 -0.24808934357690177
Ni 0.3060731360561391 1.4961525053946694 1.7506325507273632 -2.040783052363692 -0.2914494557300916 1.238675484916699
Ni 2.790343602674252 7.193447258867117 2.3475252134083617 -0.3477836115454462 -3.6693421633196808 0.915293699254385
Ni 2.688599464135781 5.158752990438662 12.707940924672357 0.634848565054597 -0.7113144586228202 -1.0115488596343933
Ni 2.4867040318400337 6.26053974829033 8.084318747407629 0.22222353155373342 0.3902070708169796 0.5233876434684276
Ni 2.08116009547752 9.058442294837471 7.369040017015638 2.1700979714121464 0.5533265971197051 0.2528070607675452
Ni 3.179393584201905 1.2810619092310336 5.089122110707813 2.6288020586592595 1.8646074642079564 -0.33616222525643397
Ni 5.781998280387245 2.525026557759202 6.349604276863464 -0.028842378152989036 -0.25955466390402393 -1.091522766355875
Ni 3.1473104857688385 3.009647226158564 13.349748982647945 2.0188844525183876 -0.5863251635329128 0.3110628590856449
Ni 6.970430139265699 1.3941821640470344 0.9996599595610269 1.246187219912712 -0.5508825064545868 -0.7810476614529
Ni 9.385710634112261 8.973672792103335 6.691172403724225 -3.52345571306579 0.8373211392336484 1.1097086932362823
Ni 2.302292191669239 3.1586771769293196 11.219516072745746 1.3096654429720154 2.1833419809062464 1.0127408230599655
Ni 3.646615486529751 0.2207965620247931 9.061542215834722 -0.48816790103418506 0.8436529949889471 0.0672394898739487
P 8.675000257953672 1.4584049116154592 4.5501665850355995 0.9552581554624645 1.1514826918492749 1.063416237927646
P 0.10030680818857615 3.0436341982354262 11.421703683669996 0.27710115742821956 -1.0930667138042272 0.15259600106358237
P 4.709005255118721 4.247674050946183 11.90921880551495 -0.6314950752013317 -0.3081004340232113 0.19352667783967314
P 3.9489920916794716 7.9994644186200565 7.629854683516623 1.0531552223212701 -1.1627826902431266 -0.1912057430159804
P 7.833045126894833 6.367778730068072 11.488028232340234 -0.15471844672322385 -0.06497203399601069 -0.1190796144736917
P 0.4231246071930661 8.737941189603502 11.70195482654838 -0.35329888493672057 0.6779163427783487 -0.010063297773272993
P 5.571610817630806 2.801031685407242 0.6425253093829776 -2.2731506143299622 1.9001725057967596 -0.6077105711872243
P 5.133446551163462 0.40523196498820896 4.53826171969165 -0.4196901678777611 -0.05489536648629901 1.2390827476574466
Ni 7.731555466516671 0.123195704940839 12.54593730028435 1.022383488356052 0.02231434722648415 0.3251620174911884
Ni 9.263174687364815 5.548095150594819 13.263477116256277 0.6380999821123591 -2.086942324528574 -0.44424137485456394
Ni 6.181387615317094 8.639722044841166 0.29388457468902923 -1.0891010442882598 -0.49774706008218794 0.6117639153209915
Ni 1.8292926925906678 3.167942066987987 1.4604765523427174 -0.5414810106350287 3.3477840611296665 2.311641571316309
Ni 6.773379217132876 1.352315794117633 3.5121633642978978 0.053811132283184744 -0.5627954558420888 -0.15704220976039407
Ni 3.504861726120431 8.15350853166061 5.247774163473374 -0.8314831923956326 0.3327573133399431 -0.022956351685857235
Ni 1.9952030279952726 4.3780422699609245 6.152920934295532 -0.11026972949154557 0.3937461943184896 0.1590481844468293
Ni 8.739543459501744 3.2566795439995397 6.126021650239138 0.3148148699289094 0.1859738051930797 -0.7314176571305984
Ni 7.333174619111011 4.638778707990407 4.235111312432248 -0.1640538651915368 1.2233031162256867 -1.1259284975292545
Ni 4.253838077495897 6.1125654106290055 6.190234972690513 -1.4595515013036024 0.4403656939492416 -0.6625151777319299
Ni 8.503651630012087 6.793398165743874 8.617893473756858 0.12133652882866847 -0.22840112111935504 -0.18776997786155403
Ni 5.729293025852078 7.768417099293323 5.154397643850554 1.760820514227277 0.13518680444819944 0.8458970538281173
Ni 7.678953888269037 4.363207135726598 10.465475605980124 0.34120133034223815 0.5054043195171296 1.2252640966067996
Ni 4.698053269108374 5.931386385605843 3.722710111532456 2.1220589657260485 0.5598047486448811 0.16859983269100642
Ni 7.724043648229023 1.6593766824404539 7.578952453872832 0.7625436891114417 1.0576903911874622 3.0176194482175642
Ni 5.996862673741718 7.9191529962498555 8.772435232977573 -1.2279269881509434 -1.663794022898883 -0.21503061334972
Ni 9.411535454825128 2.978365262674619 8.929445430353287 0.33399324262957314 0.09300759997698821 -0.0935200208370325
Ni 7.99512886477775 7.254324089883327 13.529147603060647 -1.1426303836649676 1.1605630568839884 0.06496329224526232
Ni 2.821437063817227 4.88839350790267 3.661145246971706 -2.2443681428806315 -2.6779224703349946 0.0065714825699306175
Ni 5.9715939349347105 2.4189280151443278 12.108730625709134 -3.42229077408899 -0.5456099452017378 0.9254714111183351
Ni 6.733077416633525 7.050411682539202 3.202198597412436 2.261920292831782 -1.5918386156065036 -0.4334070032432213
Ni 9.346916852340668 6.73217260539687 3.869912532107509 -0.7846250943915132 -1.959947568972863 0.23638079689072194
Ni 4.354837631787537 6.956726019077192 12.463818140464252 -3.132112214651522 2.200815455100661 -0.049654686912649966
Ni 3.9788697127231907 4.9334549925115105 1.5039159743075123 0.2418603319480544 -0.22303420038048688 -0.8751448949496412
P 2.3689089189679806 1.3174899866234548 1.113924423586715 2.4547319468823012 -4.096792177648519 -0.06452183383246952
P 5.700357916513208 9.385211102908691 11.930835311465666 -1.0308331617853022 -0.06690987444867187 0.06528082348568112
P 1.9524978226485554 6.655301350749369 4.391597473300066 1.6275167857344037 0.16569988543539205 -1.4262523729308405
P 0.5460008006659612 5.296783829613828 7.805832928952427 -1.0041872770629996 -1.0477255666652665 -0.03605946472671854
P 1.7693112476940647 2.8459235179092097 4.524936489208492 0.05288039293879926 0.4813817313502871 0.04291248309280997
P 4.210510814423979 4.051395988411337 6.943007761213111 0.2539835975741497 2.2395131287811756 0.4231223334877616
P 6.978384938054626 2.942813721167707 9.201254495891337 -0.5459423888404921 -1.5845788487202968 -1.6555531230463294
P 0.8563199519524459 1.0459052388711578 8.269386575725 -0.0183893011404651 0.6327523446472006 1.1024394132683788
