# total energy = -340855.29182370094 ev
CRYSTAL
PRIMVEC
9.42672026130767 0.00000000000000 0.00000000000000

0.00000000000000 9.42672026130767 0.00000000000000

0.00000000000000 0.00000000000000 13.79695796990451

PRIMCOORD
 96 1
Ni 2.0590785490802994 4.924820420972939 13.56238203080761 1.0831965058783668 0.025476289894233544 0.7362844983045965
Ni 0.897002412952894 8.565646102152217 13.54261136999643 -0.478262468995015 1.3384049769985529 -1.1218520134670358
Ni 9.172632632277567 0.31458285900644745 2.1463511270567013 1.5380837904825508 1.6430583330134283 -0.02392257225386848
Ni 0.934761141737132 4.555490940249517 11.512651017730917 -0.7811165670176226 1.281782343408502 -1.1353914427143674
Ni 2.351533124489663 9.061604718753474 1.47150069370064 0.8974034492375255 0.683927581969435 0.8590572453591593
Ni 8.760062784825074 6.552833897067184 5.116215839739829 0.19037116292982698 1.1711619154457573 -0.7728391575001787
Ni 4.427730597917029 0.17436322024801346 11.336850222613451 -3.1760353983970337 -0.1838673003730382 -1.0644073981963218
Ni 6.862822172523654 3.442685443926525 2.0623835572719744 1.2617135976830853 -0.8824221453373448 -1.278213138000005
Ni 2.1407705085470847 2.782305969141599 7.791239131394278 -0.6750595900558438 -0.34374903646475635 0.299036266938414
Ni 1.8486458683536615 5.35114385356991 7.457642577229222 -1.914443413893477 -0.9594883914937282 0.9880690313448983
Ni 7.983800635481506 9.036463655298833 4.135706823632479 1.3969284271557425 0.4675070302507238 -0.6835059210509842
Ni 5.20439809624018 3.2040291621563197 4.855521770888911 0.3535228280220685 0.6872774722782743 3.2454690677088234
Ni 2.6324871009433974 3.32967791910679 1.460725009548034 2.0736857166289835 -0.7348814473094828 0.017709244354304984
Ni 3.579372890530308 8.279252907995698 4.409093971576637 -0.6691252268492799 0.6895171602420705 -0.13141962409628336
Ni 5.126938734257885 8.440874030204101 1.7095668627703349 -0.6229168466140175 -0.22173322218087618 0.4914391155862891
Ni 5.589055424424136 8.939076206273752 13.096652078690791 1.2396404199331295 -0.7525205005474846 1.2792595769866484
Ni 2.3544648345513024 6.834739972286917 2.938048588473995 -0.7433789432575326 0.9748160229897339 -0.06968126654622192
Ni 6.935049704653183 8.47295315991394 6.064108403071379 0.5743962733058108 -0.35694933720511435 2.2648091843438025
Ni 8.401451485259479 1.7570369989677606 0.16911442229842819 -0.4726888315619795 -1.7739272268125643 1.4444246729644932
Ni 4.621562823921649 0.8130885754747632 6.0661360906413435 -1.8025711158015019 0.2812578599090705 1.215075843219888
Ni 8.763522391232216 5.038836604881404 6.829480804944831 -0.5217861033092627 -0.614344017343342 -0.23760155667170046
Ni 8.282269458541435 9.019137343101747 8.265730277502378 -1.372449468177772 3.097852265027387 2.0350803455519597
Ni 3.0813215419879443 1.534670090144544 13.375295565960897 -0.7357785052024555 0.13793891327203986 -0.9596951081878956
Ni 1.949992539970025 6.909154503562107 12.015411955812816 -0.9262018615264566 0.6262502818626247 -0.4276731860832377
P 4.240779877844876 1.0267866721671632 1.2167699682098296 1.7279363619047468 -1.1771227610148824 1.986807883698817
P 4.566303388611899 6.545584749036956 6.640738065314099 -0.8403730386860947 -0.0415971067154961 -0.8752433682007184
P 1.5883175562564151 3.919281576712322 9.54813001619498 -0.6152693573710888 0.5856682466752042 -0.8229427590247892
P 4.030743119377366 7.438464857134688 11.829732900330102 0.8569201444114984 0.09209562968568011 0.44729250297606193
P 2.5239195614581718 0.5129172867005822 5.344720486251578 -0.5035567247854296 -0.16438682305092334 -0.3019321004289703
P 6.099682018054049 6.66412575876403 2.8247620327287795 0.860282376015512 0.2934991391702687 0.644366017626729
P 5.562236404728429 5.852852769648982 10.232541972108987 0.16989978244935255 -0.42207332339795695 -0.6459819559635971
P 0.30841024245222964 7.577904906111458 2.702382462432253 -0.6250336358467041 -0.04652642569631342 0.7777628200540412
Ni 0.289381464540892 5.187034077161272 3.1795366570690122 0.4032006548631701 1.0399952879005445 1.251608133817967
Ni 8.76250430542303 8.884504921557248 11.343376341184747 -0.38551737865079416 1.2805649260616332 0.36274074707591075
Ni 1.1242118280740665 1.2690910947536211 10.330237674892961 0.39708888553847743 -0.06408397496410254 -1.0393499410070617
Ni 6.503013679460219 1.338377490101056 5.175294039506076 3.4025303036326116 0.14985494798333546 -0.8634797999068871
Ni 7.982594015263211 2.333264140247033 8.065108927425754 0.16457939867770366 0.32087316030784735 -1.8824951431216548
Ni 3.3556485339615088 7.054608800189444 0.24725345082556047 0.3586130980607824 -0.4270748903776065 0.1519768794223447
Ni 5.32296738612862 5.571210642602002 12.509302349946154 -0.5301630145190482 0.281412897429696 -0.6364783873485361
Ni 4.979193744559878 3.0642968848454313 0.8558076445626503 0.5080119323433058 -1.0929471575072274 -4.350250498846818
Ni 9.184736541342344 0.7292265849591374 6.026759736626953 -0.6051489811076352 0.9004311803202558 0.7091413622309012
Ni 1.9711366739515621 8.769103009741833 9.048224431739033 -1.013667705749609 -0.3039193060623282 0.6282416012610406
Ni 3.161533506343226 4.940742151822165 11.197708058003073 2.8087255438932015 3.411389039574822 -1.3094597547191125
Ni 5.971214671687403 4.601465055910666 7.6784210836556985 0.3251658741459303 -0.8228095758810345 0.6373127103243733
Ni 6.351601695505049 1.3853131312486586 11.502785954774307 1.5537860317091563 -0.260418554566216 0.6236588669863646
Ni 6.558735024072285 1.1063199126496541 1.5414516728401828 -0.6237393425153129 -0.6721545005939069 0.18384750287869628
Ni 3.940915900157542 4.60962859582507 9.057771814216295 1.8223482984284294 -1.9277907817346605 -0.6707463073924707
Ni 0.9277288082773788 8.493691944915893 4.925486890109138 -0.28294758890666755 0.45815335694996584 -1.583481759001376
Ni 7.4585814785865825 4.630489928192945 11.308401322951 -0.6187897118195215 0.6272895217604164 0.7499553109234697
Ni 4.471282046421131 1.0213757346257446 3.6931835719328454 -0.4829537038230973 0.6880632014043634 -1.6236141082458877
Ni 5.379885924238527 5.493336504919666 1.1688756295919096 0.3610921557288942 0.12793680775400548 -0.058216717550048126
Ni 4.3305222565806005 5.927107046676431 4.172876382388253 1.578870999702242 0.6967077644532389 -0.496661540327493
Ni 6.468568442916065 3.0061905799581403 9.636292476582375 -1.0560471991570843 0.7600661741052265 0.9052077757732926
Ni 9.015526909167317 2.8921932494905853 10.815642135272316 -1.58343367937226 -1.199670050187779 -0.16060267341814274
Ni 6.1896317846397935 9.15072493393914 9.9200405329791 1.4094108758934694 -0.5884738344447994 -0.7026639820366737
Ni 7.528376916838612 4.299037010259454 3.9431292941204776 0.5593398931933206 0.2259428893868496 1.864364494959215
P 8.004718528172113 9.02379414300673 13.6618725811663 -0.7958641576404423 -0.022233357476903647 -1.081135252473964
P 0.3866454235280074 1.277047246818007 8.107548022916115 1.85923977213814 -0.7533607370605928 -0.4578936755306759
P 1.196316812837676 4.974046755191211 5.424397955557037 -1.010208543556415 1.0540674497228941 -0.5089208173108203
P 3.389914662817009 5.3393604530006185 1.8744543436165468 0.11322778367860499 -0.3628261077008655 -1.065211896375488
P 0.3662111215967646 7.42097829068986 10.223063404691048 1.7526369499752201 -0.7157056457119803 -0.5209517803334254
P 4.192552775994878 3.2480236665218265 7.19896299853963 1.2192451441062293 -1.3439827281966465 0.4107591839367184
P 8.882610150745707 7.538095865628163 7.207324499583599 0.3880709983105833 -3.84976984188355 -3.11706457628978
P 6.892591755721912 2.7449195958153507 13.029777981107902 -1.9192729740716363 2.00542112792463 -0.21522036076302287
Ni 0.517578799965794 3.47151235507924 1.6024199300577433 -2.9661328503024977 0.36648427327874306 1.2893429293645795
Ni 2.768542957276666 2.6632276363485654 5.187518610592681 1.3772556313171636 -1.1635553067430928 1.0339079440558838
Ni 4.687446173184672 3.514894122615144 2.867269943278465 -1.4022230998957785 1.2110937186436885 0.47583406205918044
Ni 2.245331691838751 6.929478512864022 5.760023139964103 0.4708900877903439 -1.480604979539792 -0.24776795568174106
Ni 4.4006759102099355 7.8984793886393785 9.265361396053574 -1.5841777566271362 -0.6537615999090161 0.9905205782091846
Ni 0.7837893856272309 6.463478013870131 0.6980250829236986 -0.2493782375916544 0.4579270998717727 2.556428075772223
Ni 4.07804640262273 1.9372758940756456 9.28896778941807 0.7583489343038037 -0.20824727187929942 -0.5497427364231887
Ni 6.414327093415501 5.698791877245836 5.697868058641204 0.2766458150583558 0.9531621921653843 -1.0872367373860115
Ni 1.6629111952202589 1.9263503250677985 3.3443553228558995 -0.4725142536573282 -0.9467622021763115 -1.06070500964407
Ni 7.654148221155003 8.18241220875703 1.794004825905788 -1.3525324175388707 -1.9158076412308553 0.26383863599135854
Ni 0.4894258993256424 3.0178891400433328 5.138083945852344 -1.8008104243566534 -0.38414955176898996 -0.48408653187595985
Ni 7.969066671409663 5.524048760163469 1.7686318651279436 -0.8008952923064465 0.7341489400188325 -0.9580267193465373
Ni 5.773262968843759 8.467843877427095 4.20062204870473 -0.0350410507645332 -0.6577959178793897 -1.3559998072621808
Ni 3.3763778922430068 4.739048040957714 5.9576920411940835 1.6446968970581157 0.7555978539212278 -0.06395541980603824
Ni 3.317555156601103 8.4469448381774 7.148797762963997 0.8208856193854442 0.23012864533342303 -0.22566032514942427
Ni 7.8050982958078565 6.906128526295914 9.49978508033929 1.3153357538839154 -0.9388406333363896 -0.5708692339891587
Ni 2.4347239325088617 6.103999456022637 9.397522131494657 -2.1448985893283834 4.025721229843621 1.4881203140802306
Ni 0.6044007807044259 2.9383558995608423 13.2007918875781 1.8994191725705027 1.5428470161991492 -2.7983403440041354
Ni 6.895589452826739 7.262383145747649 11.485001503963087 -1.4826657187235626 0.32150513746489146 1.0849919072158927
Ni 4.630857570290706 2.7619348262374075 11.725634569012795 0.8216384383910689 0.6886337291958526 -0.2391874131015816
Ni 8.660761711547538 4.528954722167472 9.054157609593682 0.44827157905987963 -0.05427701617600974 0.7952406651238304
Ni 8.804736013063373 6.775229086051766 12.76362112775306 -0.8727146882415938 5.226823384492238 -1.4400124028294103
Ni 2.5023229448947744 4.48942848329784 3.6834702791755665 -0.5466499564304779 -1.2135347239850134 -0.14104352033929257
Ni 6.134589163900518 7.1353298074493186 7.9820095585949735 0.3245521518213314 0.12490239180305586 -0.6448599265440119
P 7.201703346176025 3.459974049241789 6.064563713669377 -0.20598984330369038 0.4459722415027416 0.3027157726725303
P 5.601508122145764 0.33265293944746754 7.922227182810706 -0.6819745720081223 -1.028539480655119 -0.15401756400145733
P 8.211465361200675 2.0594084842962395 3.73061519351728 0.3319196479299961 -0.6975981374779922 -0.5410063849914553
P 2.1187402628427368 0.20149614973488716 11.865742972469857 0.06288506955999493 -1.0417266687693543 -0.1901698455522983
P 7.794295274165929 1.1969955367104672 9.917405764611804 1.2051472712522664 0.4320561456422817 0.6300030640368375
P 1.1705064522306996 1.437442895367205 0.7258150548263159 0.046349790909133076 -1.0605551143297671 2.0529394852205676
P 8.904857211020529 4.94618136952495 13.058076053243067 -0.2344362715698414 -5.224343555493176 2.130977608371917
P 2.80147991854795 3.447464791197429 12.260749897041832 -1.7965704181333768 -3.8697550267562257 3.3432704895300294
