# total energy = -340875.1531767256 ev
CRYSTAL
PRIMVEC
9.19484742101674 0.00000000000000 0.00000000000000
0.00000000000000 9.19484742101674 0.00000000000000
0.00000000000000 0.00000000000000 13.45758863007764
PRIMCOORD
 96 1
Ni 8.202962229781159 8.127757574746578 11.74711515344096 0.11003344511102339 0.23436170957816413 1.7496673258239352
Ni 1.045757553618772 5.818480901891726 1.6930187060871362 0.2147084541236109 0.09106281754579156 0.4987716446919604
Ni 0.9649072624194731 6.424071926453107 11.526235615147014 0.9994086247274335 0.65092618734275 0.7743926180302276
Ni 7.103166559321914 1.06016587914013 5.8414137702279225 0.8516704659767849 0.5027632823498567 0.2614274554467046
Ni 1.4470666585196477 7.84944794048974 6.539378987951536 -1.3982494599600115 -0.09366837348943868 -0.00044814328101213145
Ni 8.115335336214764 6.195736286585918 7.681254876501717 0.35996884075772845 -1.2179235970813282 -0.28475533153936766
Ni 1.5186301540734 8.685590563087198 10.986667271232449 -1.9440221559918585 0.6323970181903108 -0.180585801408289
Ni 7.996565495270677 1.829618275185954 7.975101044028139 -0.20424200737464823 1.1423866430852778 0.922489959892508
Ni 5.928865042213298 6.2988381079458335 1.1740275106628364 0.24702105021338744 0.45461963276509443 -0.24130548788584893
Ni 0.8465796936244477 1.2960964627728846 1.9669074578228074 0.500236402162945 0.4872944972902962 1.0907303523615666
Ni 5.755992720498522 -0.054757153889464893 1.907747811106523 0.14815699145562225 0.6347868585787262 -0.4340479792613299
Ni 1.903057519563163 4.693316648079943 9.785981140158588 0.29744963917758455 -1.6591778642831103 0.6672827743239025
Ni 6.078630712980292 0.06665252767822107 7.881557266305397 -1.106652680018778 0.764789804833141 0.4784046509998341
Ni 8.289402988062132 7.960218264392612 5.209203663098364 -2.1594644029577004 -1.7431331242498431 1.366605350692169
Ni 4.307188235863025 5.395085774079362 4.8365227148731424 1.6381475259753724 -2.1233401464313175 -1.4873739228325094
Ni 6.384699590854859 1.7958088221278599 13.218460805923051 0.36349613718469653 -0.36886511480609374 0.0106083716434656
Ni 8.60585284839593 5.977616121928832 3.677326492701659 0.6249169077631819 -0.4165161410251536 0.439384818093211
Ni 2.4219411352755293 6.776446054694974 9.186082645482513 0.7076694056710651 2.5745679799060435 0.41920242960806514
Ni 1.6154978690494732 6.760014862795377 4.124091244090975 0.7641837958180258 0.01717059824201559 0.25883038414348974
Ni 5.559140237354455 3.016056990563997 4.294746688152145 -0.1558060233604478 -0.44167387123770385 0.9386709405277446
Ni 3.499218625006117 3.393008945301454 6.246097384041585 0.4089900078514376 0.5835211184252144 0.11329643213301131
Ni 6.791029082312634 5.097338232897092 5.409304685748939 0.5071812089118942 0.8974049918994221 -0.3215951260755365
Ni -0.050331673944710824 2.7757312699821624 0.42287010203873954 -0.5390497754857169 0.7148947197749107 -1.083381111085347
Ni 5.628800399543228 6.662898886945611 12.058187867147515 0.3173749173466018 0.742231974137283 -0.3026682072640465
P 3.0885951399181732 8.217894661591425 4.911239123522794 -0.5805257832423163 0.8561063902609514 -1.042139845047373
P 3.3390168026968503 5.095113079881031 7.932898534469793 -0.8745735958272034 -0.8409389384918936 1.0767458651570168
P 5.979197635642726 5.670342719074496 10.12231301853631 0.6026498688348653 -0.02349345513624986 -0.09167088344343567
P 3.261697332812294 5.7969741543521875 1.3184454583135437 0.6307918784867201 -0.6558313379538512 1.4464627864404442
P 6.540671783464174 5.706460078773216 3.4136789617481758 -2.7569733510215744 -1.7496611551763481 -1.4511478506209394
P 5.846626329090753 0.734228775492398 4.139258144504172 -1.2556157123154632 -0.38488925814849195 -1.5550263318741606
P 0.19479835428543918 5.940468939346644 5.7044969789016085 0.08195597014851692 -0.24593373068647972 0.8120237981194403
P 3.028727489969506 0.9204501763341085 1.4716279342903251 -0.8928371700230817 0.026657454686528283 -1.4790741447175624
Ni 4.705040078226549 4.434279413499407 2.4432786976270693 0.9187320355119726 0.9493379333232874 -1.0149329456152778
Ni 1.3217960606236794 2.985953060916948 7.563097412379406 0.3998219681989243 -0.8544791390701735 -1.2368754555934827
Ni 7.051077750082288 4.261057687592028 8.720261573325478 0.17891869811851122 -0.7878880814135011 0.8170911853400187
Ni 7.181865256282541 4.317311762601388 12.344443688331959 -0.42614877901891124 0.9113750809262692 0.8199350825467169
Ni 8.273118913717319 8.491119545361146 7.538577513421011 2.297152119450882 1.8503350134493424 0.8839704636610711
Ni 5.359897093945197 2.778875907715605 11.295720796499634 -0.6158339716253071 -0.3847920704489954 -0.13389816754376294
Ni 4.882519018375402 1.3260073006292838 6.069856989807044 -1.0785651777539427 0.5301828120133901 0.8095216005228768
Ni 3.025435734681282 1.103105815441816 11.553635340240247 0.8605857661885437 0.7899742745185685 0.2030119916222891
Ni 8.661923026461814 5.627411977619983 10.102383187287082 -1.514757714162101 -0.49775785871546535 -0.8862165793827704
Ni 0.5959566636926645 2.3625608122270734 4.714314001086052 1.2470061162695814 -1.3120982207832241 -0.16876566884490934
Ni 2.0256708066259006 4.950404575059631 13.127635025024887 0.06600073237084118 -2.0024507324423966 -0.42465239697904283
Ni 7.937672499122433 0.927778469531634 3.670167384692131 0.779719943780412 -1.492821833320958 -1.2325212923898452
Ni 1.742809723018027 4.362109058032184 4.819902109121766 -0.49339058288570514 0.9594531673804185 0.34776278560983975
Ni 0.33150182515732096 3.973608375244423 11.787783962490717 0.2936724315233394 -0.482989185046723 -1.152310587067209
Ni 5.230314112724712 8.023478812948415 5.297862218517662 0.7872013397591217 -0.19693930306564794 -0.09491715829487524
Ni 4.490239253399206 9.375617869245664 -0.10408658949223057 -1.0183957073528977 -1.0041785353122512 0.5625964524574053
Ni 1.5361739224810267 2.3249171078975013 9.865811722806312 0.49147048304485685 -1.4620261880963403 1.3224430543526577
Ni 4.032060018728324 2.5293737296543086 13.489482604309927 -1.1776845470556234 -1.1749694621173057 -1.8857162211621137
Ni 6.695025682970899 7.72412217351073 3.3671153361752917 1.0145858466885043 1.142259373478794 0.18653173457907876
Ni 1.1381657677155483 5.541982652528128 7.663585138687808 0.21559908425868032 -0.6951375917526416 -0.8079455142850085
Ni 5.468828448413308 0.18453782432418617 11.29181850335907 0.672162728124023 -0.7652973405971787 -1.249366646081958
Ni 7.915586476210945 4.798330997652011 1.7863068670584459 -0.4956284710772883 -0.30805415416630816 -1.3601364551383737
Ni 8.73450715005186 0.6178679845078503 9.93888685123544 0.2719129283590608 -0.5039542173341642 0.4100593296562164
Ni 1.07255133828325 8.681195426138117 13.629038316775127 0.5378737528997447 0.3869903636518948 -0.7230281475153225
P 6.4445396562620045 3.43020210211951 6.782866816476444 -0.8084895597139367 -1.2886960398091998 -0.7047080090498961
P 3.435066176274454 3.4804151625356785 3.8688275747905703 -0.3185285713350708 -0.5940227892874866 0.5777957859056629
P 6.532755020047524 8.222887463606803 13.347397389387217 0.0038281154968385685 0.7200482389513922 0.4765246603683018
P 6.158184530728084 1.461070410765358 9.57752292091174 0.39329316594147107 0.35814952816080253 0.6136235942375498
P -0.0338324401760287 0.9559330915778359 6.354283036403899 2.2164446769974857 -0.013779570282595625 -0.18229635634149247
P 8.95048491531745 5.611210656899733 13.184574116148697 0.33072177096715294 -0.2008977734927637 0.017847312594066037
P 8.94461860282056 8.05511828207349 2.9711934922335503 1.0566694061221158 0.8628933312757978 0.09197993004342223
P 6.158230504963953 3.68565334630226 0.8001475543661491 -0.9287341410300071 0.709044688752037 -1.1745380310068418
Ni 8.24941459770324 0.5089255962231315 0.686607742494526 -1.3580538615777322 -0.14470065747590563 -0.7417635191412967
Ni 4.609625149103937 2.0596365720859495 2.1308479049929447 2.446381003814445 0.47621741354052816 1.381063177988712
Ni 4.860727230573476 7.42953765975625 9.165990065438306 0.48594492524093735 -1.2868502448497128 0.6592172237069486
Ni 3.7408132344979377 8.19253527308606 7.187697547844889 0.8832330712744144 3.841193413068449 1.6470741390410406
Ni 4.578997113167981 3.9957679569333022 9.41009762666273 -0.4174525367964939 0.34501324788916066 -0.3435999124814018
Ni 0.7765379452779608 -0.10417118208622962 4.5116972682487235 2.765951643260785 2.108561959680878 -0.5673064563385649
Ni 4.537344455470628 4.650670946887819 13.173014354281783 0.7767778304329525 1.4506655116678822 0.7086654510357473
Ni 3.2706531139595834 6.428945195455225 6.314987018037194 -2.101205519315807 -2.6675953773773737 -0.477314760369765
Ni 8.575601801194098 3.793177889152777 6.28022589829661 0.6507696071602276 0.6608223634105393 0.8794463505384725
Ni 2.096857313445527 8.548716068057884 2.489599579234565 0.1810869094144236 -1.9743449753451159 0.07884699220589002
Ni 7.24366382413771 7.8795518701367895 9.689597993628574 -0.6587955627884977 -0.9824532278200176 -0.40010041867129154
Ni 2.7711706257839532 7.0995989586184765 13.235470353709879 0.7489870334729295 1.828410188351793 -0.8236888931621944
Ni 4.408846466216653 6.800279098569485 3.026800250001875 -1.0723886166295855 1.258764285246774 -0.27060886483565655
Ni 7.772128470605184 2.6501940215181534 10.760512649114888 0.06578167438149961 -0.3886266137037372 -0.5654490914148519
Ni 2.4966584634098976 3.3681920527793445 1.6967996272450063 -0.7488623349696071 0.2881481592710005 0.8640081616065314
Ni 7.900139132958946 3.236659763958013 4.0051531374436085 0.02880895381189232 2.0483611218212654 0.3453508337342375
Ni 3.281199603667942 1.0693699211611125 3.779065637710416 0.2181730156334436 0.08004615472031375 -0.20927879846760733
Ni 8.322559606970886 7.362635951719618 1.1350680237026922 -0.6142473438644777 -1.05689823430347 -1.1933145402833962
Ni 3.925344622429102 0.3802988791087231 9.1320371727643 0.5301236766406805 0.7966817684457312 1.9698925960007172
Ni 2.492097819211689 1.0761924977640782 5.888220139766195 -1.4709962528054343 -0.5169837968246128 1.725569918555099
Ni 7.1883660132344245 2.459382552967278 2.047302604087003 0.03885271120113954 -1.50313092855645 -0.4666158858950222
Ni 3.690122042028731 5.530930446225209 11.26048890058375 -0.3050950715379842 0.803171747045449 -1.3532075892290245
Ni 5.395453567966314 5.458410686565381 7.252684888699933 -0.32697387388894655 -0.012636714927404044 0.9540247972759955
Ni 1.6652971613428207 0.13446544506977676 8.451607448085856 -0.6983949223476746 0.26480125701494395 -0.38391043917499046
P 3.2787445794725345 1.8402199339773553 7.8231653893281266 -0.6818398462024708 0.2042723463919514 -0.559710646269178
P 6.518659319330076 7.349459735719551 7.104785771909222 -2.0927013384995377 -0.07636510632430074 -0.730487174896529
P 0.39519637049972783 3.545257224805377 2.444436328886252 0.029837909297038934 -0.32393894371736465 1.0908005434778698
P 3.4018635831298316 7.893233802731417 11.217990316946407 2.2514435616701745 -0.15241885205576977 -0.34450776900765184
P 0.17020489654965337 1.3089140797331738 12.112434707018833 -0.07496694042519346 -0.6441366752247423 -0.1663442038876103
P 0.33485242746745686 7.589399272720086 9.3795082090849 -0.7044023048840191 0.14054601187758375 -0.1226984421732016
P 0.016924955192829466 3.6339966948798033 9.100828941971676 -1.3683850683004108 0.7145118825141952 0.4791973221044586
P 3.049480260040791 3.3528090734575633 11.476537466172578 -0.07260769616439754 0.23118099785733734 -0.1408979959003638
