# total energy = -381170.72491829394 ev
CRYSTAL
PRIMVEC
9.24136030256042 0.00000000000000 0.00000000000000
0.00000000000000 9.24136030256042 0.00000000000000
0.00000000000000 0.00000000000000 13.52566493381047
PRIMCOORD
 96 1
Ni 1.21268825913764 3.4433955234751163 9.989204404261345 0.07857831192553565 -0.1714126195494532 -0.45638289531310433
Ni 1.3729149633756483 8.00310115990618 4.439068919559281 -1.3513486816434146 0.8887182627587017 0.1740721686594873
Ni 7.6870466389153 4.660806117707093 8.018447362758737 1.9029246146206003 0.2882456040808133 0.3098181880452664
Ni 6.932526538891281 3.839276914416851 6.053438447339647 -1.3988834939995842 -0.256717451565545 -1.094945933104811
Ni 2.079306059150529 4.584620343699818 5.782681377813354 -0.26676506560953406 -0.11598194938497446 0.059945013095064496
Ni 6.614965676177549 5.419364692165995 2.9205563252417814 0.34280004228792577 -0.06761821336960613 -0.6240972400753638
Ni 3.2018633316441907 8.268642405700096 3.2845587198206467 0.6666284285693552 1.7151368961472333 -0.3380805253250693
Ni 5.146319461838611 5.233197489670051 4.583199022491385 -0.5846773435168446 -0.7572004225216572 0.8712643289483124
Ni 2.6815285420420993 4.375978153044523 13.506309941329308 0.849453403720808 -0.21655039242835608 -0.6284837991788338
Ni 0.3072401115721347 1.2466872235448168 2.670967515533667 1.658331714232731 -0.3638666331502379 -1.2467276657972142
Ni 2.7350452593245027 1.1186759011832474 4.361499713920651 -0.5112330103837647 0.1865312203584465 0.21267394019208535
Ni 3.8987081022675043 2.82143349506201 1.4376155748482027 -1.9133982604584143 -1.6733878372349051 0.5345241197012214
Ni 5.883567459531285 6.3073207930259 0.6868927497562063 -1.0005928748435218 0.946865303413079 1.0169360920882358
Ni 7.648325339413785 3.5574985986410343 10.147751953339586 1.3439459614214404 -0.41001510668184227 0.008334230897308226
Ni 8.124800633208194 6.805716593363887 3.9137456436872813 0.5070742510203848 0.5579036749674262 0.5128880294886845
Ni 3.7872110906957217 8.834712687243236 5.999091855905636 -0.8763317161688906 1.1243295284732506 -0.26375096137355863
Ni 0.8509370599188151 6.691853793564804 6.222197699508383 0.04677068049663558 -1.960640995495462 -0.0134466124232091
Ni 5.809100578532908 6.005497966839872 7.58906142018389 0.22088501524796794 0.384983360524195 -0.6948632550453323
Ni 8.754377542477924 0.7383837608689837 7.528277297190749 1.5047718065939826 -1.1189155565465312 2.366356446360686
Ni 5.937925140597612 1.8764582013800664 10.41750725941338 0.6176013479383751 0.1135226892112045 1.353517150049643
Ni 3.0805797195540063 5.1023675524283005 8.354830103919898 0.12267195981064033 0.21966785501141523 -1.1180766055850033
Ni 4.3420993263207635 5.049229730916675 2.285850461026148 -0.00043271666204441607 0.5440408009424049 -0.26190645196565215
Ni 7.92003057250305 1.4651160147185143 12.40243962342324 -0.7809607581660485 -0.4150562686501755 -0.6227733790576178
Ni 5.444177744471858 3.883487581914523 8.599618026971442 1.5600425541418295 1.491769995017676 0.24540896853126123
P 4.806551610413152 5.899638185028453 9.667577343031942 0.5675080308264097 0.9007409982511907 -0.08976415333902604
Ni 0.12382591029850601 3.177715657277256 12.180442743052039 0.9340434690580623 0.3207021819476219 -0.09003231939874817
P 5.016977383599185 0.7635932675301248 8.81462197003171 -0.5097615680445609 -0.7637135410498266 -0.6124056626700486
Ni 3.0419785577359097 7.324951661094694 10.162251647592063 1.9125536530699319 -0.3148632066683416 0.8061912505980631
P 2.292467274974378 1.3901501002659407 1.4912043747406563 -0.03531410192026176 -0.9182630662953541 0.15436671981075997
P 8.641096948375402 5.076436295530628 11.72057047710594 -0.8450246785254932 1.1990655838345607 -1.267306004169198
P 2.1913483109778222 7.747485135034608 12.323990640287581 0.46979891160869414 0.1538347585666899 -1.4137295578734812
Ni 8.720591129356793 4.249103517995288 2.5635052818526627 1.5382977062655703 1.8980613729910278 -0.7623074047309194
Ni 5.68384318152968 2.320080459439897 2.778928782668868 0.6143278193934258 0.4602963714348976 -0.09858020896875926
Ni 6.857431245395026 8.68986360648268 8.905541244706114 -0.11057234833362893 0.638973642966564 0.0947934882328174
Ni 5.533181285163764 7.866310545294864 10.880843187186011 -1.1750972459444216 1.007367217452878 -1.3994051708310093
Ni 2.198251607094202 7.471889289274666 7.90254591888566 -1.5506994223640325 0.5780413262575658 0.08309625440054721
Ni 0.2501072500188622 1.0487188039931608 5.003995120701876 1.9967971337010448 0.17232279006854836 1.7765829192678566
Ni 7.279096031470228 6.14133672134411 10.018000482840515 0.6953517646459767 0.13890487672973498 -0.6558912446575091
Ni 1.273025100294057 7.943429696688691 0.6978151134509174 0.8043948208192727 1.2751463261492233 0.7357782480921392
Ni 3.7305985177252503 6.643105618178053 6.12262204267573 0.2541633176851235 -1.8687273999136012 0.16782541641882712
Ni 2.669838221309542 0.5681976426756575 8.621813001914827 0.9083090404064357 -0.5849264834131732 -1.3401661826640339
Ni 2.5939296881101535 2.3974676102813484 6.949635069145971 -1.5296824537927334 -0.1556910950491383 -0.3005501324797792
Ni 8.086217954110623 8.726394703601889 11.251351499389953 -0.2840007127615302 -0.39668882188658133 -1.2255335482181022
Ni 6.932480332089966 2.194564304349308 8.035273107389383 0.1960910961327397 -0.27836048375661737 0.9926697633417033
Ni 8.816202242636665 4.685046205676658 4.840889732741977 0.15874170895000406 0.6720105188168749 1.0229324188809867
Ni 5.178756636361359 0.6433215843887268 4.353748985068164 0.33265524054443996 -0.2476368294205154 -0.08683360995579238
Ni 5.887532003084066 1.8061037256986752 0.27616326528008406 -1.1540134286909287 -1.4609370687972194 -0.7657004895728684
Ni 9.036728822590039 2.749970056149072 6.584956206995863 0.3431977919469767 1.7410595295502662 -0.43814683192105186
Ni 3.924602393724126 0.48694205842816 10.889269459473716 -0.7830317817624645 0.8096956642068958 -0.419799953982748
Ni 5.668724316139589 7.519417605106715 4.3254944502004005 -0.3781431976739101 -0.5460136083980597 -0.23424960948033205
Ni 0.9214615766290433 5.757524546905712 9.148664798774309 -0.48997487233593684 -2.7202492561276634 -0.9730897843272466
Ni 7.9056602572942545 0.01636460075352781 3.9008964563777573 -1.7560883988589306 0.288642839519232 0.006250866005718267
Ni 1.2574626496113481 0.6881079886307766 10.349122117604011 -1.205702629535104 0.7848762911703708 0.40449700507709047
Ni 8.22611366577027 0.27557643890339045 0.837816176617562 0.12433494933536005 -0.8630355132806168 -0.35307648451326934
Ni 5.043564777075523 4.180541866204899 0.21479324004627592 1.4901933945591754 0.6343929655744172 -2.1428144531058453
Ni 3.4593461112888666 4.368973201965251 10.52994688973198 -0.8034185729489325 1.1506159729736056 2.3738149595212605
P 8.270074816540845 1.2145272898299555 9.801711066567677 -0.004267517027102328 0.2746863773391398 -0.11182087602874934
Ni 6.497775986683826 8.473430949125767 2.3879832022435434 -0.6937805635041149 -0.6345102078785717 -1.536961761062966
P 6.633263569498074 8.760680150177215 13.044530258624947 -0.6241808009281057 0.12054257217246336 -0.07952910587457916
Ni 8.221492985638825 7.014016853689456 1.26379760207156 -1.223391305064119 -1.2652910306216982 -1.0573258087591921
P 4.389599918072024 2.5824334359431167 12.30598847049547 1.4168470204565404 0.05535893638627886 -0.7080298743342773
P 1.1860916243010389 3.846235658694808 7.76379890830669 0.073196478788332 0.8063714849296693 0.5556074227340818
P 7.611036450753018 6.418207874820332 6.0641371701159965 -0.34650037395764843 -1.1292004834123068 0.5237059460397948
Ni 0.9873469304873 6.518689184958748 2.5728926556077076 0.29524568954773023 -0.22338901261674432 1.8049236751940787
Ni 3.4419169058330534 3.4722378088555996 3.8252069434165996 0.06444187252415352 -0.30926951463064806 1.2863720196617134
Ni 7.899995303453101 2.518954532297317 3.661790121615841 -1.523769173632092 -0.38507206358325935 2.5264333291823453
Ni 4.007109258151218 6.4231704852815055 12.417385675376412 0.23684102435659213 -1.0871156384271148 -0.18485871775203003
Ni 2.3376482852996534 2.5833575719694055 12.012846054004374 0.7068641361609503 -0.002410409213705526 -1.0242670785320103
Ni 3.9317644479278666 2.6363937385181386 9.33718577572921 -2.492111415972024 -2.7873272807230838 -0.6680206809311914
Ni 5.977441197081735 8.26277414193316 6.4653083156722095 1.2379985134543323 -0.03654951698925964 0.5874363943192205
Ni 0.7835213368010234 2.8697288437958797 0.9721883272480795 1.0479996462622596 -0.13864416686918057 -0.9162658333596672
Ni 4.497668384986274 0.315896493730385 1.8677047849390556 -0.7650456295976888 0.8603924192308149 -0.7401313828545124
Ni 4.37242022934331 7.785679677001137 8.205399156741 1.4477575939924678 1.0339506243683612 1.143908736156759
Ni 6.7735474182887625 6.728837717336896 12.221561251405747 1.7778710419516608 -1.0374362689241166 0.7897001949215755
Ni 0.8760449116170642 5.529798947307546 0.6070788177097198 -1.299769266904226 -0.8130735795401931 -1.2739628473640834
Ni 8.53247399984538 8.352997542179768 5.974245534702827 -0.787851828858927 0.08808650852628701 -0.4705769274252992
Ni 0.01628512505526694 7.085794498851332 12.493737793868421 -1.3474881702467438 0.2662690998097221 -0.3523694311439157
Ni 5.751462214573255 4.619016686598299 11.202537710345334 -1.0960566496704867 -0.06458971095592747 -0.16042372463811727
Ni 7.151398915357596 3.602827470730516 12.647768166050161 -0.09333901517447796 1.0934829754060393 1.3533299737395017
Ni 8.54408114833557 7.15712855872059 8.07442967495928 -0.3163091950862488 -0.08477467054423465 0.11106882835407324
Ni 1.5829063926293259 5.551922763776907 11.71938018990408 0.6303288228073725 -0.8758910290870463 -0.992757180849187
Ni 0.9537361032111646 2.9739621462010297 3.976234797648926 1.6700839696726526 1.4569449169186908 0.7010716978488893
Ni 4.397233281649172 4.086825231778919 6.527580297667677 -0.4868044450277552 0.7456093752499481 -0.4342194718421876
Ni 2.9473839940849547 6.2105822337939545 3.933019424651567 -0.19529174015989592 -2.2802802833962086 0.43538803822899214
Ni 7.210072311666694 1.2233620302412793 5.932127111168674 -1.1331905784083063 0.24544907774057728 -1.2824557153264429
Ni 4.0837016520100615 8.73499841000664 13.014503230858761 0.6884424391206531 0.4238196166651023 0.8205919994044255
Ni 7.79064228746231 2.4926351382686027 1.3379733802216565 -0.5045864516015246 0.7375723638780847 -0.3415432870626892
Ni 2.064889537140419 4.419930062454833 2.243799499421914 -0.4819746277392796 0.01611336062209483 0.8245772093044187
P 4.5543179233977975 7.196755511527867 2.1760085770774493 1.0212959117188283 0.13320371257989963 0.19108567249834832
Ni 4.728822529241973 1.7855971472753196 6.626358425109642 1.3298678860618194 -1.5144491817827466 1.2436382282386131
P 1.6782032996602605 9.068962687187003 6.352680161604249 -0.8567440238449503 0.7468175366254364 0.7898500902358784
Ni 0.8987601751432509 7.5630737909886125 10.227363499596315 -2.13086782226693 2.124709001754386 1.0043022053743091
P 9.19056974688639 8.403094956164901 2.4607108592404447 0.6028789541265359 -0.28306817364493186 1.3071696731333553
P 5.261217293987138 2.8133842702730316 4.86431565687238 0.993988739263443 0.6770568229915307 -0.3426720013504937
P 7.465383371649589 4.835606447079681 0.9914621082123655 -0.40647161230495804 -0.38229398661749 -0.8499318860191232
Ni 1.0183979009706148 0.9068315791968602 12.71440946317792 0.09975186067935725 -1.2117976866892486 1.2763442031120664
