# total energy = -381168.13395304524 ev
CRYSTAL
PRIMVEC
9.25865306482950 0.00000000000000 0.00000000000000
0.00000000000000 9.25865306482950 0.00000000000000
0.00000000000000 0.00000000000000 13.55097463936905
PRIMCOORD
 96 1
Ni 7.828524630065411 3.668222863703184 3.8311862711970193 -1.4504204855366116 -1.6448547627922188 0.3560239971773675
Ni 6.027355486459114 6.768723627736631 10.78417746754396 0.9670075826889087 1.3157769551863918 0.7426104405226243
Ni 4.997737693708652 5.731921120068141 6.7392246326331104 1.1178236090339329 -0.6556176792811483 0.5350396258850592
Ni 4.046022209360636 1.8239639478952006 2.1903251533339234 -1.5468659075505553 -0.12176307484312578 0.6536543849071903
Ni 7.283615851991066 6.653916327500083 7.290994072761913 -0.025872239781071574 0.4778402938559319 -0.6933265066858318
Ni 7.914194948540315 7.395830729319049 9.527446762427168 -0.33790260498630836 0.2675225126008489 0.040663796267949325
Ni 6.873874152638767 2.8820983926399015 10.460959734495745 0.4427007698403214 0.10251322547457829 -1.4165546860271023
Ni 6.629232757949223 0.3960898151427182 9.98647227300198 -0.594173455932738 0.7252122996508349 -1.3141946983009367
Ni 8.335028514479982 5.093722151898355 9.680979305725765 -0.07437841491157512 -0.9210408861508074 -0.5026223858966182
Ni 4.066576419564277 5.70311744982331 10.83541392873582 -1.429871971961299 -1.5006354158281061 -0.5101217795974569
Ni 3.114092466996935 2.934141282529389 10.00750330384773 -0.6950640582022287 0.5675730797363903 -2.696242094579789
Ni 2.812417768318912 4.666064958517207 12.790657246855542 -0.4531209367323809 0.9527562149762171 0.5659759104525995
Ni 2.8026221131858255 7.429087811774669 9.694611746763533 2.67697373326848 1.1142040100034747 0.8274218778420653
Ni 8.028002314226416 5.755252926245246 4.479721599849394 -1.3004616649855603 0.3247028184665827 0.27220783389166026
Ni 5.60740149257771 5.381138524579257 0.5956110149739738 -1.8732255448942707 -1.4182284741850995 -0.5536055618127046
Ni 2.851868889795359 2.022608353264166 7.800374620739669 -0.40278053660661595 1.143552638368921 1.4545833586650496
Ni 3.0300424128398875 8.314807615793159 2.3213499105942104 0.6568134993614623 1.9660300277215172 -0.2867448511655707
Ni 1.763680856617767 8.982662050306304 8.3191193706093 -0.8982349439998853 0.4912416548635024 -0.888644729208289
Ni 0.966575622806053 1.482402971038221 12.27760379113554 -1.0497055732097729 -0.7256771551023954 -1.5519232674688046
Ni 4.627743392736637 2.7725777834061804 0.1679945596671045 1.7015229049082243 1.1838348829277352 0.02993689676874844
Ni 0.8195167298562779 8.213832743504463 10.427556365318857 -1.3514206725319307 1.059841118981878 0.14793767635596458
Ni 6.495010061858155 5.557710300612422 2.722011648709252 1.4815755709831775 2.0415183878678196 -0.3206407325820671
Ni 5.900373057205543 4.77426158033691 9.225056369853316 -0.4125702690035282 0.22019930203485302 -0.583110513250357
Ni 1.465209651962473 5.756039911771062 9.597856968623855 -1.2266141828767907 -0.8260761624474483 1.5357176042432197
P 8.725308524711537 1.0207202269821287 10.733632627749495 -1.2183092625555212 -0.09245172747351821 0.2578798473047623
Ni 7.771491326076933 0.9206471475194862 5.222572977376742 0.5781279724341011 1.962434854171091 2.608926402781255
P 1.618366293939328 8.92887853360678 0.6218370761554295 0.849835212540259 0.3843526689187316 0.15262376897772423
Ni 7.340056602171873 8.032835331220246 5.097904285569068 -2.281437279818787 -1.3565646786267151 0.20889184744183378
P 4.666963047881961 8.658359203097787 10.382837996011395 -0.5914678840761168 -0.13293168986543558 -1.1167149493507866
P 9.103367112659845 8.61071417349962 6.211604537762934 0.6529547877370045 0.6516113863352326 1.9030979069736706
P 6.1498474688889155 7.163364463646525 12.9518596585022 2.302980553207201 -0.6624339308720333 0.7451843718973876
Ni 5.040373791901338 7.979755472167331 6.058180320707303 -1.1079441451366918 0.5581132198750711 -0.17655791119581848
Ni 6.986996377984749 1.5944974858740197 12.25079906412628 0.14958781036487787 -0.14561005666405244 1.561513482260401
Ni 8.475750785148959 0.9899074289831582 0.6534451924681357 0.4306718637002454 0.1510307134589915 -0.18092827234937228
Ni 1.6783901429259045 1.966556466519644 0.7254451094269685 -0.15886692167395863 1.7257288127304666 1.5621693706768451
Ni 5.3590010846707425 2.103566017237423 8.516286094920382 0.05896850811440812 0.5716989289793057 0.06572742410479648
Ni 0.9547430639590925 3.713627299216091 11.116339059626737 -0.3353502708780999 0.4643975380874647 0.016836354831048422
Ni 9.187593081228545 2.9462978942399203 2.200406900852277 0.04809634128659459 -0.3880817969438607 -0.9934632057772762
Ni 8.51168361839235 9.336148172542694 8.193989597870031 1.3229698733904056 -0.4141152448931449 0.5350478534151754
Ni 7.493639142197993 3.8417392841655373 0.5972433155410467 -0.4218588933943057 -2.1951680270068965 0.15638914955742744
Ni 3.117453358124828 2.536426573742194 12.10190140264207 -0.7728389003898626 -0.9651355624771765 0.6705167078801678
Ni 8.270319786951495 2.4393495944695953 8.046853858098322 -1.3683449590910952 1.0482374733046784 1.5580059833277746
Ni 9.030445959703146 6.561709399834292 11.619039489288308 -0.8383578080282788 -1.8612372621841426 -0.04496756584962578
Ni 5.240758824080341 8.949710503407767 12.447356569053849 -0.1524039396574343 1.4085534129891806 -0.6487957712633085
Ni 1.7552647408181683 6.0456598439242475 3.080977041935962 -0.9169435761529822 1.9590777647734001 1.8676429086001707
Ni 5.383962413818947 7.314428649990037 8.657325011530334 -0.7945204991283543 0.01714694409293176 -0.48522167392166754
Ni 3.9177713446125164 5.5776256637421655 2.8737285701065276 1.8821781261018682 -1.0476337782824086 0.8745363148313647
Ni 2.7279140401528648 0.5203835314939748 6.112072163649794 -0.37061577894861336 -1.113356574401515 0.2760542042209439
Ni 0.0985092929295819 7.44987348830943 4.510915854362054 3.361845681429055 0.0956820614853578 -0.1147071964376089
Ni 7.50730491438744 8.164558190935196 1.7129249195293184 -0.5471073556828707 -0.8702672551423656 -0.12219116351947987
Ni 5.403433361592937 3.689462214246946 2.36471281306662 0.41890315320009147 -2.169586836103683 -1.5429287772796783
Ni 4.111286456083817 6.819035149469326 12.962280272729314 0.4650536836142249 0.4871443448656771 -1.8458098718854792
Ni 8.031326170741329 0.599287626177517 3.115220170962162 -0.1973661061904214 1.1966109516464811 -0.8662239383109275
Ni 0.8445086125601907 5.121729577964125 1.329079673302958 -1.1751957191954987 -1.1222199383294158 -1.9402117811068327
Ni 3.5502768800166193 3.2007534613690405 4.223919824538467 -0.9540757051185891 -1.2543311891760849 -1.4072352083983894
Ni 3.4151098012945726 0.7547607831962415 13.541177566865628 -0.025410726763620755 -1.7337964202299498 -0.19796568744763324
P 4.855404417375065 3.4906789290793077 10.993147123011621 0.9313132146110928 0.6331359532388644 0.3303055093653408
Ni 2.728775094904639 7.709847212772501 4.495373353159868 -0.08636721184233513 0.1198064653373872 1.1006756364997368
P 9.272078292088104 4.280303171069156 13.017717384898377 -0.03290215004465946 0.4092759145229725 -0.7942178802862708
Ni 2.0073408340633536 3.2919234198714036 6.000560943968422 0.41721856640881694 0.3771641215900924 0.7924736439016545
P 8.6736267222986 6.40831203287307 2.4284697510415336 0.5111666759222036 0.5745371697590493 0.2632884199148433
P 5.646861872707401 6.648537049964805 4.427144485667676 -0.3665498364093558 -0.29476000816056336 0.43093900131870294
P 1.7240075274634434 5.433422139453112 6.681185838902236 -0.6198713749194744 -0.6634448886350509 0.58687126584437
Ni 0.7252775278032362 8.537200466735248 2.6555845151385142 -0.11588090503073592 -0.11795681372315814 -1.3679680353676504
Ni 3.2933492524711157 5.378314635339568 5.140887583258437 -1.1743482835935388 0.5266922823616285 0.5735542370204897
Ni 6.676442630844883 2.8621830295101582 6.34596241019138 0.15907209570622927 0.14282863726417339 0.2703406987759345
Ni 5.417960188534157 4.390971853305243 4.485453632073301 1.2293485510888182 1.9212370397765428 2.1830103085984405
Ni 4.323707737481167 3.326208212837206 6.530526255705526 0.27970285671712475 0.10908882180956697 -0.12637897634858236
Ni 5.09796261508451 7.400052675198715 1.648679124663075 0.683999315747635 -0.5602099545030997 0.20603123806458712
Ni 1.0145539639210368 1.6751681315966853 9.477755570461882 0.05891271517580821 0.034568224893172725 0.1321495602837724
Ni 7.786444051067419 6.0765004178829525 0.3723672937986789 1.1792889154282657 0.4794896565338968 -0.4124864510404702
Ni 2.950612426652036 7.0551308072138434 7.3994147539901425 0.3725528480703261 0.6513555615706846 -1.079010235711161
Ni 0.9380497121585684 3.8466834049983043 8.357427974275328 0.2895411829637852 -0.05727415113112072 -0.34726502003781484
Ni 9.200407057319463 7.922879565284015 13.525092508583292 -0.37314497312837025 0.5629510075833466 0.024662792854002687
Ni 1.0463944724301895 4.18776293188655 4.15457991865689 0.8138384827306758 0.5279081570466005 -2.038176982199412
Ni 1.8986812795814065 7.0296509934839255 12.459376152696356 -0.12663351556154967 0.5459231055667824 -0.6625689137880009
Ni 6.34026093152318 -0.02205781549060931 7.589156038398828 0.04991771076604951 0.9991142334154666 -0.8060117875974054
Ni 4.001701036277381 0.1073420481252003 8.133972229940724 1.10653235239083 -1.2326855858818513 0.6398573311230981
Ni 3.846016781964673 0.5768511317691919 4.234083048205376 -1.5618171295437488 1.9451146177250886 -0.28213563452833346
Ni 2.7531160942854362 0.3325874901320389 11.08147189737183 0.8782286760812875 -0.43088783636579336 -0.5035358988498232
Ni 0.39363904962879764 6.924685641646686 7.883618246199089 0.2754993601587384 0.2775832392709607 -1.0537702301974496
Ni 7.588364423546391 8.600927777019779 11.694220679502084 1.282228172696669 -1.3169743179286029 1.4086210330023223
Ni 5.370972523316377 0.312638795850614 1.2277214927699254 1.581661932183818 1.2066842767220831 -0.16398573095776275
Ni 0.6879207136907821 1.5991175538432163 6.7984429787873815 -0.47072142342296347 -1.3013134714628942 -0.4622455247414684
Ni 5.5004825649058 8.751834566258125 3.63972380315011 2.2936032257573595 -1.5105529320521338 -1.3032268864355232
Ni 6.431245716960645 4.789214305327397 11.920331805587319 0.1989121105213026 -0.637637954874276 0.249079475404313
Ni 3.2039939900047494 4.872125545135324 8.375775847410713 0.8652857427673742 -0.7370324322142146 -0.4058836010119719
Ni 1.6775290881741307 1.704240302785618 3.0410287307802655 0.23811526308332542 -0.567490804435229 1.8660148860784442
P 2.8238799810360775 4.0233662848704075 1.3792856463886607 0.8307355155963306 -0.27011778413185095 0.3049631739458103
Ni 5.89105885204119 2.14258198201136 4.323154070017123 -0.6401357815954654 -1.4394102504690374 -1.9352513517777639
P 6.888104702676153 1.957612607485087 1.7697026846882389 -0.6415020658153726 0.3600315756748638 0.15665782983778181
Ni 2.9569731214312704 6.430643904499728 1.13687280953516 -2.106458283074314 -0.8632134336193779 -1.3117161548534573
P 7.338158578256672 4.54559136249479 7.433183839970205 -0.2916805979042912 0.10282021519203582 1.740617556916841
P 0.13375513410220258 2.3976949135208665 4.76175869499502 0.19300551522888051 -1.4064638774500036 -0.4564312320525365
P 5.04149408894397 1.1899591496453457 6.101583961253989 -0.2149118283836686 -0.4748249040683758 1.0064261936958472
Ni 8.936257680242951 4.262285831854614 5.983636125836776 -0.11224716493289057 0.07761646223289859 2.0645642139436897
