# total energy = -381165.38844291883 ev
CRYSTAL
PRIMVEC
9.27401086266654 0.00000000000000 0.00000000000000
0.00000000000000 9.27401086266654 0.00000000000000
0.00000000000000 0.00000000000000 13.57345232890520
PRIMCOORD
 96 1
Ni 5.807088936018074 5.549456909720688 1.2337077757488093 -0.14874500274860836 -0.01859627494494862 0.4102357073330805
Ni 5.257956195156993 0.9856604398466116 1.1715719018757895 -0.22990933023376534 0.6890808440356003 -0.16229445929826888
Ni 5.311337402621635 1.195039786776637 7.129523957454249 0.6298822221882572 -1.558391905912284 0.17619949941513527
Ni 2.9725987541073216 1.2872327303843518 7.819516869583262 -0.06074925416391474 -0.4705753847634025 0.5734619344169996
Ni 7.17725914700637 4.627082321114298 3.5328167203475713 0.13175592438977954 -0.0423578961409206 -0.14901779679402077
Ni 4.140845923030354 0.4149721151582067 12.65884606183677 -0.756842010740974 -0.42575077224954416 -0.3117675984621534
Ni 7.101156612528459 7.867533061669466 9.163818154216123 -0.5044231865507829 -1.014873810242568 0.6377006897914114
Ni 7.978394589472163 4.685323110356473 0.6347504106514883 0.26465290436253774 0.6123976922502485 0.32699367138328844
Ni 1.9969727941906517 5.2829032848164585 8.93800989675385 0.9378492159573977 0.197597248364621 -2.0804356337583076
Ni -0.027074547788790176 8.385032150921463 0.37150668028237543 0.6597697537763089 -3.1244117606834707 -2.7134067792845333
Ni 7.489264699948161 1.7983142040064788 0.15323077457527728 0.9548616913549942 0.1291850783388098 0.2816119008143795
Ni 6.131827706098323 1.2373756471095225 11.987245368374172 -1.1400834488733977 0.29859403719467287 -1.1230136378753046
Ni 2.0493245864314273 7.155437399062605 7.111565762503844 1.9025309787266071 0.28521813010839914 0.4732544742574623
Ni 1.6729203009263145 3.366753496715862 7.137708272184539 1.833560622204481 -1.1431302061195217 0.7585088569204357
Ni 7.8568030309125865 3.695860325989273 5.806384111180112 -1.6903607176438178 1.1530613491903043 -0.8720857964083433
Ni 8.632017612561203 1.597875003705348 3.323935387809633 -1.309624562431751 0.32598451339248374 0.053071168793366666
Ni 0.38196869212060736 2.4392132839680887 5.344804526210526 0.3782180167759035 -1.5128088179658463 0.30608726024792443
Ni 2.843189204252976 5.944928561894895 3.9272339174681425 0.8310067669798462 -1.3299226505591548 -3.056702530261955
Ni 6.221776339037789 0.6840937137154867 9.6170622580757 -0.17279484460896047 1.3193703289646053 1.2570606722921058
Ni 5.744118401152731 2.7231093094906083 4.197061268264488 -0.4446296114319181 1.7494966045740257 1.4741826209532158
Ni 0.7565302316348892 6.009373664513345 13.582546834019855 -0.04793770422154325 -0.23529373447413027 -0.7443562195691374
Ni 6.551105744575819 8.176821329380692 6.890156168471119 -0.7366657929034152 -0.2594477060125145 -0.877959738690617
Ni 6.572537984056499 3.1884791827664496 7.887777300337737 -0.14264248939529625 -0.03029813676290911 -1.223455325532835
Ni 6.7109896946610235 5.583835668593418 12.389521362438026 -1.2841325888082336 1.3483386911724973 0.033340266023342585
P 3.2256123229138485 3.290354193885125 4.644360731056511 0.28203844682883683 0.6699958023796913 -0.34917920634139216
Ni 0.8106311023551351 5.290953126386873 6.335327330037977 -1.1893175033088614 0.8321953879713087 0.19016316068407893
P 8.004417464410626 6.126068545251287 5.75460081581522 -0.5924603298963732 0.47651694705881803 0.1626551850717973
Ni 2.8608098252020406 8.475305374246833 3.2909922458437015 1.091434577517443 -0.20942920800254253 0.08804639931697095
P 2.4271941656786207 7.35771285354685 12.746584697948784 -0.07180936863281825 -0.18153993779144217 -0.4349015855108768
P 1.5396713105072772 1.6768339335792122 12.87857335026941 0.4062872642082938 -0.7696052239439132 0.45261108697549796
P 4.032646036392067 8.28797035152519 6.813045548994702 0.1642058173883688 1.4054585761139409 0.9323048891004008
Ni 3.927321093171785 5.397585705161796 11.137031859559718 -0.16062967000133624 0.6171930567563629 -1.1126785744978835
Ni 1.0883701119576108 0.30055122192379713 4.252427114088656 1.4156054347399556 1.754442121504759 0.8008796085771627
Ni 7.653386873072166 5.8761154000832825 8.024924157590927 -1.2549055736223163 -2.1744680754553842 0.25921887783116004
Ni 3.3472966215836832 0.6413961669525937 10.474497439275963 -0.005728160733028845 1.009042805383088 -0.37009873010287875
Ni 4.6673871730325285 7.3365959304410495 13.371615017644105 -2.3115873210396063 -0.7986707738513019 1.1863159974783761
Ni 5.61989302346182 8.128327525726657 1.8502514479544003 0.06894490260082965 -1.035687918774442 0.9173107296844137
Ni 4.0358641182180275 3.913419350644075 2.5618667167901217 0.24098975641764303 0.8749602897426608 1.1704633467168357
Ni 6.4585325665160465 3.1140830663172903 1.744337605033979 -0.3802381325297258 0.250932983673284 1.7241712384353598
Ni 5.613660888052467 7.834063155877266 11.503066873336856 1.111077805669667 1.4275728915144767 -1.368870749687578
Ni 8.8993131583475 6.249858044423984 3.678853644570117 -0.026899909714637543 -0.695164588335835 0.60592236893855
Ni 1.3815957925721096 7.147285543370907 4.816322225700644 -0.27312983148529735 1.6670040451957484 1.3020310663552093
Ni 9.020209166080138 7.428427187618757 7.382071043506176 0.5502186476183426 1.6144758933900452 -0.29754374155328756
Ni 4.2035289635538975 2.9955148353521324 6.536173659423141 -0.5327171483994696 1.1543530714185344 -0.25206555461583036
Ni 6.024221356165689 0.7348661418785646 3.4534256215599037 0.6176489133468589 -1.358323827409667 -0.32456886399187973
Ni 7.563642268375269 0.9164373667476571 7.762318479180391 1.7192987408344067 0.17540605697956244 -0.9135000976890719
Ni 8.790881421433566 3.6856867358939445 7.83086454947446 0.6962506223111622 -0.3938698643805475 1.5048545961157762
Ni 4.1601173179420154 3.131685139244304 11.31363592412338 -0.033803064592374046 -1.0414348485605485 1.6211142246421695
Ni 0.049190281882072334 6.713901734123132 9.702806054416058 -0.32914439917770405 0.24135356751496498 -2.793350861209344
Ni 1.005590289541107 8.888824251877292 11.518160326281386 1.3606817861188822 -1.8560996838472616 1.5813127763745152
Ni 8.722337205941702 0.14827288828087187 9.805896888380218 -1.4211829288277331 -0.6440027207500393 -0.3734995282543116
Ni 1.8668491454873173 3.7200283987225697 12.308855087134306 0.19647161940061 -0.05618657449389679 0.13370764879951166
Ni 4.641930012766642 8.630320468543477 8.983127960394485 -0.9512040399977488 -1.3630356310630398 -1.6857764407072449
Ni 1.4418397681958612 8.655351024302176 8.96955451785709 0.9015344406867635 -0.5537927381228462 -0.540661600057527
Ni 8.231491624377922 7.26884000588638 11.47380273154487 -0.3107442994039616 -0.18372820369201262 0.9404455159296643
Ni 4.3185823443402676 5.653585505518639 8.139646456183675 -0.6130394395993055 -0.09422218911037966 0.32300074817381147
P 4.208564751540919 6.542193419980003 2.328078172840128 0.20746411385637173 -0.5970950004549072 0.5607596563589826
Ni 3.4916929732557604 5.255943734764388 5.96513848672237 -0.99930526638035 -0.40576867270066247 0.4609782279932706
P 7.988336329291847 7.046263741266607 1.98623070721944 -1.174534431462416 0.6539804007880414 -1.5174581438123995
Ni 2.677750121563304 0.33332093988354566 0.942164400734395 0.4802522457315342 -0.9468239086521822 0.04593250086605638
P 5.105537823947578 6.621541858316952 9.865714259496782 0.603592949474425 0.6945284974137329 -0.6128455784209446
P 8.507207972175667 5.081100804894532 11.323028642490332 -0.1461463887834967 -0.19916999216837955 0.7270113005327866
P 8.89815390696927 3.796965594192805 2.8074926084134773 0.9380150521113007 -0.5345778557572922 -1.125372110805152
Ni 1.001954877218984 0.27111922053224247 6.613569918439154 0.13317697310702226 -0.6976834981029468 -0.4160417724918964
Ni 8.720862638188596 8.34319708718397 5.138108150670271 -2.0740878371634084 0.14668452067515383 0.39983842325915653
Ni 1.0126014418766298 1.6451724599370494 10.602319278442689 2.0789500503517164 1.1305413137109175 -1.5070670303860625
Ni 2.9275363345328436 7.558096409781826 10.294391508148951 0.6173797188458722 -0.6982290861937717 1.1044944960251946
Ni 6.668644560317112 3.558196906321944 11.618386418239668 0.2633611821343077 -1.1720947116726717 -0.7463704217856888
Ni 2.3298819679846505 7.194907589988512 1.4747421045132791 0.05653084520719297 -1.138378550367149 -1.3994311389729384
Ni 3.389428453674001 2.6103744314606936 0.8776376868189177 -0.4116117617450008 -0.06427603637025059 -1.7162401565137408
Ni 1.165594801769646 4.316338033672018 4.248178689637726 0.5634145774833265 0.31856970898565135 0.2519789084392951
Ni 7.685586239353826 9.369255119059071 1.6475048737100444 -1.3191204177373281 -0.35181844373645216 1.2628803642976767
Ni 4.7362188828661935 2.788361251068305 9.171622234494356 -1.2179770760270832 -1.7714219438922072 -1.189696483914835
Ni 1.481922043849472 5.820322949751926 11.053622331794559 0.8870637578744142 0.37159691191496 3.3230605902410577
Ni 5.233352243905482 5.270958358615198 4.189663389669188 -1.5283236257719937 0.4427347084020504 -0.23699940431132732
Ni 1.661837857750455 2.3621648003655435 2.9456290026431238 1.1753674688866724 -0.41980920995412857 0.36360206663494155
Ni 3.7808937330850525 4.885604652470165 13.275528844207749 0.21671288614814935 -0.33527056668009997 2.0861344839152975
Ni 8.004269080234213 0.11397017629855459 12.081160495829382 0.22297583633872567 0.6059100276433759 0.42102379908752
Ni 0.540967901553947 0.9328542210655704 1.1974649406598896 0.051798215618214016 1.4980640555565037 0.9771207598635109
Ni 1.7136981274068621 4.569694740886501 1.8553549362219113 0.7396361883856488 1.2158286622255126 -0.04445745898242666
Ni 0.5595678580673394 8.265508696820644 2.5977005679928027 -0.8530285226665759 -0.8802793879627291 0.12496615516145575
Ni 8.87867848381504 2.561611681486912 12.001796291673688 -0.6969756734026449 1.0944592232763797 1.3084511109489403
Ni 5.93323403399133 4.61257776786991 9.585545459005541 1.0503532340961008 1.2960398817687806 0.552892337795764
Ni 4.303178212026375 7.428037679155673 4.954934376695916 0.21028050025924427 0.40637313905388084 0.09678095097649139
Ni 0.4987637321776278 3.944858248021618 10.102395367485729 -0.7271326566019993 -0.7208540226821392 -0.5101330924513666
Ni 5.795839560643751 5.8858902077045006 6.365881486763655 1.0969004857280207 -0.29403701395160975 -0.2757955512429186
Ni 7.773466767834534 2.3578060151834066 9.894476677292271 0.565465032254452 0.7654966010921784 -0.6416738155065465
Ni 4.004601427049975 0.7725520130831024 5.008101354505862 -0.5568407809205507 0.19825596499454243 0.32632184212724447
P 0.7565691824811976 1.3015796254413012 8.403759161385908 -0.7536165618251408 1.945329561949372 -0.2884757178137483
Ni 7.0393453290413435 7.524960368386558 -0.06395914444069684 0.49229863537310703 0.8055857558035804 1.1900998900008406
P 5.666430010789404 3.017763187803084 13.384171101171967 -2.0071357966228915 0.11509826122844048 0.08181353103338168
Ni 6.469002924964201 7.755725584742133 4.144856932799023 0.9284081251491559 -1.0283227366586225 -0.10412247894322713
P 2.6470160490237236 3.308494159451636 9.625736240588154 0.2847355340450257 -0.1976317011469822 0.37512317990066363
P 3.6258415427443027 1.1604569996613396 2.801452445032358 0.7993942822808877 0.1948906480667353 -0.4692672074749402
P 7.46199910753224 1.4689847984684479 5.586113365701359 -0.3481379095610714 0.07133757120272231 -0.7395703681447199
Ni 0.35562308159844686 3.08537072818134 0.844331003620774 -0.06824736231317277 0.7781294593648405 -1.02729352406316
