# total energy = -340860.88501889067 ev
CRYSTAL
PRIMVEC
9.37106425446792 0.00000000000000 0.00000000000000

0.00000000000000 9.37106425446792 0.00000000000000

0.00000000000000 0.00000000000000 13.71549977810343

PRIMCOORD
 96 1
Ni 7.356088638048522 5.2754031310835865 12.658596635347246 0.14326212525716617 -0.2584262067265356 1.009856559533635
Ni 3.4848457730678377 4.989894916805977 5.315716512348591 0.7686868258947019 0.08641580569208343 0.04091396460554244
Ni 7.680374316161783 5.439827824283277 6.455008333168087 -0.4359066297366235 -1.5039135723587453 -0.507110760685275
Ni 5.9567919542875 0.9627362849578333 11.197265380513425 -0.2695035475866197 0.11710732123866928 0.6845770426279758
Ni 4.8169894104667845 5.833065793093182 13.181788774647062 0.2262280247274362 0.6869871947313653 0.018147617443304228
Ni 4.831383365143333 5.604411825575091 7.480721918261518 -1.3638113328867996 0.23484687674469876 -1.7360839307125455
Ni 9.060966355694685 3.3094944189613407 12.588387684935677 -0.7008858070903283 1.8942160311030087 0.9502912983754924
Ni 7.488632970695075 8.134880302989444 2.162865991946355 -0.30129189574181015 1.5311587812279437 -0.3386212283198878
Ni 1.1568953649991174 3.559139570382732 0.730603778392909 0.894695306277743 -1.0899687916051937 -0.5894148582018301
Ni 1.3788115373268193 4.22972355651499 5.919417338768959 -1.3538195117814102 0.6468371048750409 0.6074282640601151
Ni 7.7599533937094725 7.689782864661297 6.069204429621794 3.2385882814285902 1.4025750839185587 0.4967900954855573
Ni 8.374161057358583 1.7419777609823979 3.577536843703696 -0.6507729495943373 -0.9867883648602618 1.782264543033666
Ni 6.0418343622885935 3.7150834504429193 0.536861710710418 1.0274308209719725 1.4580486915058308 0.7526241160048844
Ni 9.092931055826005 9.221726962775541 11.92352848194919 0.0027238266890662766 -0.3751427202846894 -0.5113499955776032
Ni -0.013082005682592449 8.068636249858896 3.881774066976456 -0.4403929476427512 0.5543704650031872 0.7563115921588006
Ni 3.1410307970731135 6.040306878817058 3.245265144642939 0.5247333588630447 -0.45161709849334475 0.0020499405504932435
Ni 6.941925082785015 5.834705729335627 1.6395642111948994 -0.4089054185574313 -0.22602105092295266 -1.6217027501557877
Ni 3.6419329229656148 5.1331972312029714 10.798706521426604 -0.4630011719605704 -0.08852179629149272 -0.4316277998556115
Ni 8.753370542997398 6.582460429505242 8.134539196251016 0.15331976660348434 -0.7286274959799709 0.39047883642112746
Ni 8.34395811730486 2.322102863981372 1.3091611023441057 -0.18439463363141792 -0.7425551618046567 -1.0846512360470224
Ni 5.315895499675623 7.265657868107966 3.3125400148401676 -0.8846682610590442 4.035344611865998 -0.20283381417321197
Ni 5.137526662883026 1.8698365615076782 13.492005674012992 -1.0345450634192506 -2.017361073895325 -0.8141030492459722
Ni 9.369958456964113 6.361959287878164 1.92159669774495 -0.7303961578446195 1.0104072898307825 -0.91049704919669
Ni 7.828090401817015 0.758273719781871 6.187555348366589 -0.1405336705824096 -0.7188575610774007 0.3350952174445003
P 6.511483988932207 3.142651991187074 3.0798705462941456 -0.04290759799680353 0.012577836665010595 0.2203301711857625
P 6.771896493168284 -0.10092355057293402 4.172392322585526 0.5356386929216388 0.40245066407102303 -0.8442600324453267
P 3.913946804733961 8.106457865141808 7.38478189965277 1.55213409792803 -1.1501356909030773 -1.0130719811471394
P 1.1715517094744574 5.118653339498541 8.216819014513407 0.5270339819717633 -0.14365833225432034 -0.09199921331713187
P 6.0794685562866535 6.623374495988192 5.559441025381542 -1.609005100083461 -2.3215413469285244 -1.423903670193006
P 1.3636678975108671 0.4658562198382323 10.194840764275568 -0.8125650153348909 1.7081231838335613 1.6464012813437325
P 0.27597877904936663 1.8230468377446523 5.814260878477667 0.5472006867276255 0.9642382474738878 0.0289220823509889
P 0.39420506263973526 8.560364103857946 1.3738270682562097 -2.203482974630495 -1.6226733415991732 -1.387191916594269
Ni 7.862500949715639 7.5325926330568524 13.305063250544892 -5.4047740622705245 1.56744218904001 1.3392593545790483
Ni 7.476459958244009 8.791351466372431 10.37973935863237 -0.8814029600442109 0.10541291561987652 -0.6215251084728135
Ni 4.363598580283985 3.62943192326606 2.4496842810050734 0.14452993622599625 -0.23741720857503631 -0.07138847904531577
Ni 2.4701750500778217 2.3189822995886047 4.911300738110178 0.6874888169581321 1.8782705635173456 -1.0388912562030883
Ni 2.193522491509416 7.09520758060032 8.179622449215474 -0.6712831537325472 -1.6159411650816622 -1.672967461868035
Ni 4.742283286325217 8.226585537666987 12.585301793480607 -0.2628657305551279 -0.11552557857384621 -2.5268179662152743
Ni 6.805810374662053 5.475868937360104 10.344640974618342 -1.1344082528654915 -0.669865190339098 -0.7424101515863601
Ni 0.8658057448586475 1.4108980612932924 13.134593283802335 -0.016059367455707827 0.4773564122409779 1.078802233465413
Ni 6.076563526371464 7.1705884213673485 8.491032285059479 1.265578222844814 1.4197377117407741 0.38677927608235324
Ni 0.40204208366577543 7.1163487015315 13.136321308048663 5.406325980138676 -0.5125005642422786 0.449482054428213
Ni 8.530639088080594 6.755684552028681 11.199624077383273 0.3872454170854944 0.8200119585312394 -0.8236665245646911
Ni 1.6692301892675232 0.24064237000357896 4.86673945342403 -0.9133201204677819 -0.23761646907003592 -0.6472140285984853
Ni 0.12548323573979525 1.600174816864211 8.404378054008667 -0.5860287153384165 -2.7686528442420313 0.8678514466120215
Ni 3.4236527235640204 2.4503552492048395 11.615999203808022 -0.26906003229129793 -1.1920590706097405 -0.17066391430888675
Ni 8.731920176946211 2.2724830788170975 10.637453933473015 1.5652253838943495 -1.858905528727173 -1.1798337321881422
Ni 9.20478407862502 4.753369255324148 10.139772642360677 -0.4464756635017214 -0.24775612860719912 -0.6422991077953712
Ni 2.6973390183813484 9.307116100153607 8.606106142638655 -1.1822148308258094 1.4485880603135632 -0.5466373580249876
Ni 1.65754447215707 2.9571986298271136 9.916470489631504 0.2857331220716047 -0.46625464590086146 -0.5196227771093567
Ni 8.451238060753512 4.157182148213452 3.3736290455308926 -1.2645040159440286 -1.1024049604860175 -0.3057054514284735
Ni 5.123516921840422 3.1743449304553604 9.989561042297655 -0.23960238915181317 0.6371815840631478 -1.654814445108092
Ni 2.1673022537587756 5.95984692123057 0.922787438091865 0.8925160392382371 -0.11078395012380275 -0.12395468317780588
Ni 3.168131914862553 4.162429944189277 12.961380406555989 -2.29807874503021 0.8072834552209774 2.0862956920835103
Ni 6.268567261636963 1.2576530477349583 2.080970387317908 -0.5986433187786334 -0.8751256116759316 -0.04751938573720203
Ni 9.06146302209954 3.6307157590672885 7.797412348806197 -1.180202942602103 1.4676350496426853 -0.503477534808062
P 5.074974809064041 3.867644376311547 12.091145896736313 -0.18598331827477646 0.5330902154681723 0.8378975805624086
P 3.2067313284775953 8.371715209591278 4.251585312286424 2.353351035239953 -0.3346995246679784 0.40155000663362456
P 2.697760716272263 6.949515644821476 12.831014846345827 0.6883035995499436 0.14021511090072628 -1.1088052075854067
P 4.605587572219218 5.802103796835814 1.625163696773381 0.20281298823760555 -0.26353293182548165 0.5493010209000798
P 8.52487588357143 4.382143916419981 1.0000631080487374 -0.4250709725737002 1.3936584981552191 -0.8737009634142631
P 3.8645331829830223 1.9028133365771933 8.792389780290504 -1.1328303668554105 1.1252183588361075 -0.13535701147747656
P 6.558892202935242 4.751495042475639 8.2516147131524 1.3216305857536916 -0.6627717738274264 0.5091069651796973
P 7.762324272962836 8.82058918680917 8.251944574613738 0.2799874778370791 0.5688748292669493 -1.8683628174853306
Ni 3.30150090116245 4.045319754350196 8.277400133522185 -0.4453106966593428 0.2131575646967232 0.12266064695673068
Ni 2.102182728337332 2.1377459171377895 7.347351994855198 0.24332586074998735 -0.12935502825777076 -0.5546414592763868
Ni 3.396026826176999 0.9589597460680876 2.2745925053780947 -0.3004514021183858 -1.5984779752998923 -2.926063750195754
Ni 1.2133091717392368 4.635687430566271 2.693065813086748 2.8009551559191634 -1.8103613012698823 0.43462879146546435
Ni 0.22187119121933763 8.233210880086466 9.418405921991646 -0.008830968028068664 1.5473749859764898 -0.32378544885863597
Ni 3.8677099737612455 0.6961088909161018 6.081726982769106 -1.3128865210124745 -0.44259586883134094 1.473403062474714
Ni 2.164415965972072 9.048493469187859 12.190432322386075 0.020648529488287017 -1.2067413552122637 0.6923679994273043
Ni 0.9020577068809317 0.8915677375678273 2.3465575932287166 0.4868748932543744 1.4364411405383841 0.4086624493086897
Ni 3.805064409299834 7.485877877807767 10.017060430317404 1.091452832349888 0.14756692328010715 -0.6334475709420123
Ni 1.9306547684417936 7.8568314558489 2.6702435232304547 -0.06309692846048488 0.4557961695716989 -0.6796271548218683
Ni 3.6800356701758017 0.38291574154674163 10.689023837106165 0.7764083629086758 0.42046869791499847 -0.7736649958355837
Ni 2.056742437825233 6.9019106384693485 5.457095884363015 -0.9867901646324747 0.14459447091534453 -0.035356268012106846
Ni 5.826955859207042 1.9782222905369506 6.757763991184102 -0.14630219763507063 -0.270281820513541 0.6767259220146732
Ni 7.007756809088892 1.786106102500541 9.05916992267939 0.21520904790911324 -0.2259143501417593 -0.6380045941850754
Ni 5.741248105644729 8.657148455354948 6.054967908824519 -1.3700933092407694 1.0879985552527003 0.4520536718101312
Ni 0.7700194117034765 9.06900672881479 6.910513275444004 -0.5825353574731774 -0.441066319560692 0.5695052637620965
Ni 5.743225400199905 5.246718303437158 3.6306707779589247 -0.012709991367500692 -3.9353829491686807 1.7528842900993358
Ni 3.5490281920650264 8.163480791057692 1.0055629856526869 0.1381379166567234 -0.5899046533540551 -0.44065957104057657
Ni 7.614598816243361 3.164720847478267 5.750250887062542 0.8654430942808449 -0.24722236759091612 -0.5208412228974901
Ni 7.785845644211624 6.346899987640395 3.7761509276858862 -0.5999772070987087 0.7416182518126841 2.0288443919445767
Ni 1.652643405558219 6.810008611442712 10.363665172137132 -0.369559312659641 -1.8741388007371593 2.694386786538605
Ni 5.093969956283678 0.2807702041965798 8.552080083067537 1.5669107420165724 -1.0817528314533047 0.06233048260810555
Ni 4.565357593425973 1.180182459641841 4.000523255951559 2.3584130231438927 0.23189319343301354 1.6370676626476321
Ni 6.88331844701214 3.2152027705528554 11.421788582913404 1.1793688767365818 -0.16494912331229658 0.8833716537348077
P 7.699987953621429 1.3519259540149586 12.735911663773937 0.22103079679721288 0.8071770115501002 -0.45773066759025033
P 1.4074213964593083 4.478281664484247 11.47966802410106 1.2227395304127329 -0.2590658971930635 0.9868621555209908
P 5.503944645830768 8.993447837827151 0.6033981410453341 1.7525557031153238 0.9771788667949557 1.934776211913558
P 2.4162633174904617 2.72231290458773 2.5824778839604776 -1.6268719530615532 1.302988288062156 0.5337741289090743
P 2.8627757865192334 1.2000866000930062 0.03154206513398131 1.0132313895431388 0.023133243583353707 -0.15786316299979267
P 0.44207527010992653 5.682425935394275 4.222535950240959 0.15196556656843505 2.094966994605263 2.696270633824879
P 5.8523045879831255 7.435836394752577 10.662634920199158 -0.2101285480624123 0.01671885541657766 1.2286895773485806
P 4.5585635718501285 3.3293517040912928 5.826577268211644 -0.5679322628480218 -0.8099224355057213 -0.02232925962481961
