# total energy = -381164.82170339965 ev
CRYSTAL
PRIMVEC
9.24737558762463 0.00000000000000 0.00000000000000

0.00000000000000 9.24737558762463 0.00000000000000

0.00000000000000 0.00000000000000 13.53446891153591

PRIMCOORD
 96 1
Ni 4.659817205876091 5.468990297271478 9.70624405963297 1.1099930572459207 1.1220049941051322 -2.2624016033435743
Ni 4.868225305721558 0.878949162628647 2.040740399335184 0.2774114895797868 0.7970844032007884 1.1167468310299864
Ni 0.8973523644524241 8.161446877246904 7.327181957386295 0.5298488257127391 1.0509705559651255 -0.06669467311407222
Ni 8.607457041139467 3.82259682483118 5.318085152001557 -0.3973711926655866 -0.17130103367225336 1.4569040363784265
Ni 2.433483831332204 7.493823361408803 5.681607802408228 0.40414116439956854 -1.6059179765177052 0.033690707384225846
Ni 4.353331442323786 3.9634435998565296 13.160146176984952 -0.06462622062081774 1.1820538797679128 0.7629717777877957
Ni -0.31230143795408033 4.384643055496647 3.2267116732905086 1.9288269363086585 -2.1897571404039704 -0.46261524937606135
Ni 3.24977740180116 5.266962886465963 5.844332018202731 -0.8729054640961612 -0.10487812616232907 -1.2585475412502778
Ni 6.651886818899581 3.156906010455905 3.7335372016341393 0.7336380618206849 -0.09726431837081313 -0.6208612496365694
Ni 6.174574289209578 3.1238096538269424 11.634865580423257 0.16028334240551106 0.37764311810903994 -0.8731103810181157
Ni 7.2526055735724 6.434971133667513 0.44724931219887226 0.676067462495068 0.3727886182302161 -0.26353396026674614
Ni 2.2053973165925123 4.7233651697638335 11.726859395841133 2.096849813450272 0.6373985851699604 0.9493834418492425
Ni 9.06399071826024 4.516112991845894 0.7394367838764352 -1.0301060538112905 0.8383521516013239 -0.5114829216110418
Ni 8.844495015285931 8.548403301705951 4.287449440879981 -0.4341873330526716 0.348696867388335 2.1729686080917223
Ni 4.877389454762994 1.7101633733381256 13.415716816211075 -0.797225299654027 0.5836332185230464 0.365936371195073
Ni 8.496571762475625 2.515110414166473 1.8490386079238845 -0.8447799095045386 0.3060461225973439 1.9125829636459708
Ni 3.793782003021779 3.519134953041287 1.9999881405958229 0.4426010110376636 -0.9594325985551282 0.07471342965349068
Ni 7.088945523385372 5.156373523815569 2.677658929827992 -1.0353385058548232 1.5027470628544701 -0.12947458455477057
Ni 7.485815134294893 1.0334034505848482 3.5173779517114454 -0.19177755635905036 -0.36019278384307646 0.8900295253709575
Ni 6.510401974970236 7.410865156514022 9.677253537690587 0.12210683133578971 -0.3939593387705602 0.8232559193898339
Ni 8.704757925311007 6.700010160586398 8.48864306279033 -0.08975618291922606 -1.2939642301866747 1.0434264250692804
Ni 6.894436228796494 2.366264659402635 6.588105821151249 0.9908473654209838 1.60827927766103 0.26720472425011405
Ni 5.197931228954031 8.851079146585127 4.021862044598677 -0.512285362907679 0.5154537333333316 -0.03091160197719193
Ni 7.1670118666828575 4.890613201613907 9.990562939565471 -0.03274119898676297 -1.3904019388911344 -1.57862674490192
P 3.1204066196723015 9.363522455496538 6.882953762737208 0.9153302089192752 -0.6859826647262509 2.259906090615231
Ni 8.439811372146325 8.584440323718542 12.640936563478565 0.414437404119254 -0.8146152129957004 1.054676801172119
P 3.8314188209820688 3.677745936248876 8.739558573229916 -0.6612692211399709 0.08339167415377896 -0.8311070400031364
Ni 7.085949373749221 0.7158088149402346 1.325884988800774 -0.036372625091763165 -0.40891673141134094 -1.9701432785589426
P 8.024077115379557 8.388775107202138 7.112106499862851 0.021850520216188173 -1.260869761625551 0.06144525178967482
P 6.895906561488309 4.509011007523166 13.157506976040022 -0.10789634416336255 0.37120173335907036 0.39544106552240926
P 7.681850245828108 2.583319055266006 10.016210535293446 0.604014610392876 -0.28889352207745733 -0.07715906298050583
Ni 4.067152915194281 3.7261374518228805 10.909445043471246 -0.5141635537669984 0.14775409959024877 -0.5871219484025954
Ni 1.5590150220946526 4.198548872540167 9.42164128527507 0.07846595471738746 -0.583368394897434 -0.9886447013427101
Ni 1.3912583845964672 8.553045484166901 11.72329915630435 -0.187346002950258 -0.25225221670533976 -0.35623302786438
Ni 2.1335821990790946 8.341465534552299 9.362983333509542 -1.5543730145608778 0.8906910702143563 0.09303922454587203
Ni 0.7911850967279784 6.388336619423351 12.76150199473229 -0.1586280661902752 0.5628890439971597 -0.6900164684759923
Ni 3.043977061824195 0.5253017844332274 12.654362827851179 -0.46221492861384916 1.0364790472171699 -0.42931072168666057
Ni 4.831171072412742 7.685484464368254 6.247808878849999 -2.232027876147724 1.0131082337017132 -0.8642624437091825
Ni 5.247460171704722 5.391728475635552 1.5870521396312134 -1.6851244089455428 1.4239450649539025 -0.8224892164271383
Ni 6.11842422565801 -0.018956194873906096 7.910409301451772 -2.014282434970002 -0.434830108842993 -0.4511165047078425
Ni 6.772204420492045 0.1544052768664739 5.689958182412686 0.6526231154291986 -0.7146262966048724 -0.9114864096931528
Ni 5.003042791972924 4.881319589316587 6.995804108677847 0.6673653067353797 -0.11988077021874839 2.853848661484085
Ni 9.198345835740595 1.5631116094058095 6.148776885999794 0.3047968235712751 -0.9701466425385228 2.8470897454936965
Ni 3.3287499878898266 1.9619786534060981 4.06717510889529 1.4482401900558413 -1.565738318975026 -0.5642720403876152
Ni 8.157267063556965 1.0349385149046044 8.089132401460795 0.4250977120465776 -0.2283620403513035 1.9188240594596757
Ni 0.26826728567808344 3.769230221281099 12.11673336724526 -1.6286282736310271 -0.4818527574494346 -1.089755390042807
Ni 8.803510647423522 3.2754296212168463 8.011092875552029 -1.1778197870819072 0.28901642080856677 1.2672712942765207
Ni 5.506414425597104 5.905170501092349 11.881788074156391 -1.0240631900513202 -0.26906080362224627 0.41209924290438066
Ni 6.690550095531515 0.4562645784960434 9.979382862682426 -0.7333981778957369 1.519742311860886 2.1714994797453633
Ni -0.2810582553593298 1.4239755988332008 11.552616649223205 0.9140171465348066 -0.3498358660887846 -2.088416595081255
Ni 0.7110057281469732 0.5111653216283392 2.7100608085628957 0.7987278523414825 1.5043987395252802 -1.3493694464298567
Ni 1.764954072702921 3.5082877816733706 4.327971439971378 -0.2751787435945261 0.6753974330112368 1.578538556063488
Ni 3.824899421310815 1.3384188814453382 8.954106930354408 -1.0459803018393856 -0.9643495762407714 -1.217095187642762
Ni 1.4434320767173405 3.506798954230715 2.059350742368374 -0.44067525476986047 -1.9948577505864868 0.7742851459180858
Ni 6.328912984973027 6.807806815859886 7.495929913529529 2.1549292340915085 -1.216687410681382 0.35044650308958997
Ni 3.1495173574951503 6.770096018896235 10.809736142740283 -0.17691709430745015 0.7114404426777232 1.0432328210012356
P 2.891552572772732 1.5160239737660566 1.5937509383856199 -1.10419727649975 -0.6905150053789656 -0.32310564918279194
Ni 6.071697237659646 3.203771709085572 1.2456122217280245 1.120935158079721 -0.07015126420410499 0.5744212130064752
P 8.662737851401534 8.431239055131782 1.4277781196059947 0.048265776984923334 0.050404420594480935 -0.7295896027829241
Ni 1.2459173851168914 1.4274063751141017 8.737690603395032 -0.3894869048215034 -0.34816336348236815 0.5169850823761936
P 1.2972865555762059 5.600931849767158 4.892155663834 -1.2495391671040803 0.2032271929568887 0.7787148995546653
P 7.437321897591267 4.815191607686604 7.149704478846376 -0.04512748846625777 0.019133378395341242 0.28651216632947435
P 9.472179116684108 1.9329696367128724 4.290047953373063 0.2895820635040497 0.7985422186932376 -3.675871994018398
Ni 8.675018365959584 6.313821268287229 6.034370206775933 0.2049691153486599 0.41516451209326566 0.021505735282259738
Ni 4.872765767052885 8.5690526910193 -0.05612139668776463 1.169607940695076 -0.444865381591808 -0.6019351021560279
Ni 1.9739262624490208 2.9157529542474436 13.470775689463057 4.6565845849982255 2.5634132488408046 -2.51697655464482
Ni 2.241591543987248 8.544223488016012 0.826324198587267 -1.1819307239264871 -0.05963031006812312 0.5062934069903022
Ni 6.7046985799244485 7.1147087113061005 4.6817760235489425 0.03323639345562663 0.12979751511182808 0.19680354881873205
Ni 5.860884820204923 2.53188515317875 8.684770648077746 1.155195879034804 0.333167147183852 2.3401278516814603
Ni 1.984856660195719 0.35332372005571205 5.2018650624577925 -1.8019417097476194 1.6578946266953125 -1.695841795363047
Ni 8.785811170869223 8.670366936123214 9.959392811236539 0.9044760398135906 -0.2389698977741368 0.008194362885334273
Ni 7.646118387204383 6.449766934339863 11.502254517947154 2.7441965109718804 1.0486570773406003 0.9243660938692982
Ni 4.522493680885845 4.0042800097122155 4.10635808802584 -0.6641925654343529 0.7797073453749217 0.4985973238976251
Ni 2.3758911772150824 6.034171388204399 8.239121131826572 0.589528758071875 0.8209524680676378 -0.37272151243770646
Ni 4.179637989805821 7.9813819830644075 1.995508711942269 -0.33871430225432636 -2.370393849654853 1.782694174371917
Ni 4.243777785720456 7.835236461923273 8.960562523135263 1.1467662602102122 0.3134516710327957 -0.8062910094007212
Ni 6.871511985129772 7.688249429618899 2.4310480726465182 -0.3118195347460114 0.5179495031719918 0.053004063000857096
Ni 2.345180643444537 2.2133962963310014 6.829330082150445 -0.9793198243973587 0.2959424585044387 -0.32759659507461
Ni 2.309282332063248 5.580541386965576 2.876791912126979 1.4303252574486334 0.5918286098496452 0.8878147771078259
Ni 6.6949795883578 0.8377816967329179 12.419350028921745 -1.2912450314832986 -2.134252679578763 -1.3730572769650997
Ni 1.1401089155587505 4.346358921256941 6.920458343228989 1.0657176323673128 1.0852454179875954 -0.8814438405844754
Ni 4.554350889208498 2.6005839051755535 6.89054678269475 -0.5583536180206513 -0.6758131803924168 -1.7824949138769175
Ni 4.381203031840325 1.5902896457658322 11.105627188273644 0.7836660729123537 -1.9488229198146114 -0.01569015704174717
Ni 7.85412884990678 2.4946829618632105 13.113004906567761 0.11682552833219235 1.6445081780860775 2.1395365536855215
Ni 6.303806360707132 4.950009093937971 5.199875027267361 1.4645101308604582 0.23492298139827283 -0.22297069413240309
Ni 0.6073528217992848 6.6379787662675716 1.54401208021289 0.41622457792666384 0.3858490509586 -0.6744633512327417
Ni 2.0089090836637076 2.408229249059587 10.857079930679175 0.09844445472184335 -1.3818823314558977 0.8195298766884984
Ni 8.939354592346533 6.470629013287875 3.5667922270069257 -0.20796393631092572 0.9253536545935482 0.9322395830801041
P 5.597084941592346 1.8954530346330456 5.053459482763957 -2.0972095107825366 -0.7584805747856616 -1.7399814659947386
Ni 0.650926454779355 1.5478719347132894 0.3856201787108255 -2.5371496871585855 -4.967881157361231 0.20016295220926816
P 0.4788549919100954 5.4972502765556674 10.75638341025333 -1.518982807987042 1.151880698618642 -0.5549062829019992
Ni 1.796561601889228 7.929994317854253 3.4287677509598273 0.9493806136357649 -1.0550886918985571 -0.38308382950863706
P 5.383489064136138 8.195643671550872 11.404373823336767 -0.05836532731277045 -0.10254202182998468 -0.5189666315825965
P 4.1914746303437 6.785844299236867 4.153498433705488 0.06663708040325944 0.16861114554491607 -0.16125676206237388
P 2.5222493879908825 4.837366813944288 0.849250291729073 0.2572617541047892 1.5057454833611617 -1.7944515720181613
Ni 3.591791581717944 6.411418068472217 13.381529269282527 -0.8298489992263192 0.30569131036108643 0.07999396132613965
