# total energy = -340860.2883249441 ev
CRYSTAL
PRIMVEC
9.34977992573096 0.00000000000000 0.00000000000000

0.00000000000000 9.34977992573096 0.00000000000000

0.00000000000000 0.00000000000000 13.68434801154720

PRIMCOORD
 96 1
Ni 6.089015965222777 3.8437785731784877 0.654241483109325 -1.6584304445941247 -0.1804266501226054 0.8935573360185579
Ni 9.213151346452232 4.135613246232642 11.83945116394095 -2.18145761939934 -0.00811311602543764 -0.547489678722954
Ni 6.790529934378357 0.16192322435591125 6.170149613346786 -0.06871915974326875 1.6783914610970834 -0.2909673738873505
Ni 1.7345243767546008 1.170620464883197 4.7305425320058045 0.14212492632892945 -0.9911803232803703 1.1028353631552168
Ni 3.8505197643255107 5.563829490993293 0.8584995748641374 0.06649772661191773 1.0988977186637072 1.638607496330926
Ni 8.425161265065276 -0.12368169049954389 11.137211651882444 1.029437052768724 1.1912304040608581 -0.15809276251209547
Ni 3.9382393972539083 4.511062998937047 10.515162395178551 -0.2911486366602211 1.0238107077208818 -1.2480183595841796
Ni 8.310617114243938 2.212494463615889 9.867550840838096 -0.025078797345498744 -0.2911589210728663 0.008189734899643959
Ni 6.364404375825315 5.289488255714563 11.300986132614376 -1.5378387643512808 -1.4537312950773995 0.5597450990515392
Ni 1.7517092718006881 7.863669596350505 4.568970859365743 1.0799394323936498 0.25009968913871117 0.578551947345397
Ni 0.755555695687892 9.281788079060137 8.024843903354299 0.4079646519107168 -1.0844290927338873 -0.03996034244302151
Ni 1.9357596847398808 3.283810918551046 9.377800966561917 -1.280544614346659 0.544802618809094 -0.09187117237969984
Ni 3.4419811413446615 7.492586190755198 7.436950326787981 0.6907916560791199 -1.2823641840539013 1.9470234047120276
Ni 5.211015554886591 1.2279159147430583 2.616720968209766 -1.418719297778589 -1.0376730675252712 -0.7952908016354755
Ni 5.965654972166149 2.6664823656060053 11.733876256763635 -0.2008250112732993 0.22371297161506631 0.9122690534954482
Ni 5.5987696176457575 0.7472904904535386 0.5265150779215669 -1.2672810644685335 0.7209944049147453 -1.1188852175292279
Ni 8.803462700571126 3.5679881220498433 1.877697552946516 -1.1266653756952791 -2.2840055547665954 0.22344352000376355
Ni 3.083080498668317 0.6320086420156951 8.704449468771037 0.17664969957867643 -1.3159633601655851 0.30394733108678623
Ni 3.1184787645249483 4.313605001941222 7.29078802603337 -0.2675559369419457 0.6584070691008274 1.4621668274392625
Ni 7.106458989659807 5.158535241560317 4.431935813531693 -0.02316538237286978 -0.09450141091369531 0.0028444114273305852
Ni 9.118868168190671 1.082854083056415 6.184558558806812 -0.345685848476153 0.5089812382351105 -0.1905413699591041
Ni 3.530186962816256 8.126230109236378 0.17998606371365708 -0.9187466907999919 -1.2617524213408204 -0.09055476756112146
Ni 1.1893667731353217 5.422114880430969 10.399844082599968 1.3214912319623497 -0.05631358699006431 0.42897956359948697
Ni 6.655893107031425 2.8807699660201966 3.229519552901363 1.0735898360265381 0.7797196866700958 0.46341331979732453
P 7.467463332763447 1.9284575068122451 7.59352641214669 7.71547281005759 0.10946188887826955 -3.3250850768702542
P 0.856678237783083 1.1481248949806468 9.819449964312467 1.2656062478692718 -0.5883864169373156 0.6814063582094781
P 9.354828557895848 5.458074133068212 4.579221022825496 -0.16582329838713378 -0.9596166895414764 4.2494470569744935
P 5.783137923093963 1.3934350643626938 4.571598147454944 0.8645568350211498 1.2832303887089385 1.0884263868187383
P 0.2785991249435762 7.256681899728083 11.316202899038482 1.0405874129585886 0.18345155299185825 -0.43885619928325065
P 4.83606134050506 7.215477420692116 11.865766118841503 -0.12888091683482966 -1.672967461868035 0.39331296343581296
P 1.3990823312875236 7.522907526247288 0.24545322101110315 -0.06341240281837465 -0.1206256188045729 0.26515632636151754
P 1.3889004212194116 1.5554106474847957 1.5648595348262408 -1.6070389774960259 0.7897336192626722 2.23161238587686
Ni 2.2276878555908035 7.930277426768529 10.216734257496269 0.07851094902270996 -1.665043321924952 -1.4003865609076722
Ni 8.080537735955513 5.476399701234879 7.089395641749518 0.3413172870948122 0.12980265731815066 -0.4863236487365948
Ni 8.649032389648259 7.037663310797394 1.6012329827031693 0.3973426534204963 0.020660099452512806 0.831937763434548
Ni 1.1468626747242692 6.782143182008205 6.5230000135942285 -0.7847569919836872 -0.8382858171397628 0.6394840069440793
Ni 7.593891053554088 1.7979252327434583 13.42761595958976 0.4247092183589073 -0.630645839827159 0.04830640041487164
Ni 2.865987964351065 -0.051434072980431414 2.756793757460831 1.3980877375711664 0.5763395130751107 -0.6346215366454554
Ni 3.407349557421534 2.148897262253817 10.710889747956186 0.8780183598426944 -1.2448944692432171 1.316473209922468
Ni 5.492509371618126 7.881200433244637 1.264247288611441 0.23592519741054208 -0.19632069564504254 1.2074221833293723
Ni 1.83517475497611 2.093939257313173 7.373071697057635 -0.9179416784001933 -0.035673027921577276 -1.2438138345845289
Ni 4.547330794303627 9.1385027055121 4.729419623466612 -1.0909139291272825 -1.6438507470077366 0.012584007312597682
Ni 1.5762700059438932 3.4603815077487425 2.8100940464647657 1.6912433773590874 -1.5797032657955503 0.43551736471800484
Ni 8.236445312067325 4.761150905733974 9.372204188447343 1.1329653497713779 0.5382748449929052 0.3820322483156711
Ni 4.020021920087493 1.7503909528662496 6.103848455702164 -0.15004443828632225 -0.11401685523880363 1.6531640539888626
Ni 4.383681600619365 4.091155043869123 5.26328736812607 0.2918644317803231 -1.4734534560966752 -0.2962005972618318
Ni 3.1555599907234155 6.006242365743444 5.573826275423803 0.21541884992707416 0.9486843588996887 -0.5487250937919518
Ni 2.5896271766621313 6.143459732281193 12.482779584211434 0.060231948207864004 0.24180942410546097 -0.19262010686500375
Ni 6.477518010356094 6.734393857198429 9.505174885055858 0.655570885203613 0.8286953452378503 -1.4233691378457745
Ni 0.35036055391949145 5.283775540331996 2.7006333708537418 -0.00013215470249009498 1.2210600858277811 -1.8172534004040253
Ni 8.369277631936622 7.415328961285218 4.638309760427381 0.7933120806425498 -1.871013110623984 0.5371924105620038
Ni 6.639764737088824 6.2580973808993 13.61593922184128 -1.4374703531338469 -0.6629617783510453 0.8958764710700378
Ni 6.011674587735705 0.6586068952404558 10.441430967624719 1.751688212908706 1.1236389301641294 0.22841500507642598
Ni 7.374442374758265 0.31427414427864264 2.5625034658195305 0.03502382437335258 0.2867137408173191 -0.7647152428414636
Ni 1.9754588492478724 6.690375094479723 2.2443697324902754 0.8182903478544424 1.054810755646822 -0.6002448589377984
Ni 5.865883473234266 4.86940265483278 8.138286650129702 -0.32427755800370606 -1.2111016890634885 1.544019953461328
P 2.99216324109043 -0.2622183109496994 6.3347580944258945 -1.780207146284005 2.0773749925551126 -1.312259943172069
P 8.00472037255577 3.780957403529596 13.742506254349108 1.6665607870107426 2.1881185763592828 -2.677269410132028
P 2.991779900123678 4.850057960681334 3.7588713539768928 -0.09427515383550215 0.40038375423966527 -1.0853739731456598
P 2.9556243021132205 6.013394947196249 9.100077915974065 0.04190563909485041 0.30987372387355017 0.09807447297693432
P 6.687925452204383 -0.063779522065771 12.577735946609728 0.17134654219820813 -0.20051082246699015 -2.784347115048837
P 7.676374809863439 8.624171325487461 0.7138547433510826 -1.468372184919026 0.3222661840006321 -0.11428399285726122
P 8.608650691223856 9.350901650431561 4.272705325722721 -0.14485543788621505 1.6425623672136165 1.7269158910600324
P 6.632864599687293 3.573055702634707 9.958975791452437 -1.1747203222209768 0.26037073204741606 -0.4773366147466359
Ni 7.602156258788441 0.028122267312090603 8.617198259804452 0.3652604281739709 -0.9152723590981463 -0.11593952618281322
Ni 9.123599156707167 1.8647761574330814 3.6005842589373165 0.18990939280206004 1.5164584989032917 -0.35544472763512974
Ni 1.973401897718961 9.476001702508087 11.761053261350394 -0.9698270544155749 0.8070353437659133 0.5602001843110869
Ni 4.756672361268753 8.357356662848613 9.828057371482997 -1.7912724029592313 -1.5321085467357227 -0.8353737856992903
Ni 6.524425854994951 7.313771654435053 6.1322708509418815 -0.15214785778257023 -1.0970817485008912 0.01608045050163037
Ni 0.21474480464039022 6.944062666452245 9.019106954016433 -1.1918893778010957 0.7800115068789018 -0.7209805209576744
Ni 6.342067752177273 2.86713798725132 6.018745826105322 -0.16505068188716737 0.7446958622967433 -0.3541002977920934
Ni 0.6782021634872406 8.844826125861601 2.8280072893476818 -1.1736080629934045 0.43266986796688073 -1.8553391515321533
Ni 6.196566480845815 7.754576367080781 3.530164523345032 1.2352929415977112 0.5436787896172959 1.3157260473437986
Ni 0.5282784463686248 1.9607235964771248 12.328036990647359 0.25878744672069626 0.09725994749543895 -0.46830664333388383
Ni 7.563186377095246 7.119819824818054 11.61933865078807 -0.566700961544082 1.1479265990669003 -0.18561076542670615
Ni 8.814962929573678 5.921355716057137 13.254343972662062 2.161702805369916 -0.41852314415285347 -0.2860655657103589
Ni 1.6430835315148087 3.5746077660610673 5.462778007223646 0.20626160890783832 0.7210381136684872 -0.843378915391954
Ni 2.827448172523005 1.0291769979315024 0.27292567863565126 0.3323688196522727 -1.0727773674275718 -0.37641618768047436
Ni 5.055884010487959 4.671701563565356 2.994710121074409 0.1896412267423379 0.5167014896975037 -0.9322341837634656
Ni 4.417985942253803 9.305424322083265 11.989815255682347 -0.012803836632887627 0.9089438457769573 0.6840319687577833
Ni 0.1114288042330053 0.29850387089766545 0.17987293137956692 1.5547023728758387 -0.9887066649288971 0.5179921834844692
Ni 3.8322035459385217 3.041062588800462 1.5595638196172614 -0.3615966061691385 -0.1024432914685913 -0.6398511604755109
Ni 4.055878325148291 7.194730259589139 3.3838657158071386 -1.271506929624423 -1.0369145920926917 -0.3990105280412225
Ni 3.633539427364381 2.1572559652849392 3.9246981113478974 -0.5693664241913872 1.3794374694598306 -1.2718789682518612
Ni 1.4844645192967034 3.933031569973892 0.2883771245296472 0.27712044070192915 -0.05440942798881597 -0.3991917908140931
Ni 5.802351720329932 1.9541974502626693 8.361738904583161 -3.5838072175706537 -0.8911448699223232 3.3508187341909323
Ni 8.568287692358806 3.431789881496873 5.729307501582349 0.8551471116714756 0.5345737419922342 0.027443183812617254
Ni 4.238647818271753 4.278702274407465 12.819099573990169 -0.20232396441632897 -1.0373318821357684 -0.6397141206770144
P 4.183016629194374 2.1112083003763527 12.89425403801082 1.1268828910227238 0.8933426489045905 -0.15825422779062423
P 1.894125115838777 3.6343154590775613 11.667137529430134 1.505090623385982 0.501528124391175 0.3927378076586333
P 5.66989339164771 5.4368314336423635 6.184723114929125 -0.31692163185926714 -0.46466441859560614 -0.868946222338097
P 0.5941354894785964 4.220864537326345 7.802705292945439 -0.3031981116255875 -0.002975537688556166 -0.800046571152906
P 5.685086783622624 8.41498870477684 7.846263111526075 -0.36495626666999087 -0.5090653133084846 1.0082020546493475
P 3.923289099550593 2.5957232330114506 8.380199109577175 -2.8942887717770023 1.3200560421777203 0.10837276957914883
P 8.577684220934062 7.638349255917606 7.107623037229577 0.02754757060096546 1.0947929524667146 0.5291134902086113
P 6.6621107105165445 6.133118875958574 2.3047721141367608 -0.40350713035999536 -0.9824131186107016 -0.8022266095233603
