# total energy = -381173.8609467455 ev
CRYSTAL
PRIMVEC
9.16969523347986 0.00000000000000 0.00000000000000
0.00000000000000 9.16969523347986 0.00000000000000
0.00000000000000 0.00000000000000 13.42077586119624
PRIMCOORD
 96 1
Ni 4.630191834207289 5.302110432952446 6.51265968929177 -0.7457703263078447 1.3405755022873105 -0.6716158544816175
Ni 4.4882999678802165 0.0035936036198513433 3.4670829138916015 -0.3949075616164424 0.3243636899596091 -0.9195331912570293
Ni 1.7806631460549436 0.9825511994751497 11.574963331668268 -1.3844038123261706 -1.537703524324997 0.3983854928627139
Ni 0.982193581355287 2.7330460477262886 2.810216370114513 -0.5222329610386942 -0.4647009282604965 0.14637033186884468
Ni 8.824685592381824 6.558661300110112 12.763037664628525 -1.5577596716449238 0.3321564465311505 -0.1913399546009995
Ni 0.8203833027213988 6.69356585855679 1.3633759844083526 0.8248610590934244 1.0549935610815897 0.17383074207264254
Ni 0.9763341460067669 4.948270227586732 3.496488293039699 0.904628763341371 0.9112431833340952 0.813592942378773
Ni 5.9199094895583775 0.5032466370575951 8.955107086756684 0.1670278602181962 0.24222234327316353 -0.6659774252489176
Ni 3.419526122736626 4.754358679362704 4.539657597770657 0.42154110504357084 -1.8330659419562494 -0.4658203865769203
Ni 8.248140995295442 0.7689083007300809 13.135987515168443 -0.07831503096181996 0.6507084149049891 -0.42882992539550013
Ni 7.7393054289030685 2.764819042221785 5.4992708042499965 -0.5432183050411097 -0.03128518326652677 2.3072652966254843
Ni 6.901323646806271 0.6831239665008557 10.97157811923188 0.6015535504468931 0.12045618310624415 0.3304314934202438
Ni 6.099149525172652 3.8774056918962505 7.201923683819807 1.3954338448880872 -0.775267050215381 0.8885238873597084
Ni 6.4903929179978554 0.7712988403159324 2.2207223292109473 -1.0211023076507835 -0.4796076701689998 -2.607833426827393
Ni 7.501856167009599 6.010139292108358 7.798638859835985 -0.6006765471585784 2.0837934944869465 -0.8823414126980804
Ni 0.0878172556952139 1.1980665500170382 9.802293409077025 -0.03635077071489223 0.9784433353296763 0.3763781353536873
Ni 4.496378469510962 3.851730544829183 13.321502373332002 -0.4237278282822444 -1.4058810083633402 -0.587531268025872
Ni 6.078260959094516 5.762860116766355 2.854531673952271 -0.4397763971046749 -1.9058027074993438 -0.5664777897896826
Ni 6.187196940221932 4.531415875562128 4.776641956108304 -0.1401102098917458 1.1030395087462228 0.9176909958419679
Ni 4.766471846961132 2.5396846812251272 8.657675179497316 -0.6676465854212243 0.3832679204949851 0.7200484960617084
Ni 6.512097586964909 8.19371885320864 12.928045416041803 -0.10204605603017264 -0.5950964819676396 0.40400618148360096
Ni 9.283858088590184 8.23305684639354 4.732340406813617 -1.8675410929149838 -1.3110888056821033 0.05538464741789171
Ni 4.931379648694754 2.6961105147312363 5.459840197141747 -0.5099006647255863 0.4914902805391987 -0.039694490376144545
Ni 8.920206309166696 3.5322950365333385 13.304713578058754 0.1847551022946302 -0.4257731408470473 -0.24525907321695828
P 5.938551480268145 1.5661748013957377 6.994921478469728 0.5967635852574175 -0.24212541268398305 -0.0244470772987708
Ni 3.549405688114463 5.877838927149911 0.3862495767206589 -0.6863171652475342 0.8886920375064564 0.4899599599376013
P 1.3344015809431669 7.383833017759519 3.2143835316098324 1.2870333073947964 -0.057412733591514026 1.3691273457830742
Ni 3.4660256480141616 6.488889087955355 3.1176597507909607 -0.791630579175069 0.5820481334241138 -1.004201932351019
P 2.439175650152939 5.144685102649798 7.09584589674268 1.0675490291490968 -0.5885427400095219 0.09004054692886428
P 8.286589528028374 1.9799297963815308 1.6942387670881183 0.06889733719234585 1.8876417203196008 -0.9423594451229256
P 5.148793126180529 8.288744406442932 10.546073076584753 -0.7070034899522921 -0.4817170032025187 0.703492134364924
Ni 3.486712480793913 0.21822866340515473 8.700286753933266 -0.7757563311469737 -0.1665252095501648 1.6799845166158163
Ni 1.5625802808063483 3.441643427995828 8.35047387877893 -0.09544320600167433 -0.3000713930711477 -0.17080892452718324
Ni 0.7469835590738814 1.2143335896231016 5.650697319834331 0.3036534539954512 0.6692059594885443 0.5745896202635394
Ni 3.111121757984239 1.6465013329341347 2.0560492716790812 0.6189030974689341 0.751613415352183 -1.6267400554693792
Ni 0.8930393840735094 6.034604039385121 8.257240084022103 -0.19216759270861744 -0.28750924013542095 0.3083323475283593
Ni 5.9664640330082 5.658949128707779 13.34233133639016 0.6896189759272575 0.041134822367096896 -0.8497753058366009
Ni 6.4059400235379655 5.0624421047767525 9.550116699431978 0.7998246849500871 -1.0279504409208684 0.783572998977915
Ni 8.58586087618119 4.974917362364195 1.6347311119429604 -0.9787737220859015 0.11548495514389788 -0.7265071072028585
Ni 5.325053010795947 7.18229228297842 8.695267262681655 1.6020098997125507 -1.180551069970141 0.36877692596766165
Ni 6.344649779610722 3.1408224013236077 11.331214489047985 -2.43170746096267 -0.9563683578075076 0.6237959067848612
Ni 5.493124357436048 2.4460437519933795 3.1263966365500684 -0.9624754991465103 2.2045985762921774 0.7877880655005272
Ni 3.2627976892829404 7.232615571229872 7.135558013499128 -0.35959268836523234 0.7346554473416057 1.1176066079271205
Ni 1.6395598735306454 7.4164863030116 11.432138907320937 -0.7131872501655008 -1.8991723466670196 -1.3682624266796177
Ni 6.3448881916906315 0.7870936406098694 4.876183584317787 -1.5178895749228634 -0.4383484064088967 1.0445474260476009
Ni 5.278360921915409 8.497189921845997 6.990532862260335 -0.20694372257652746 1.226534735789107 -2.0648184960463407
Ni 3.3356142403042206 7.309686860907981 9.708978921000844 -1.4297670709523183 -0.34844875593327085 0.6555716565345613
Ni 8.645849023364317 8.402907113937573 11.242759022554248 2.03954789440501 0.6029038938272003 0.5320754010504126
Ni 2.658551442450269 2.2334627039734416 10.07197048235689 1.0848787786767962 1.3735637842878732 -1.1672875200920154
Ni 3.3113145475443173 1.6666288142956394 13.07948568616921 1.9714779382099659 -0.4468394745990433 0.6988289245612996
Ni 3.3664427561754633 7.9921872881229215 12.658274811869047 1.9755670206776752 0.7925615756297705 0.11789999234329372
Ni 1.0507553937197383 0.4475764994294259 3.3811500305972024 2.847070462219987 0.9334636852951923 -1.64651698098599
Ni 8.24402380206933 1.251681758910304 7.636515894589602 -0.4042568640418263 0.37949945459148837 -0.38089350672553757
Ni 2.41298700014453 3.1528071931866997 6.09807850475214 0.500202463601216 0.26545663121075574 0.19503385851281893
Ni 5.915122908569446 1.363790454639578 13.0983688398675 0.3522884413943352 1.5125311388244274 0.793744283083962
Ni 8.128971634122724 1.3767380645176848 3.750100060011887 1.2686352645035828 -0.250477127082788 -0.170028594717733
P 1.4775405258420682 5.58152939060519 13.081002353785243 1.4657121215883597 -1.4873525826762708 -1.2225325566082492
Ni 7.92964996562385 3.8193065019616292 3.4552054074644687 0.1150427254001567 -0.5432355314322903 -0.5410086989843005
P 6.578046036145748 6.752096024174323 5.555731369620015 2.5479372646923926 -1.5453070477038675 0.600513796328469
Ni 2.197013164833587 4.026495769097483 1.217626427234453 0.3930666517529618 0.13205648634933387 0.1509327544285465
P 1.3485962693931028 0.9730147162788103 7.866104893602396 0.7587016896575322 0.5098011630332446 0.016520880473158646
P 8.777984333805904 6.428772565036893 10.055046892561542 0.9774259498087554 -0.36941995886829926 -0.027386876653385094
P 0.5401775852049574 3.473022125589937 5.162476145628199 -0.37222760352042344 0.7228204023798906 -1.1298980236999636
Ni 4.326436505013118 5.0011702002402725 8.87056891412975 -1.1241544363479672 -0.3387780656127262 -0.5833164586135761
Ni 1.931660519895444 3.5014481812713334 12.042703991240721 0.011152931293025954 0.4698328501704231 0.5127293924236331
Ni 9.04562940258932 5.792982566093253 5.9017993411807135 -0.7094640356776426 -0.48802957568410793 -0.007721022793341542
Ni 7.841584211183808 8.229425647022625 8.996227668723668 0.11243279858113538 0.1520290728165188 -1.1496628650317169
Ni 3.1385483168690964 1.8658129373637966 4.182061485176845 -0.6751711759330435 0.014114070803878918 1.8627562699318305
Ni 6.902634913245769 6.987225353136374 10.827694595068035 -1.850246567500594 -0.8306398705587308 1.0397379204740997
Ni 2.6492900501153622 8.723608040196007 5.057780231645004 0.3255129730727039 0.3531479611811531 0.15782022557699915
Ni 1.0929910106450644 8.674871109245485 13.231234058061421 -0.16470204029849697 0.023117302743753735 1.105550705203851
Ni 4.625460271390644 1.093247762115735 11.19648415481355 -1.3560985376235741 0.3536593535999329 -1.2035938107222175
Ni 5.114113338249225 7.291723427656414 1.5819475944207602 -0.12641471468252424 1.3581387079820544 -0.8696224224695153
Ni 7.767291339206172 4.684953255023191 11.703949768715987 -0.0738089155613503 1.981382084697555 0.9442995995684319
Ni 0.6196880138544368 8.182687709665181 6.8830062633129945 1.0398711036178543 -0.12399119284269614 0.7543511259983201
Ni 1.0990796883781118 8.282903310485175 9.103862470076507 0.9065236663712387 0.19547814513908918 1.296958022707676
Ni 4.8225353645211495 7.372031619804049 4.886249158937615 -2.168269917064472 -0.09767466643535437 -0.25003309756683395
Ni 8.61842246447946 9.039192276431791 1.791002894566667 0.5178533439137598 -2.7006733908782654 0.40111908974379307
Ni 2.4082004191555986 4.931122897224083 10.16164826924493 -0.6241157520181251 0.17143550236758862 0.5072470291528232
Ni 8.160533725624454 6.322816734908335 3.704268088558095 0.799032785176411 -0.1938688916704403 0.33265292655159484
Ni 6.712042794749697 8.071505153169399 3.433705222704414 0.08991559131522579 -0.5105902345934432 0.603004938181439
Ni 3.5769973015161796 1.190364005896918 6.773478836833498 -0.47426106114510586 0.17235235775490318 -1.6470471424578472
Ni 4.453354258782862 5.950637138780428 11.341427695763452 0.3750715007271218 -0.13015052757587264 0.20889313299341444
Ni 7.271210819088903 2.8106675191272625 9.246485161125452 -0.579963482980943 -1.4984497210306966 -0.18109513694453974
Ni 8.433964872193343 4.029695992785485 7.721629924086469 0.9303953307825139 -1.165235522658993 -1.3982080651991147
Ni 1.2656105261941881 1.8860321156791124 0.4677250710903072 -1.0546516043611385 -1.0072659159883235 0.8953694495266322
Ni 6.613285175495299 3.534358217994085 0.9546358958264805 0.3354608283140352 -0.7186300184476269 0.8082311638462275
Ni 7.564787786410058 8.47529268927594 6.437140829041681 -0.12508031214181686 -0.7351933221229467 -0.142318016176342
P 4.737807379199826 0.011546480423875509 0.6928310060312836 -0.7859921499423689 0.8448981802499577 0.455320515486861
Ni -0.13496141055804042 4.133542792976392 10.0026521701235 1.6425489974771776 0.15608190272965375 -0.4125065056451283
P 7.325697149043373 6.73985448084056 1.121353795428331 0.5743937022026494 0.8110066697088355 1.0334785698279492
Ni 2.8578089230814747 8.53396040032419 1.5966429482385038 -0.8580745697309158 -0.7679779727531355 0.32848465410651817
P 4.310077768453244 3.7350553408001237 10.987348161348287 -1.7541628997014433 -0.05135675720542123 -0.8510161202222375
P 8.310274851197745 2.2446497323383783 11.593630997525102 1.2800756451300406 1.029097152930802 -1.088653672338196
P 4.302806200016035 4.1528358320582175 2.3263709745442394 -0.3982736498751979 0.4208762177660622 -0.2461715577288986
Ni 2.018552553326705 6.488760712220021 5.379046928108452 -0.20831797721623477 -0.10851572291491633 -1.115955959697575
