# total energy = -340858.63883833843 ev
CRYSTAL
PRIMVEC
9.42784584209473 0.00000000000000 0.00000000000000
0.00000000000000 9.42784584209473 0.00000000000000
0.00000000000000 0.00000000000000 13.79860537116936
PRIMCOORD
 96 1
Ni 1.3934639246075866 4.423583061788855 2.1936749819913204 -0.3933947245163418 -1.24614351115897 0.6797089159023971
Ni 0.9544374192105279 3.221758963135399 8.45788281932687 -1.5833408625481376 -0.7948609131869084 -2.8548925293675675
Ni 4.355598864172126 7.151860280942501 12.976664499040377 0.36599653500904705 0.5468548733524324 -2.7275295918391604
Ni 4.440440050464311 5.4322588791257225 6.124428706742686 0.2814571204040701 0.40755970316281415 -0.8448845534032029
Ni 5.1188301383452295 3.7369718921825457 3.5840494014596747 0.24615381711708575 0.6152145928737535 0.442747821028173
Ni 6.3635320806765225 6.846086951126478 6.867579611687684 -2.1156510053171758 -0.6794055257293654 -0.34555986442125003
Ni 8.408413025715097 0.931182694229052 4.774289505714064 -0.5189015826726161 -1.0542232585744682 1.2266650907193841
Ni 4.297410198565352 0.8448613361124572 9.506259296234399 0.3684686506986235 1.049862153392295 0.839525860194451
Ni 2.7351595467448564 8.745675361222407 0.05316268089598804 -0.9850988929729808 -1.6086536302813135 -0.9736091471658264
Ni 4.088960523165842 0.677852700658044 6.992070547182046 0.29703646289956587 1.5317599051470523 -0.9229360462909911
Ni 3.742845440250112 4.730016340825954 13.241624683455928 -0.3717691758267662 0.5321147389287804 -0.3576440492792937
Ni 6.628039728483335 4.475530493333464 7.318422036495787 -0.17227856709417427 0.8913569859331294 1.4926606251527454
Ni 1.7231745554565987 6.637401579576584 12.280800841354598 1.504492841900983 -0.8202446433673356 0.39953271909327964
Ni 0.22483621455879912 8.164241241763404 6.003883324805749 -0.5793641588340475 -0.4403070727971643 -0.44717011846558463
Ni 8.342974346522514 6.560347794093084 7.3010625436277135 2.923666196497855 -0.39542178224869967 1.119761449486594
Ni 6.393512631005352 4.848458370316865 12.854615375663991 -2.299930710637284 -1.7845232571608558 1.8295072780707138
Ni 4.762042733740117 8.058658794237438 5.8401772638105145 -1.4789260491754723 -0.2154859557195837 -0.5853082922326243
Ni 7.039423789363372 6.793781261433285 12.142648956983985 0.5205825699194646 1.9476330132715685 -1.7695542945558493
Ni 1.8099295944898999 4.2524205173800755 6.1331211807688435 -0.8660884411743277 -1.2914944284899434 -1.6829808802399788
Ni 9.254024818370375 4.819656300739954 3.94233017687362 -1.0561582708136519 -0.9270804074766679 0.30291323339531706
Ni 0.03502821908545177 2.0425616949187964 2.8641767911111917 1.4302044156000528 1.6930102394515227 -0.14651688474903798
Ni 3.307024402498274 8.495064358442228 8.376981529884503 -0.24881028090332635 -0.2314134255831176 -0.68853628438604
Ni 2.3529075300522684 0.4260405902955082 2.1781378917580145 0.06563743549415148 -1.063680033111994 -2.5325517833752578
Ni 8.570666255639363 8.731938989578035 3.285586423443957 -0.04961714880649519 -0.9972987774732823 -1.0608353645743471
P 9.628941970863018 2.8809517575263137 5.141291038692213 -0.48703275898847737 -0.24228996328630534 0.7187277203677557
P 0.042608207281797573 7.158629474381526 0.06354933885110518 1.652413034755451 0.42558210788216383 -0.9190179421835076
P 4.199605724002055 0.6032011303392563 0.5931123923182243 1.473302532341108 1.1746956396306287 0.41235583899987693
P 4.093872430939843 7.373791776143969 3.693872494123348 0.619568756077391 -0.9974013644894179 -0.29347111414581073
P 8.319178463179757 0.8371427585796857 1.5937669982652278 -0.5374181534195648 -2.4054855511516635 -1.02510654371417
P 7.021793717314658 8.985472624622975 6.542732806597994 0.8681818333682468 -0.40700511621092483 -0.4571441989591611
P 2.4280380349486363 2.0104221678524494 3.358484414403889 0.15443382560326951 2.6489445950454056 0.784406550622804
P 5.50643717157454 1.5210792482714386 4.357503289067228 0.17920229079720104 -0.20579263969121978 0.6568014151766044
Ni 2.3332033318801755 6.596041619107219 5.328939114643442 0.27295731046317506 0.3714012509643862 -0.24894192138518415
Ni 7.269001267683294 8.798603288752613 13.299137372503402 1.2823253603961655 -0.718808195896704 -0.08587535980758113
Ni 1.359891364946906 7.683487089902382 2.358981891239962 0.048267319646820094 0.214718738536256 0.07113702515614201
Ni 5.653898111100714 3.5297949759951086 9.655726481392641 0.042936394352209924 -0.129471499230977 0.10725511103493787
Ni 8.280071757908061 8.421970268285177 8.54576637152821 -1.099062783486662 1.5240044295713495 0.5475734966860117
Ni 8.599128922759721 6.561733687457341 1.8026635535658653 -0.9016344565997376 -1.3384980509329916 1.270942829590837
Ni 5.4432706032716585 8.496751942878978 8.09695281918261 2.5621950601629875 0.37998076510328105 0.9368799100655929
Ni 4.3812614610259235 6.926402771331291 1.3423018326360572 -1.4516723556658417 -0.7737524133430674 1.9821523872046767
Ni 2.1047571950820965 5.363341324753474 7.942974409706019 -0.03333460959638775 1.0840123169114428 1.0552740684364859
Ni 9.452829807296178 1.082062170720395 9.92859380026127 -1.7140017541015253 0.19211257110096594 1.257496988498576
Ni 1.0276163599817172 7.938906294150393 8.329072987572872 0.3994090490312218 -1.1054432330917092 -0.38862275704899524
Ni 2.7372808120983114 3.644852408766507 9.578784887276724 3.182517149466635 0.0734525606631961 -0.616685263882009
Ni 2.8825167799648623 2.099920710076219 5.493459741534403 0.2253322523860442 0.4152038499716333 -0.6790149751591661
Ni 6.0244501708882465 8.644212882405151 1.4137083383563596 -0.1793349597203234 1.0694135931616615 0.7731353485843587
Ni 1.2390452347220793 0.3733615579001079 4.394372766479479 0.3183164553242647 -0.8342435287495891 -1.2432055115765686
Ni 9.27045755397514 7.932853617008535 11.846613649317222 2.1880352726168573 0.42516816027319687 1.4033952658270088
Ni 5.660214767931003 3.018551170120427 6.048659936671078 0.6112975172075343 -2.6191120850650056 -2.6324987907845565
Ni 3.918938748124922 3.4836739532879895 7.213055486643573 -1.56944919216771 -0.09228332021645397 2.4565335188674147
Ni 4.944499837675291 2.7389024016129526 -0.03688361918127373 -0.25822540356963913 -1.0546022391804417 0.7662769309016286
Ni 0.8524064412785461 1.0680901029256382 6.49798447827071 0.6596725660768124 0.7204560159127721 1.8808722628062509
Ni 8.191638562284027 1.4211157969706245 13.080195447273404 0.988122510290653 0.12948178364362217 -1.7056819213819205
Ni 8.772610717288279 5.3275626491252 12.707025274647407 1.9525736451062952 0.41740317161579726 2.0452259186263935
Ni 5.803131485677778 4.498204463000394 1.4508540516568602 -0.1557456024361576 0.2204543554684526 -0.7395839949914748
Ni 2.533743044472802 2.7651966641497787 0.8561398683006269 0.9014292825674668 -0.5257666852235655 0.3644682712899788
P 8.552517652059805 4.12999050902467 1.6807803602793496 -0.4245919760547527 0.8863937283905832 1.2169180386349492
P 2.890530449077915 6.778856981190978 9.312610396294396 -0.26572428304984563 -1.7740051312383511 1.573486081241245
P 3.722255024552576 9.23994904426945 11.517585594519721 -0.7448226176825946 -0.3734128820777763 -0.3699578336496403
P 0.3717786225541297 6.86871378156333 4.144756401453919 -0.22562972902180495 1.0526379163652193 -0.14923865455557522
P 6.49089285249796 2.5453581507637195 12.30780407791178 0.45084859575843644 1.8424864639392011 -0.6987497345839321
P 2.4005935751979366 8.535462678618027 6.400924803542625 -0.38807202675184777 0.628440347535408 -0.5362099920440765
P 6.198195945105233 2.1149675523167266 8.073853653660386 -0.33398501509945705 0.9261560958901855 -0.1571872199786906
P 2.4701427952532136 4.412769322409242 11.445695440298831 -0.2041813293400419 1.1787947494006668 1.955182286373736
Ni 4.677399532214255 5.514083154692993 8.581808084060311 0.3178855384344332 0.7351724961873403 -1.857300389023582
Ni 0.7872298562051907 0.8116376067543444 0.3813262022138802 0.08201844795533617 -0.13165873669028294 -0.0069129250697493845
Ni 0.2782242209745542 5.943851515302973 10.55458109163504 0.1337932665347825 0.279571473345583 -0.7134962967654873
Ni 7.383153627237218 2.762462588805326 3.967872097298421 -0.5168328730690455 1.1653185692911028 -0.1633612099998864
Ni 5.603166871692087 0.6241054933091039 12.195870090525268 -0.5097425418811673 -0.03252265521805366 -0.09236379574540221
Ni 5.8911969953072125 8.800658559183962 3.85393657820285 1.002892469510976 0.33339494692394195 0.11629793796349648
Ni 4.311391694206124 5.627754694100134 10.727712170291825 -1.1797460575703425 0.18823971840912096 2.326790768252922
Ni 5.460976098088495 8.07838184810156 10.574630348971294 -0.17381891499810065 0.026352521851599777 -0.038315093530114655
Ni 8.018024777911256 1.831095108794373 6.812730289139548 -0.5823751777462293 0.41170843522386513 1.0971943628193557
Ni 1.897429433358414 0.11519130818481639 9.756759050431597 1.7489067935088267 0.5837306633328592 1.5368010671153856
Ni 7.152661647853806 2.476506591313579 0.9737824164494358 -0.5675270569898032 1.5967769334483854 1.2378254782115778
Ni 3.072836707476844 4.554139873409498 4.209609611408949 -0.4761940165017605 -0.21977944088861504 -1.1362334789996882
Ni 4.731317383576073 1.7766587259017104 2.404490103956083 -0.8182628370506165 -0.6289188298337234 -1.2001163936965782
Ni 0.5951337225039165 3.512249754560532 10.72568329782932 -0.1863306743118662 -0.48023964732604385 1.7447958566642465
Ni 7.657296533671725 4.208967575095302 11.159001242464083 -0.22501523536625762 -1.1732689344864309 -2.650843354730015
Ni 7.569193312658228 6.900080225256418 4.777160284825739 0.6477220785831554 -0.2786813574311458 -0.16401632708538205
Ni 6.1243004880368765 6.3558389583279915 2.847563040862932 0.10432276787949131 0.6078728077967014 1.0860494019461295
Ni 4.049005311752766 2.8619640756513873 11.543319843003236 0.4790006327126202 -0.5088485693119882 -0.33686105109567144
Ni 8.230264447408938 2.9000902849374857 9.077799520651352 -2.5505559332621623 -0.38369678050228756 -0.3102655599953302
Ni 6.878349040191023 0.7211152004533072 9.588996187295956 -0.40451320302700655 0.0885567632944862 0.5172918149833349
Ni 8.758930912719999 4.55646855137529 6.590103961686748 1.6182011647604324 -2.024010460891043 -0.9952349529657183
Ni 0.22579974042156847 3.2833793646917626 0.12649152441882147 0.3892920152018779 -0.25598134473046885 -1.0217329992562467
Ni 2.065641061964387 6.036828932706408 0.7889806072102422 0.05095412245036386 1.2703054531171543 -0.9562297753471146
Ni 3.511957491334056 -0.056864053241616606 4.101345884476215 0.7928150864014734 0.6653624173727379 1.2278336571061887
P 2.591007781170071 1.8904811108450972 8.118782053846562 0.2115449687939647 -1.0889786597777826 -0.016190493716933405
P 3.595309077955814 4.6984613402125595 1.6687758839479976 0.1861751225706084 -0.5505626612213228 1.0070306600490657
P 6.339274232879013 6.781383643923093 0.2983262742484951 -0.4391014825248373 -0.5416579025325252 1.983653397230235
P 7.73115427935602 8.526873910898038 10.835341403187725 -2.6302133371844896 2.006415116406783 -1.9657289515413308
P 0.9532777941506391 1.6246158532120725 12.073379743955364 -0.9428348420974472 -0.10581400771303712 -0.16369622474180193
P 6.648705566948994 4.744393805999372 4.844442107914324 0.19093012075709054 1.3737370766409436 0.5354887976073359
P 6.443027678278 6.040373802808182 10.256586677566284 -1.039131140128036 -1.7270429035561998 -1.2505624661622718
P 8.930857112656021 4.881248418758271 8.910615527261053 -0.058044967858874225 0.7299968655236718 -1.0604098470011545
