# total energy = -340889.7549016362 ev
CRYSTAL
PRIMVEC
9.09246462318630 0.00000000000000 0.00000000000000

0.00000000000000 9.09246462318630 0.00000000000000

0.00000000000000 0.00000000000000 13.30774105644003

PRIMCOORD
 96 1
Ni 6.266408409530734 2.0183452948875016 11.249472721403963 1.2929126489937088 0.40770805581522046 -0.14062443052400297
Ni 4.872306272677746 0.42920342735137434 6.086188486921012 -0.22363403874801482 0.24956592812242825 -1.011650418209264
Ni 2.9919482207635437 2.0892301490137424 4.5474943407995365 0.039070483638900456 -0.9246849106612978 1.749615389540077
Ni 3.5458338876193953 4.5664539480114446 4.933432184534402 -1.1146547243876481 0.786948086097735 -1.351209584962389
Ni 3.7514599748519424 2.9317742899519144 2.5410065290143993 0.058496710684312156 0.2942468159695707 -0.937691864443927
Ni 5.39102228640888 4.584602507379835 2.609887403939841 0.052926672795702394 0.3937035140060123 -0.31990462574699097
Ni 5.338358731367937 4.403926143046519 11.396350576276264 2.1052092411585615 1.7592423711068796 0.13426146442045264
Ni 5.587428614523417 7.921409726001264 12.255112037098938 -0.35464151500754404 -0.032970027168117415 -0.8060722085216956
Ni 1.9029528264785578 6.82381286019198 0.3344099375241393 -0.6004986268198174 -0.2788140263542682 -0.8543012187314125
Ni 3.1044856552838724 1.7645200527392018 0.20834200641257652 -1.176472271915077 -0.7975227762897878 0.3311642578212103
Ni 8.291964028856679 8.641096485082873 7.007190595761944 -0.4988636901851344 1.1216936335123007 -0.38235569309336087
Ni 8.713299746578059 2.419077487794866 1.126036276627146 -0.05913228738578203 -0.8777180549934562 0.27209907622793783
Ni 7.020973862869431 0.6995878660536385 4.924010572701973 0.486808044572181 1.6428156208750029 -1.4085642116224582
Ni 1.2765456618660493 7.56366670578616 2.5835783575809037 -0.709208982244043 1.714372507177383 -0.5636603749455453
Ni 7.667157138016133 3.8546230783558326 3.5254604021600993 0.8242828179924513 0.4010524981719158 0.14379048695681043
Ni 7.845451276620732 4.125942222420357 12.478921235065407 -0.06328924697694906 -0.34899074447966993 -0.30773636581557323
Ni 8.409238637440602 7.076137845679065 9.068626898945377 -0.3204167894967191 0.15488839664218487 -0.43192476227074
Ni 6.704901607977642 0.76575827727782 0.20410219016333767 -1.6852367661536911 -0.29926072424439426 -0.40603581031912006
Ni 1.777695033964051 6.57699790826063 9.09592065922195 1.7234114774511995 -0.060329393017676744 -0.0031184910243236617
Ni 0.04105884245483147 4.726863208721443 1.3238555737426088 0.21162621565386136 0.9648817945951577 -0.4628790445604093
Ni 6.551648116918408 2.3130684428669746 6.782130274664668 -0.12128664942733951 -0.9645480654048226 0.29406041099037744
Ni 3.4772312421111233 4.829908110185358 0.6654620278665416 1.1887616308053914 -1.2843272213175427 -1.8209398481166768
Ni 6.297550100831706 5.838517024823076 4.535970551148485 0.017899763098556266 1.014223064032447 0.44298924761501773
Ni 5.5345559327963665 3.0162978409982886 9.06656381872459 -0.14180328132345255 0.11607476620909686 -0.1536118439226064
P 0.2371523897866667 5.8965451339859385 12.457376640163902 0.8614630265871744 -2.0242470023818813 -0.09065709746694064
P 4.180978910725402 6.148588253070007 12.31878929452612 -0.5386515116060336 0.20673597744109554 0.4121910312872385
P 2.66483771383106 8.79853250986428 1.443410572451577 -1.2634084688870046 0.27426908729606314 -0.7659745691698614
P 6.605548247146776 7.922318972462606 5.724284754898806 0.2929190982970826 -1.5818851039382176 -0.8789758386599571
P 4.700813297603988 0.9869324789993195 12.245796807102487 0.19134458258668982 0.4866771754212715 0.5754457976162476
P 4.129306434327323 5.990224796898029 7.99446586067719 0.5221532568406942 1.2968906598048504 0.8835531736179945
P 4.910667380881776 1.3027501448819325 3.796632248297886 1.173544556745321 0.30878511879506176 0.6178908541543359
P 0.20697177199533376 5.820350280525458 3.3632517427031057 0.22581587689068205 -0.594923189614569 0.18868811880044925
Ni 1.0803757378314613 0.16340977403242712 4.582294839860949 -0.08697553485029537 0.29560281577683284 0.5765950807293425
Ni 1.949842666489977 6.641618054268222 4.673133107581346 0.9617625322398856 0.4008856335767483 -0.37431173974296184
Ni 6.105917316639216 5.670733775311593 9.156603768051928 -0.16249731933769435 0.02770415078348777 -0.9270780934838229
Ni 8.89605828530785 2.5087837436708917 10.053572674426663 -0.7159313885695412 -0.8079120899439118 0.25324826207002193
Ni 2.4152131903341614 5.553677385878394 6.85407258242545 0.5765194902964007 -2.520008142382292 -0.07055826983453656
Ni 0.3808278786221219 0.19102358906339093 9.009181274549283 -0.6020849974703308 -0.6210725943164273 1.546115659648092
Ni 1.262006810949187 0.7164934855093749 11.309596643660218 -0.8785539206311902 1.759027426882596 0.28653710603013877
Ni 4.057930587111958 7.0280023380156065 1.418112608157652 0.9426044712541961 0.7873900587311601 0.6497223968426359
Ni 5.942180213880706 7.817028232239174 7.773797199988197 -1.2475488761469289 -0.04850977467492936 0.03047220044692817
Ni 5.375601466424516 3.2419000729865246 4.918860600744931 0.886287798940338 -1.5747973438535008 -1.8227671311334028
Ni 1.1560705057382028 7.359322656064105 6.887927465167066 -1.0602643225622257 2.1304857563371633 -0.31585128161322373
Ni 5.213191863499565 4.837545780460633 6.587358771687624 0.6757823271544814 0.009547020258486784 1.1921464881172243
Ni 0.7958379687119439 7.444773638501048 11.023227652167558 -0.8339519656510991 -0.3150336708079349 1.390740810287792
Ni 4.662488559258412 0.16653667261298308 10.126339668727883 0.25279574791363557 -0.4700290253416292 0.39002272272031535
Ni 8.48782480909441 7.737687386022451 4.3103374047805625 -0.9209786654543042 -0.7783968540936143 0.6159162469264683
Ni 7.565748880182634 6.139323031628929 6.866249211035745 -0.10618784611268808 0.0999421223132924 -0.3227066139721603
Ni 2.192620564132968 5.33031190018506 2.40526785254 0.7098383882979259 0.48139330131451286 1.231713194666253
Ni 2.448346131385473 5.288259251347981 11.316011377444987 -2.0475748784745447 0.6783063791279157 1.6416131159264695
Ni 1.1203734896659063 3.7318202512869503 3.7778417609277875 0.17605217520399358 -0.8144231515895521 0.06521346058285543
Ni 1.6122576403228308 1.5720143919438232 2.7018576835046093 0.25442659864883926 -0.6447467980049154 -2.050916541253268
Ni 1.4351273371887492 3.3902436331545114 8.08438578947163 -0.4041090256100524 0.028168749124732134 0.8701872938340497
Ni 3.900449100007482 2.5972807017533315 7.063163807922172 -0.6864410924199081 1.1983474747216136 -0.44318465145527547
Ni 4.172504733705693 7.209296989942636 5.870297007139911 0.8844294055753606 -1.6195923886810042 -0.31884481702390893
Ni 0.6708247634955381 0.25561463918422084 0.2972817675216903 1.152804495984492 -0.5037058487687841 0.5923250898700896
P 0.4516108971446925 5.407579664469923 7.920886909285992 -1.1822960776857057 0.7714685024048972 -0.7614723104241338
P 8.54186132629198 1.856263020688634 7.7885815474496205 0.6830688335135656 -1.368752736052475 0.22610615443759124
P 1.843115316857625 3.3114847046730467 10.445552460897147 0.0676943180231802 -0.06929585818234517 -0.5950823409002526
P 4.243198646075052 6.318635526270232 3.6064778988515385 -0.3704041771584395 0.09648553122325963 0.10207459527526291
P 7.186474903762946 4.087890258013184 10.232947907073799 -0.194775976865742 -0.4012018792655865 0.27415801563949554
P 6.461678179568594 7.8451966876115575 9.823707895027654 -0.19516807009783807 -0.649386867880088 1.4158939125146517
P 2.702707828945964 8.758616590211357 5.859411508504722 -0.7815564827685185 0.11867620838768594 0.506386995145373
P 7.021683075109278 3.8183259596190506 1.245261218870647 -0.33396444627416677 1.1346980161917684 0.16848516149001305
Ni 5.279439560672961 2.8854754601403676 0.2663946652298944 -0.12063256078310836 0.4225896009127431 -0.018731257860916128
Ni 1.6295969703406272 1.0055447540629951 7.360019138853493 0.20127803965031787 0.7464899780826887 -2.5138868599759028
Ni 6.918247197666985 0.9106467008927057 8.95336808976625 -0.13930905414668912 -0.38243359751914785 0.08601239960607768
Ni 2.7724288476016867 1.5379812968957831 9.456467795523832 0.23149955753902066 0.7122230864800186 -0.5269506782293376
Ni 6.4998210686219 2.047468459044293 2.4206914002637485 -0.1973465658063956 -0.3435027247819052 0.5959721997043737
Ni 4.073124095480986 6.783624166600654 10.216206861227565 0.5542982170043551 1.6811150306758338 -0.16674401042919024
Ni 8.1564953985813 7.473696768436345 -0.2758717410964646 -0.23998625485379316 1.7159434512089289 1.5942937620152156
Ni 7.809899739982251 3.9312089077946895 7.919450299877071 0.8506893330104381 0.5169285181066452 1.0382245691533667
Ni 3.0586505411676104 8.580649780332841 12.274221669976969 0.7411549390230203 -0.7031010695740924 0.11027332903597137
Ni 0.19493880432593058 4.907866901780841 10.117276300001224 -0.026501645834954356 -0.054929047937711854 0.49747272337487874
Ni 9.01486952041144 2.578195618529758 5.660021942750521 -0.351468259485885 -0.21656196239258188 1.0164344698614687
Ni 3.7035790561976603 3.068079426971729 11.47228447600234 -1.3667272209820138 -2.4936934157471637 0.8093904742616511
Ni 1.020201807019832 3.0168888511981615 12.512430604151715 0.35170582941798784 -0.11657561710491536 -0.3421526385119139
Ni 3.387697743062753 8.449072724912005 8.00568414351723 -0.12995820905940844 -0.7337527330216783 0.2814712614714572
Ni 5.9898883757073325 8.075108747826555 3.322091064644604 -0.7805218708564171 0.21313699587143295 -0.031875508552358
Ni 3.4789860877815135 8.729948049285236 3.7906966873982437 -0.4132089310287915 -0.9669183654092122 -0.23062358269197053
Ni 3.7435222532444246 4.5710820124996765 9.6195802459634 -0.30248437338801454 -1.260599795793616 -2.1346920811090273
Ni 7.359695447113256 6.215563347412476 11.23354363264771 -0.34151551914854733 -0.24533517787053233 -0.5460706868882401
Ni 8.021681425758086 9.332414754570602 1.9962015065679726 0.8700715941917919 -1.3215686221675047 1.8886943299538312
Ni 4.579574374448613 0.5645665850372388 1.7844080005881406 0.9474625706774457 -0.16803881798121384 -1.0300757147939872
Ni 5.82492379022601 5.569225500367346 0.28106444763719013 1.391532710061468 0.42550368923574455 0.24316979478809736
Ni 7.818792170374179 8.924126723569485 11.089380787708974 0.4563312161395625 -0.477950337071235 -0.3805317525107446
Ni 0.24323252087366226 5.185023408127183 5.462920950339519 -0.4788391674340914 -0.3837793129137648 0.8157089602805113
Ni 7.55928413784249 6.5299444038861685 2.3399130353916426 -0.24940574839548013 -0.682531987173489 -0.7709879632240528
P 8.79101304162898 1.7043370294629592 3.705553939511695 -1.0585661089241962 -0.2361375705316643 -1.3674327316894708
P 1.9617901649920142 3.3610386368161986 1.2544418803908195 -1.103687426742867 0.0040073213871801945 0.5652775988339942
P 4.810513883164929 1.0412508625999048 8.128820664037425 0.9683797804460871 0.7558400518390208 0.8553877669273721
P 8.319386902130761 1.3996212628733349 12.364701694591595 1.6561581036201798 2.0847273191551254 -0.4196050643631225
P 6.363643226106673 7.752799062209959 0.94974975420919 -0.34499807838050905 0.17988363313494182 1.9210989715367817
P 2.0099529500493123 3.3029377879364294 6.027542090164437 0.25826088479326487 0.729499357061963 -0.7274910683826826
P 7.268425287323722 4.1594206771269775 5.724244748054507 -0.6201670517830222 0.4516009005434287 0.1254919457579387
P 2.3545755438272478 8.520093966007448 10.014447799195107 0.9762530125465769 -0.18789699035772156 -0.20728362241444945
