# total energy = -340886.3627408639 ev
CRYSTAL
PRIMVEC
9.11707667087031 0.00000000000000 0.00000000000000
0.00000000000000 9.11707667087031 0.00000000000000
0.00000000000000 0.00000000000000 13.34376327605581
PRIMCOORD
 96 1
Ni 6.700714002520559 2.4240209872444716 11.0747500451394 1.040782816798846 -0.836179055209405 1.3745027511623746
Ni 5.006469415355762 0.6948124111446314 5.995819928021463 -0.9559945194078568 -0.9512204950579811 -0.23240638562400617
Ni 3.090442821715381 2.057259227954008 4.712576802861186 -0.5154416491484737 -0.665322565273738 0.4806014015408368
Ni 3.357518464965228 4.640838173569326 4.761268374101182 1.6449720050963734 -1.6970954652644903 -0.7867089735037355
Ni 4.14126795878557 2.72886867903614 2.457267318939525 -1.170082052118017 -0.8754778528090277 0.11783468632299707
Ni 5.177888690442252 4.614198075611517 2.56564565585385 1.46256946219432 2.119794080951272 0.33485636196081686
Ni 5.930667474898228 3.0156007395334323 0.3377357223745581 -0.2796342082627184 0.23403363681478404 0.2357804443025617
Ni 5.55060390078215 8.669519352861062 12.60686748173468 1.562477131725251 -0.9946032329189903 -1.544052092250844
Ni 1.8139335693653835 7.124749237297317 0.45582465762388025 -0.15186477932451264 -0.8138382256203597 -0.16188205435119862
Ni 0.9130022894219352 0.2628963753156034 13.47920213907222 -0.5113762208298483 0.7727543110958562 -0.46314155419317654
Ni 8.262423646491424 8.805354677800622 7.090716101887769 -0.5381522033721119 0.3348941571772877 -0.578093776762056
Ni -0.01009807409242611 2.306957723117755 1.3018565488394909 -0.39942113321607986 0.2025908449244704 0.21493753941528143
Ni 7.207213195554806 0.9053576206547818 4.701768508498084 -0.6366629925555164 -0.28887809545848964 -0.18205004465864133
Ni 1.1577775631971756 7.8845481707702385 2.8453976824714373 0.4936489787534144 -1.2944632813102803 -1.1292112820455842
Ni 7.7495151485754725 4.127756451197111 3.611969692184213 1.0165887360511459 -0.6955127157038732 -0.44040683159982225
Ni 8.300970646548103 3.769081538891103 12.744761442580767 -0.9177861266589353 0.8478269238609786 -0.4952158090199019
Ni 8.509897574953698 7.282647887718704 9.498691034236368 -2.1265416840877505 0.2930851915613017 0.12506514263316523
Ni 7.366178543943702 0.9402714656682756 0.23887561347801306 -0.0846070346181188 0.47084637903660204 -0.6273234603221454
Ni 1.8859767090171993 6.500320657855043 9.200258117572389 1.6162715518378874 -0.11235617970692909 0.23536084026663984
Ni 0.4466182336273726 4.682703789524925 1.3132410424465804 -0.15391883364006395 1.6210725727709567 0.3431857077621186
Ni 6.674785036541089 2.1092447989859813 6.832566988381416 0.6803820307100219 0.35608827475639965 1.1187327511117635
Ni 3.8788602587781584 4.541744667510659 0.3432697878983055 -0.6140665953122392 0.5450530442570032 0.2634645404813914
Ni 6.576949687059486 6.108031083957506 4.428875258640819 -2.051998204353221 -0.07423186203138184 1.6292594794571231
Ni 5.373231174646225 3.191405328486351 9.314506940138676 1.0277848618772816 0.3515878157828848 -0.8524410255942222
P 0.3012655923776974 5.791167085147223 12.562232097894215 0.628502311121595 -0.9589307192180452 0.4866833460688586
P 4.369532206756022 6.332529979273415 12.226436489429794 -0.4647006711501803 0.4720391137931226 0.9663856328341939
P 2.8290653513688984 9.142695630756435 1.1068915116086355 -1.5184156226296626 -1.9319945354033632 0.7302580896048584
P 6.691141072042907 8.114280268080599 5.547523240583675 -0.9746149627225216 0.13387605605657588 0.5061116299967994
P 4.931919079626467 1.7382253649021238 12.312797086245519 -0.015988405008456337 -1.1060240452958434 -0.39618308589475637
P 4.254976138706785 6.4837184612838 8.029449516725968 0.5226795616578095 0.0650656221510815 0.14131297195059533
P 5.103666569472189 1.0767723372029485 3.5008161171390335 0.2741400179173666 1.4642424790213686 1.6310029445107912
P 0.5986701027960751 5.8327227204968795 3.276374659405991 -0.7487186103028912 0.32815195335744773 1.2372402951320691
Ni 0.9296044859931775 0.25753553424811826 4.469600328308079 -0.1324930596661202 0.3910154256508879 1.9932322991679217
Ni 2.201591668327065 6.590543248337752 4.973100914833661 -1.513963757505896 1.5436047203007803 -1.0318520899681198
Ni 6.175169236374106 5.991077224750535 9.082098980832898 -0.1715897685572658 -0.678800802265831 0.16408857508421418
Ni 9.029908275576403 2.7077991149086604 10.047586457086974 -1.9454874276834753 -0.7530794583747482 -1.1693037791910958
Ni 2.726881156327446 5.339935610737287 7.001993270513225 -1.0917199699683457 1.5994506236258066 -0.15058436995019225
Ni 0.5849616663520774 -0.028300317614933086 9.025201128904392 0.05298118018272165 2.001534134165398 -0.3545857220689442
Ni 2.052500113945118 1.1462079929341846 11.251247531917368 -1.5293595232356758 1.3935366278653742 -0.7326417593456865
Ni 4.22925686549016 7.263830241522634 1.1769808617353457 0.0010870624165916763 0.1719486945585813 -0.15177067694880958
Ni 5.934159315253409 8.149426598548548 8.231073666738611 -1.2150395906653138 -0.17683276212375995 -1.4250987189423716
Ni 5.3922676306817845 3.002499500394017 5.016547431879568 0.3721324727034559 0.29569280438747786 -1.3200994938211457
Ni 1.288671432594938 7.581915928603399 7.033631349888032 -0.4916782281802887 -0.5671820149455586 -0.5991325997102263
Ni 5.164295129163985 4.919930123837787 6.711873304334508 1.4719539887330133 0.3898802836051802 -0.02519629675996951
Ni 1.0002253616883137 7.554218249754725 11.417163739540705 -0.5062322147350636 -0.31733557946823415 0.7891044703191056
Ni 4.647220127221094 0.6026943804273471 10.28754791439345 0.4026314126232614 0.35095558151552464 0.42204684103539575
Ni 8.67185332448228 7.4780724256124875 4.881308363752616 0.6838861872085384 -0.2408725141134884 -0.8627665758899464
Ni 7.40992227768825 6.475640731375991 6.699223360489039 0.2234581752917829 -1.66664331942222 1.8175503628191536
Ni 2.6781594987345203 5.916836869627182 2.596789589674478 -0.005381576026887506 -1.1656499844885924 -1.2171604936630587
Ni 2.4961370635094506 5.23547214653449 11.546265191669983 0.35912294781766535 1.473406919129456 -0.7375785345256717
Ni 1.2317261718678763 3.603943929613282 3.7068037000341567 0.10480202150875498 -0.32395102790222274 -0.7881608754589137
Ni 1.7122325793861373 1.2754699056124235 2.5956691009547606 0.7023654769596485 1.066237252316209 -1.3245516160552284
Ni 0.9014682757578614 3.790151103018583 7.939365505808269 1.0634175234792265 -0.2984274297098215 0.2536881778209179
Ni 3.893183186188055 3.0034750275950732 7.033257549745571 -0.21418497751997304 -0.8542721652656902 -0.6773532711860271
Ni 4.310654125780139 7.279338388896431 5.7775160862860915 1.5401471007694831 0.2361532542609481 0.47912738809847166
Ni 8.325212953348176 7.501129512448661 13.223535605536407 0.3095263678364605 0.46232497182915216 0.8245134459460188
P 0.2123713599622204 5.975268213847441 8.034119283383733 -1.1019987261865343 -0.9727190312513893 -1.6454767126469338
P 8.761583592826138 1.8002397202440183 7.842316048333497 -0.7799932520464568 -0.3257238035319293 0.31202265189575296
P 1.6994048525460834 3.625569635416131 10.021206195813557 3.884229566223317 0.6603773054533207 0.7884593805359389
P 4.384785075983746 6.29703719989294 3.8090435092431454 0.7164497229668565 0.9572227353880032 -0.7595702083054144
P 7.146684923706109 4.391112327175643 10.156805388468001 -0.02261208097256106 -0.4046821245047031 1.135887151403863
P 6.501779390118304 8.04269298226105 10.385037726670197 -0.32737470887179104 0.23227268825961933 -0.24474176726090752
P 2.7954962751605983 8.877169890536303 5.63176229366402 0.4787694905384206 -0.27631362852991764 -0.05680646746608282
P 7.2569650828086605 4.291407976981735 1.4979174586831212 -0.11736623132701077 0.20055967342705458 -0.2900489758381392
Ni 3.14614816001867 2.04969205433834 0.3212629882916802 0.5096229855841674 -1.2475180229089933 -1.2711392618723594
Ni 1.387983748493094 0.7900940674578637 6.792282273516126 -0.30392059161390883 2.0990079974438562 0.7804329106870366
Ni 7.037991135939854 0.7886945961927975 9.065405613495201 1.4034058073499702 1.4133654896658434 0.9834248477046676
Ni 2.844354688903205 1.66872588963437 8.718080549905029 -0.49066984152043236 0.4636231218152854 1.1437958647279787
Ni 6.668156921819897 2.113785103155382 2.4582282588179485 0.9568995477206294 0.3196241183920947 0.1959867093443915
Ni 4.142836095968575 7.353387285410231 10.074034184727564 0.4795886440056063 -0.6949959239684547 0.7301076800699232
Ni 7.114802506677205 6.208920654115314 11.512505568559796 0.7064301339473252 -0.005729446284609488 -0.5431296019820453
Ni 7.717924477999221 3.9804336096843698 8.114542839887985 -0.7078190438750519 0.698283593580791 -0.861717822910458
Ni 3.292167259571123 8.693925767040751 12.272059252670955 -0.3840148259633387 -1.3904669878011149 0.4485852536455565
Ni 0.19868024596384887 5.291113665301261 10.38964093866845 -0.579317364756512 -1.5990328193620977 0.39477977778932655
Ni 8.861123835640429 2.6588495303995994 5.742047923012559 0.5696852409833866 -0.12321857634272972 -0.26048051815240303
Ni 3.7419947041776704 3.0083800148302893 10.971789075167761 -1.2402520853751995 -0.23247580540936094 0.4404651956415834
Ni 1.6946639726904842 3.4146095989186156 12.584423062449076 -1.7296245482404469 -0.26387051767055847 0.05604567804065831
Ni 3.3889723793917987 8.584630252215902 7.861438204889523 0.1387495820987933 -0.09523006154960373 0.350660418872609
Ni 5.856855622377208 8.179640590551347 3.1817266399196127 -0.008361484590817857 -0.34832045788552274 0.41422297411560277
Ni 3.425869188575663 8.882995702512703 3.468177894456227 -0.34538374385470194 -1.1319325376314893 0.03878663384989449
Ni 3.5494238112738925 4.451212096422007 8.936758191782861 -1.0227033335893159 0.7701143023698478 1.3196307817148434
Ni 5.446906271017565 4.47772455530678 11.760779064643868 0.13596379182354004 -0.09584892608052525 -0.7403116171861185
Ni 8.319651536594492 8.991598319512503 2.235667653996848 0.043112000698125756 0.5736825350682379 0.3627541168123495
Ni 4.805601982704686 0.6310311663488618 1.2822648628362274 2.046730013975746 -0.10360722986970544 0.41497785000375625
Ni 6.120393839888646 5.944580133859082 0.3935130855833462 0.3636493749331092 -0.12328491080429091 0.034917637812791474
Ni 8.220950064831577 9.14853055980948 11.406315330040362 -0.6638223265791278 -0.90316709119418 -0.9853662877017546
Ni 0.30176520817786434 5.023326890073076 5.47319809664752 -0.7283251342482038 1.403809727656608 0.4946005440334063
Ni 7.557308938737511 6.483527002674247 2.517327884756314 1.7355383426217206 -0.4457097318699743 -2.2003459716634106
P 8.76280528109662 1.7042277860914912 3.5172687936532916 0.283464380642086 1.4817475777846676 -0.9265839274562236
P 2.215358454061593 3.4548432581546904 1.56390230090408 -0.19358684165364723 0.5721254749937631 0.7234546935297799
P 5.050632534625997 1.3969731860654415 8.26367268599184 -0.5277523481950266 -0.9541016732605182 -1.6876230069976805
P 8.988462045146493 1.8502924710271704 11.974413139721475 0.5679489750185702 -0.20114228540340198 2.311335095819484
P 6.666351740644111 8.082771651194154 1.1039211680375698 -1.0398973288700994 -0.03304433204947857 0.489763270545763
P 1.9264656463993448 3.663487557184278 6.0400678361045 0.04492848508157424 -2.515530309116597 -1.5173434726114063
P 7.177755920913574 4.306660846209461 5.685750886434984 -0.8700769935084305 -0.21220342831357 1.3882272998373186
P 2.2528478732274073 8.46645470473845 10.050015246305302 2.508512740148183 1.2044852121882352 -0.22161520854577318
