# total energy = -381177.8228390647 ev
CRYSTAL
PRIMVEC
9.17648188825267 0.00000000000000 0.00000000000000

0.00000000000000 9.17648188825267 0.00000000000000

0.00000000000000 0.00000000000000 13.43070881647325

PRIMCOORD
 96 1
Ni 3.0040407027598075 0.09937395972766166 8.856975325773274 -0.9934344094218697 0.06037335888173473 -0.48192989054427327
Ni 1.1480880258419095 0.2614976215583155 5.258512396340137 0.3679305188069663 -0.9669031959005606 -0.22213405716372067
Ni 2.0791338975562144 8.674216508692039 0.6987872750036467 0.9623726550200586 0.16718109796660885 -1.2610780209816153
Ni 1.1925297285495022 6.987579102609945 4.504485452166782 0.7797124875812442 -0.9775105391027619 0.06377389992285147
Ni 2.1043049878983426 4.077496399854896 12.421955107397313 -0.5529370749907704 0.8693529708582125 -0.4843624112451658
Ni 7.848865357561268 5.493785467413679 4.331148129235844 0.12998546275291806 0.4837096081525153 0.5019449002136195
Ni 5.868525466065336 4.369638883315339 1.6238537509954105 0.5376883763618159 -1.1936359281785573 1.396213660476905
Ni 2.7732246490319348 2.505133725100007 0.6978108973104631 0.4273795661022188 0.49580124920972685 1.2180799201535344
Ni 5.322937724070717 8.561878015083458 5.819593710676589 -0.5196883402399696 -0.6699495225227882 -0.5380172204561443
Ni 4.087563000695331 3.3466997200640045 3.140341744020738 -1.7185564633517434 -1.2076620672543201 -2.8378630846891064
Ni 7.365136281259791 8.90465632665468 7.569171689688915 -0.3157486945970885 -0.01055052182233667 -0.2691150538989494
Ni 1.3624414707204275 1.4229236641017502 12.636000222477982 -0.5143193626185723 -0.17978618832512908 -0.4544139445121916
Ni 7.825235916208377 7.362126395137947 12.497906096618856 0.7681579499744255 0.4069722060904604 -0.004595332680166279
Ni 3.0177411905034446 6.905403705594357 12.686486473930877 1.0530366944655347 -0.3473326400509566 -0.5690962012491361
Ni 5.615887737954094 3.3772482289043055 10.521510257120388 0.05814061289647406 0.5822198831152876 -0.020988686436525142
Ni 0.5926915421532692 5.538502464583636 8.36817807841968 -0.20042803294519676 1.625916274016503 0.5327690846833276
Ni 0.9802868745491066 4.409620815732639 4.102410548698818 -1.7630599450807571 0.2527576955868485 -0.3858840179615935
Ni 3.2200459144125078 0.862214914937697 2.5003280014353435 0.47173572362009075 1.110681855782829 -0.038859138959042756
Ni 4.289931959978946 3.763880948330077 6.5847544805561435 -2.410300970262436 0.35096689436943423 0.4446946603418987
Ni 7.589033267500254 2.581225114497356 0.7384149952127049 1.4438454034222554 -1.1615853275009156 -0.005136807005933089
Ni 1.4535455847986813 6.331745104920711 10.856109570214782 -0.23136123218894344 -0.7982259730043995 -0.6952646042488091
Ni 7.932187814836705 2.7510909742578873 11.20192346205767 -0.6817827677122904 0.12436040325665679 0.36449346810095934
Ni 8.156662919448133 3.6473304494473315 2.7614071754108656 0.36097799874853315 0.5373178803962747 -1.2231203107909194
Ni 5.37930885348074 8.055987734561697 11.92779971215791 -0.9513850456603035 -0.17280744301445078 -0.5754992765620024
P 6.2215172021902525 2.2819983868720843 3.0576084168947597 -0.37016866410886573 0.07981372699453351 -1.5337540527589455
Ni 3.029514617010536 5.975853600458894 7.972361535729452 0.7576915032254629 -0.06939921652942888 1.4839445854359863
P 6.519578516591519 7.01117183803452 1.977188687550075 0.8694846113400703 0.47143901831527846 -1.1932703173090224
Ni 3.156168422662032 4.6700218476825395 10.284041253885391 0.04613124714042378 -1.1277961468656126 0.48412021332737276
P 7.538232262712057 7.6395314483798495 5.646753753074321 -1.6422728609976553 -0.5900275520851644 0.4012944389793927
P 4.5040926987338095 4.783957049172829 12.062912398989639 -0.8541700924701869 0.22054305852751696 0.0711064290285227
P 2.197565575265113 6.537702068697134 1.6925241193356397 -0.05513113664618892 1.318646049204071 0.46496318078294757
Ni 0.7819390497124186 6.586676953551651 13.421630053282492 -0.03482404965772067 -1.136499073956249 0.4322890875886942
Ni 4.958814915184223 1.9282082968063115 4.960363905359124 0.08143737864088556 -0.030868150333766192 -0.6134292188385564
Ni 1.7179475629349346 5.21596747247823 6.366384489471738 -0.23711304707105613 0.14080363641434462 -2.296878554074522
Ni 3.9685715575796268 3.094126227327315 8.854516946224365 1.3833578875601595 -0.9721533885559062 -1.4067734382706225
Ni 8.424955725985793 4.527997434549065 6.661819494702052 0.6006271819778818 0.4439271860482548 -0.9502470754011183
Ni 6.474145753819416 5.8147237516373735 11.70871762606419 -0.935502312991776 0.3559602338189676 -2.092643231568093
Ni 3.903216652214465 6.735381845638486 10.149802168147565 0.22837283898458086 2.2255949760381863 0.4365182951786934
Ni 6.472760105025518 3.8569947119835866 12.75428507647362 -1.3393701691253 -0.4235131411682771 -0.37358925975464047
Ni 8.569127435925706 7.839633816590003 9.648245022463408 0.8543004474004642 -0.2877879477181044 -0.3575530322273842
Ni 7.104102072046454 3.2233310949967158 4.71635482334657 0.8599000529754288 -0.2496798279924732 2.5793242636441063
Ni 5.11153910642157 4.435810495585514 4.618377524191302 1.2685771575721378 1.9685569079084289 0.4905268881846648
Ni 5.6915386562116606 1.662338081537451 12.04568080094208 1.4578113786840443 -1.9951901942252412 -0.6663646333850072
Ni 6.310648372621567 3.6496245699670293 7.311812661548134 1.0770847365536742 -0.5104385395069274 1.0651630454154235
Ni 4.398939390592925 8.059869386481028 1.2160206050230036 -1.018973948453871 0.9749070400416437 0.02341709337235967
Ni 8.273057418135538 7.968095389211022 3.6542944816969274 1.3580428058341385 -0.2822395070960494 -0.4893601215700733
Ni 7.34872873130291 6.429786639450532 8.052193259222117 0.9784320224757664 0.6114504978456308 -0.48647148716836863
Ni 0.7531661901543641 3.7792699087762127 10.278695953074495 0.7201001752352502 0.349820696580133 1.0197550495942695
Ni 7.214201504027809 0.5979019486776078 4.967334361146174 0.4173201249836877 0.22354610701989888 -0.3834083027275913
Ni 2.5652672121623357 7.995019187630199 6.572183617756405 -0.6887555994856976 1.254011343942821 1.4167284926008052
Ni 3.085188333782571 9.085524788427684 11.239354332457063 -0.020731833230712683 -0.4243636620940305 0.981280547668155
Ni 1.5997544737600848 3.5536293909407792 7.9046574509521195 1.3349432437021977 -0.8065746020794108 0.5280793925171421
Ni 9.007322808152214 8.608815720916484 1.0483644421470457 -0.868284420384382 -0.42917856698417056 -0.7582386339781844
Ni 3.5211813503101688 2.2241314908832175 11.76755722915341 -0.5937849622450677 1.41007961982572 -1.5193599888208025
Ni 0.807914917532857 4.114147269277594 1.0408342209531884 -0.0707780991548265 0.28207315672151423 0.4195284454889162
Ni 6.88386650215543 1.8169893340113439 8.922248560447933 -0.9871076958728935 -0.948868706996353 1.2236792686181828
P 3.3822402351551686 0.5000512849750257 5.29272048623346 -0.2166630067468204 -0.7084991006612121 -0.7542747642344301
Ni 5.49901606219859 0.12949025626205135 2.9275859246721385 -0.38420560181790603 0.5251226238816634 0.5101852858455407
P 2.925719428217312 5.163670701111191 4.447136109767159 0.728691259338371 -0.07940723558473421 -0.18410435608450873
Ni 7.67487008086528 0.6271694206197092 2.4843590873218284 0.6267639882742496 1.813154290633987 -0.2982453956060025
P 7.380708771347502 1.840315951455635 6.694442806140368 0.30569105325077034 0.5194857373108601 0.9043150887556941
P 6.223352498606012 7.397061262411911 9.809548306796218 0.4868828636741744 0.4428720053108631 0.8050088002541879
P 1.6048565977958937 7.51434587986096 8.918245778965165 0.01029135462367905 0.4469844848173399 -0.3354680274028868
Ni 3.8788622687773495 6.498564372631083 5.737289842911897 1.4562944278188854 -1.1713966571643826 -0.5359780785389285
Ni 0.29445770988892306 1.241945084543801 10.430006966071707 0.826611723235944 -0.6240825847873446 -1.1004573498413435
Ni 1.4434147485836941 8.66243390570287 2.878590851557048 -1.2399767202266259 -0.45771729785381177 0.727924042155043
Ni 5.162743876421233 1.2058998629383033 7.191352063651616 -0.12206209414078334 0.48759840168396024 1.6191990098973277
Ni 3.3270987543437034 4.932689470705901 0.885425908707795 0.38359162238299094 -0.7308479006700574 -0.09909391538038417
Ni 5.335527857482821 2.222874312838423 0.7586427146589876 -1.4011481216640451 -0.5695921670489481 2.0764673931391786
Ni 5.315183596714137 6.210615541480648 0.36375483195513386 0.5561488970598487 -0.3798720074395587 -1.5217786255646242
Ni 0.5914196817371488 0.42409478986423504 7.918329491601313 0.3858328530086839 -0.5415087785491707 0.5878763100701165
Ni 5.150988802878299 0.1881968003611275 9.611042646467775 0.9251456523478002 0.2467166315990912 0.9160771143876287
Ni 6.080281966515555 5.739696834161165 6.3157771084554035 0.19237739472657836 0.7657025464553975 -0.5059380805334125
Ni 0.07227213755615537 6.137891921006216 2.401048559473093 0.5321008549717094 0.09027734553001872 0.004027375991838225
Ni 6.111702241153341 7.1838915837215565 3.995918391822637 -1.14149986960495 -0.3379540270495341 1.3267725349659474
Ni 5.690923831912382 5.35156834815655 9.239065686570044 -0.7470702760661908 -0.8868462425469695 -0.468930907181444
Ni 0.7717715075691163 8.237810550470895 11.803444615267152 -0.11551992214689139 2.2712076316709786 0.15592480832649921
Ni 8.608439485151253 3.107166008361279 8.554623088351965 -0.18481012390228174 0.1540810702495411 -0.4394102720145077
Ni 2.681872769937554 1.6322300438369324 6.976515018167545 0.5016237694287747 -0.7717772918945677 1.250420798378085
Ni 3.6568372848809605 7.953642429936923 3.741271931784348 -0.6705154223285872 0.5869280872242344 0.7015884895843079
Ni 2.459214608777728 2.891995856577749 5.113930497651303 0.27190984303526716 0.041341281950948154 -1.2056494076996656
Ni 0.18496576102118462 1.855053381674176 3.886148395547911 0.07304246970897098 0.18580488371538326 0.20456699481423482
Ni 0.1437450035232479 7.408375864815062 6.573109524798155 0.8583242238478767 -0.5427624484506136 1.5688043594948595
Ni 0.40165094999592393 2.164658710530562 6.316234097262928 -1.5434846497831483 1.3159258220594305 0.02682817593643767
Ni 8.188376841512438 5.306915586361145 9.983113206482711 -1.0334076073806977 -0.23847084665053123 1.5049173310329116
Ni 7.818004848330288 5.365351424238897 0.5566857794207105 0.2393704756466652 0.2302595144843325 0.28826797267831644
Ni 6.572141405938843 8.838126831583434 0.34754090577011504 0.31317759143580254 0.7890911005826668 1.1654599799649734
Ni 0.5754039675650318 1.7696937453772466 1.5402202109775018 -0.19613814732059126 -0.9601404232554303 -0.7380953262610902
P 9.075770187977929 5.0053396793237015 12.12609064280571 -0.22027206425431745 -0.32527206070649145 -0.5562995637051
Ni 4.942976307116227 7.554841695274671 8.001479431013669 -0.023232231055063213 0.03694032466977509 -0.5679397190471897
P 8.415999479476891 0.8866271102119091 12.756003831566979 -0.2460154917670086 0.03119545176619789 0.1344643244598781
Ni 4.5359809739576145 5.975321364498324 2.774865404027623 -1.396983191653078 -0.4064412732876549 -0.13469675218565832
P 2.2741983771051104 2.380618039772869 9.79196708478146 -0.5184015031077459 -1.7217137780338028 0.3786990701773801
P 3.856756123449538 0.7577727841579182 13.357229502053526 0.5084523623148339 -1.2467268944662657 0.008626308216430305
P 1.892456722627335 2.892298680486349 2.7930238267651384 0.25545632546493424 -0.49235237142917787 -0.17986460697154832
Ni 7.304149381364135 0.06263774902163094 11.013987273787578 -0.12098145948209486 0.7844343185369458 -0.09518506724428123
