# total energy = -340888.50728077476 ev
CRYSTAL
PRIMVEC
9.07759817217926 0.00000000000000 0.00000000000000

0.00000000000000 9.07759817217926 0.00000000000000

0.00000000000000 0.00000000000000 13.28598250266856

PRIMCOORD
 96 1
Ni 5.997750490388825 2.279303136551369 11.312455310600562 0.9199219420550158 -2.3414838514887224 0.3624782374431435
Ni 4.516867477917474 0.3098129700730663 6.029005567749065 1.2553244063272897 0.12492476040055904 -0.8764993520950066
Ni 2.707802068244543 1.5335421579410597 4.85744805834307 -0.4772980481992167 0.015463899963554012 -0.9516100171869161
Ni 3.179428667603048 4.526925456400569 4.7278036205273 -0.13503588069263195 -0.17024508160391325 -0.34713440799722156
Ni 5.323693457661161 4.444500867387476 2.6990875742519695 -0.2983878347211377 0.42482234689800386 -0.16740684082416973
Ni 7.429750638120583 6.266038896587277 2.503504372985517 0.8306275292635565 -1.5126442673635239 0.3651920368298808
Ni 4.898108434896754 4.2606704321337165 11.640340870350519 -0.965940317766659 2.274231763209283 -0.7332595954353436
Ni 5.752410251704149 7.908094659931697 12.607547126669825 -0.7521075813797822 0.7185621413241688 -0.6259561476609735
Ni 1.8157828321255394 6.290993213238929 0.23941982932847072 -0.07392101565918237 1.1420140902372076 1.1461507381134002
Ni 2.7967080621646123 1.5239652921471376 0.5473428435168977 0.9559562099707535 -1.0181905333206271 -0.9502131368393893
Ni 0.3191547260811471 0.2619113936674288 4.84390972882169 0.6825949792009406 0.4525270119021239 -0.25227715640600423
Ni 8.73839530786788 2.1326545423325904 1.2656322875754094 0.758637669188816 1.073406002150506 0.08099849133125406
Ni 6.893173825723678 0.8291459774821667 4.919958213063551 -0.6397848260139497 -0.8858666522425196 -1.2810230966449745
Ni 0.6922984657256607 7.272826203068895 2.455329560882821 0.7311116958544054 0.3143896094660328 -0.10583971874465
Ni 7.638680631592537 4.049561815163619 3.8406191130545935 1.3603264596619928 -0.9903380298847331 -1.1773505607549724
Ni 7.694035823641198 3.681165659225477 12.676155611665525 0.72952146854915 0.6279567230307702 -0.529990493496926
Ni 7.941309590680476 8.805378902837882 7.270195515194887 0.1386981600355676 0.7305157141416193 -0.4085688611536189
Ni 6.851789056856862 0.6967138093485646 0.35498037398853377 0.43500237275479925 0.3671956975234708 0.24125663692578447
Ni 2.0045424030438483 6.700229482169352 9.462236610807494 -1.1195845575890975 -0.9866376982150104 -1.866983420639301
Ni 0.02901381843652495 4.5679108109593916 1.409443224687856 0.4232447179982388 0.8479212833469977 -0.18000704608668355
Ni 6.403264944176587 1.9479526576795732 6.778826955904039 1.2562217213305784 0.3816147011622783 1.1283985563363017
Ni 3.4718362514455303 4.4778519621048885 0.2973948161336489 -1.2306814109676287 0.4715539466265879 0.19838503437323898
Ni 6.426004326938458 5.548972204967099 4.87232805683539 -2.101953453225425 1.201153319601525 0.38632547637438625
Ni 5.170663312112404 3.2876608674712315 9.127509265513575 -0.08715756895411442 -0.2628762720780892 -0.2577950009004399
P 0.08994265560126916 5.571312173420979 12.272195242639771 0.13799033533526558 0.6784819854738314 1.1496242984842975
P 4.255741296469167 6.3236181001236265 12.591802940856576 -1.597704330358661 -1.42766699389018 0.8635944711078803
P 2.591735901380953 8.265597698379123 1.4824897473012324 0.032373531234699084 -0.21620175083968574 0.6287938742200848
P 6.5817940622515305 7.894696125418115 5.853883272169343 -2.518232281428792 1.0111454535483877 -0.4846891984569652
P 4.876549139863043 1.0537457204645169 12.818807339525 -1.0655947336362035 -0.08645360090855433 -0.9577919776279117
P 4.07562359876016 6.074011390421753 8.26728250055102 -0.21470125503475926 0.022192734046955327 -0.62070646922626
P 4.818697608389426 1.2238054396904283 3.7721159281946375 0.2952857987570463 -1.1244390574679215 0.47925388637400684
P 0.3377111517265836 5.4486012048880506 3.531759290761965 0.39897864636202257 0.36136263578146155 0.7641652838752646
Ni 1.6815796246399046 0.8210542067061457 2.7098354501761435 0.06104981612346905 0.025631584525175208 -0.3416656715731664
Ni 1.633722528464021 6.510553073862241 5.350304435931192 0.48773287037929547 1.6322581570741308 -4.032254145866133
Ni 6.165422801364688 5.592063562240795 9.397015885351406 -1.2200491280647634 0.7613147018003469 -1.4569467166909038
Ni 8.7769387885892 2.311655695498799 10.191172261693598 -2.00869259958705 -0.495315824932876 0.619100815302037
Ni 2.1250384376869973 5.342393309353558 7.059400075352648 0.666820232865187 -1.7323424613922425 2.065083319671953
Ni 0.8109662721499509 9.001672880020603 9.032753667500991 -0.9914670012828537 0.41150660362570424 0.6290687251480263
Ni 1.3150625314689106 0.8570005866657212 11.333660579315824 0.21420554634526337 1.0084905324240439 0.29318726435680476
Ni 4.393021809645929 6.722705614591864 1.6399415907914294 -0.6643887406055591 1.0605479152409154 0.15021567375686387
Ni 5.684954621642884 7.870186611064002 7.854739262702374 -0.6113540814770826 -0.09525397280900369 1.323376621910521
Ni 5.236775457683148 3.0970222337857733 4.8968275858318036 0.5756836246586666 -0.3749547726435994 -0.9200003607014349
Ni 0.690936826039321 7.405994564392911 7.24689241360287 0.5810325476754058 0.6541374951911959 -0.16759993067158233
Ni 4.5976308665132315 4.576870400095507 6.597978511563364 1.0137031869732347 1.2729315778860917 1.691826246445751
Ni 8.07059274009947 7.222636164230416 9.270679324213653 0.7793322214236901 0.21623131852604052 -0.13303376266093864
Ni 4.8074776973739874 0.20027904266474247 10.389132885852401 -2.5047522446644863 0.5401710335743536 1.001230765537837
Ni 8.323049815544746 7.303163535280542 4.956774226902802 1.0892946483563046 -0.5936764616916614 -1.6631725872648002
Ni 7.314973490160061 6.301550459607015 6.967899703950207 -0.40808960752435525 -1.2699634963967033 2.3084953123778438
Ni 2.599361083624455 5.261956714282522 2.472401799270147 -1.1384947642300391 -0.3917224790202415 0.34029758758104617
Ni 2.0985681621845544 5.194292299469351 11.504198687951538 0.4356052964461207 -0.6644915847320104 -0.27316248449544567
Ni 1.0547351786365904 3.21533056733287 3.6196731032305878 0.23937767473551677 0.5537271749922335 0.05732274498086903
Ni 3.577154542384947 2.722907191165004 2.8565258013453034 -0.1582280025383791 0.5631942339424043 -0.6523395227505088
Ni 1.0514037002040126 3.1009800664740674 8.240816763847533 0.14887510056856942 0.9650941677162798 -0.2629706315641084
Ni 3.6404707877997393 2.494360508611851 6.739992084289842 -0.10784672187234974 0.43513272768507644 1.1849921364606302
Ni 4.100931941730259 6.997466348099385 6.107233583248858 0.01387907197493739 -0.6117207207878821 -0.4831781611290775
Ni 0.8456699289557936 7.6546390487164375 11.436865605462042 -0.6093869304483829 -1.600005467688012 -0.1052535072238768
P 0.08038122172379224 5.556769861570872 8.031243168683835 0.5095887899121223 -0.4385898329957414 0.26318249046459835
P 8.431890214472828 1.6264604501368762 8.05769528899046 0.5563322167152485 -0.11001853271268792 0.23984381573865793
P 1.5956420052360558 3.001934395689722 10.537604261731294 1.9459479122596617 1.454978023000307 -0.6951159944860867
P 4.4003111207668 6.1026693670202485 3.82944549778849 -0.16718444040071853 0.2970863423008948 0.6631222151883096
P 6.878177633978124 4.063423307170557 10.734355749848627 0.13110209285586452 0.16132901006120604 -2.7152973114390266
P 6.22271152176795 7.777867440330175 10.238376678579831 0.7259787455032143 -1.1154440530581629 -0.22339106949927334
P 2.3577698928761675 8.605036316987777 5.73707274227722 -0.30454382702020455 -0.5801228913769428 0.6673933317598376
P 6.964106175784065 3.9124537763471277 1.3644301399368406 0.3625929086441368 1.0950510912241076 1.3414036546155608
Ni 5.1720067966029255 3.0970948545690447 0.44047954541338125 0.8680656195053567 -1.9383734423465135 0.43701374675787313
Ni 1.3946639875323257 1.0479360578028012 7.009896302916085 -0.018045030427168925 0.02924038492235609 -0.5276603027018526
Ni 6.687602543478029 0.7648656911694452 9.27018731840699 1.1842215768431927 0.6970080693024769 -1.1050323708065355
Ni 3.056254741576765 1.7892217806440074 9.245555256481104 -0.44896397714121383 -0.4691563929286888 -0.6974646972239215
Ni 6.596726710811722 2.1710981694769127 2.509390287469668 -1.0046783577668053 -1.1848427553669596 0.6157830637827136
Ni 4.072827698604209 6.763182623667787 10.560761213996976 0.8693763678969803 0.3565446455675279 -0.839435871583806
Ni 8.19201468972933 7.289928397529321 0.16892592724708602 0.11491057069766661 -0.01069604626126545 0.12545697875494521
Ni 7.644072724750442 3.697841206584183 8.482567720319016 -0.4203607115822245 0.4465258000133665 -0.5414696977811191
Ni 2.9710887179951753 8.37363019109331 12.456631153674058 1.6311487260600361 -0.24175877337318363 -0.11577009048448449
Ni 9.096933192476923 4.980133609601854 10.089069255933527 -0.1674006701765827 -0.4831267390658518 0.5964290847361342
Ni 8.69128257472053 2.530189787558401 5.938116118685895 0.5771710078374706 0.36121968244569397 0.18102777404171405
Ni 3.4455202951075394 2.3153139674560976 11.496772305102242 0.3860765935883738 0.12840037765398532 1.0415592899535546
Ni 1.0920622612381141 2.9134641264692815 12.704189049527885 0.5343991640875829 1.1225526390784861 -0.38805402902971875
Ni 3.3332667193657 8.711589161242808 7.996898984755187 -0.5237663669640851 -0.6228757089634369 0.27509312585925527
Ni 5.96731330460018 7.772520735161814 3.710695085223229 -0.6444557491270578 0.47845890127653723 0.19785847244580765
Ni 3.504479293526046 8.292812336910098 3.8735145123569774 -0.26262918906428967 -0.06393227987758666 -0.977125130738885
Ni 2.942848310900491 4.421589010265335 9.405784844931434 0.7367205574007506 -0.32557750776205213 -0.35315721715253373
Ni 7.086907920296081 6.062264978727597 11.50486316811847 1.2231645337652934 0.4897750976203048 0.14184467608434925
Ni 0.9007146671559689 -0.16029040835632008 0.33228910249557925 -0.6852478434427554 0.4138828171673647 0.14881982185060177
Ni 4.658341841328162 9.401940482217002 1.604640628043179 0.08665183296228948 -0.5541732613907165 0.995808308970685
Ni 6.114397623518587 5.704217284405636 0.2916668518531135 0.26068157841961553 -0.9301029963530756 1.187047219217446
Ni 7.830372266635432 8.909471718059592 11.23942240438405 0.5470230234991804 0.35514622255810446 0.6894875925557157
Ni 8.83450891452764 5.064201243836463 5.798281169457559 0.8907378642918917 -1.3826341220202576 -0.3036683663937867
Ni 8.396115401113732 9.23781751202353 2.2688076178490633 -1.2747835434931658 -1.380125753776107 1.3696325675542669
P 8.338554352773201 1.9908806181909076 3.8125057923306342 0.7093545066829718 -1.7211193389829134 -1.0711573153256455
P 1.8750232360792223 3.1066989531566938 1.4706117104373961 -0.3971966147609353 1.4747914581818087 1.2927735523126833
P 4.940664213893822 1.353769408952592 8.039879595334392 -1.9143207722726836 -1.6177285959993883 2.2422752649073447
P 8.449918323919965 1.6401585453814531 12.39789364864453 -0.45847268796259755 -1.9393913420880662 -0.16606678185650753
P 6.424697152839571 7.810065680113152 1.5346641490426036 0.5809980948930445 1.1925804903308495 -1.0382477090818183
P 1.8032739022070323 3.3463566155503783 5.9301187549281265 -1.121388957787688 -0.4820746436522537 0.736669392447841
P 6.869163579254557 3.95548159043546 6.380500144140569 -0.37865587564427045 1.7433241572147264 -0.9960415080274135
P 2.5930612306756564 8.596131193439115 10.115933499185218 0.8122757662292464 0.8046560449004594 1.1124949977321679
