# total energy = -381166.1202390733 ev
CRYSTAL
PRIMVEC
9.25330699055681 0.00000000000000 0.00000000000000
0.00000000000000 9.25330699055681 0.00000000000000
0.00000000000000 0.00000000000000 13.54315011928165
PRIMCOORD
 96 1
Ni 2.8657861810771843 4.611033901612294 4.39576774431137 -0.20134180300871773 -0.261770183498104 1.6373219447502834
Ni 2.626060757468944 1.650901002694 11.268184949148097 0.594151601555867 0.1462453762552062 -0.3881085364167381
Ni 7.571194560451492 7.090957182142768 7.7773027198466345 0.9265703006094689 0.669411647741447 0.28532894465465053
Ni 4.56967161946736 2.105284641335397 7.73235293059038 0.33792317381159864 -0.053973883113294145 -1.20645004922409
Ni 3.301108007365434 0.9284675678167011 5.5610746292931355 0.24378994487059952 0.07688446916288048 -1.0097539725174995
Ni 8.07808146282675 8.177091847379502 10.031586885965563 1.5014586830603496 1.6479228601945812 -0.13683179625079014
Ni 1.5451171974410025 3.7778568889473925 0.8792011108600873 -1.0626829593060474 -0.5221964513738039 0.6738753399397556
Ni 3.0686741896476204 2.0768677356380603 1.3829585448189214 -0.7433689159552036 -1.0613819811064367 -0.14477419102631842
Ni 1.4651501186274614 3.8707693442085325 10.288703900019309 0.2065403164905217 -1.2681812076852996 -0.08007212286224275
Ni 0.19480802092637406 2.8107382579272473 7.838666950332619 0.16517075240479942 -0.1700630475000942 0.1477517855974036
Ni 4.4119304955915855 2.399428763219782 3.367518066140823 -0.5035197008999069 -0.5216225811482049 0.9826992823925527
Ni 6.846688384813461 5.561737166072011 13.548567142238296 -0.17787148780091946 -1.4614044953519414 0.16599247697514638
Ni 3.464724981165601 4.17772929624297 2.3893907758213873 1.033742365012297 2.4771380824916434 -2.0748293433151233
Ni 3.83494053963019 3.8574445821752645 9.516188791841556 1.023003381328238 -0.3597356417009998 0.4777559616722417
Ni 2.073601318278516 4.445751332557969 8.176121175478608 -0.9553373454398323 1.1738078377090364 -1.3808891143046926
Ni 3.9102902182669252 9.073163587502822 8.224713991687985 -0.9895098775564829 0.4086634777499542 -1.5960603669973352
Ni 2.4356369533837934 5.257654992504481 13.071563794714729 1.0357979619897453 0.9154492509956428 0.9841216166613762
Ni 7.649745883298998 0.8456051292530143 1.293131142100762 -0.6800241331499708 -0.14380874178925554 0.10022777187451125
Ni 2.4968013124392794 2.16736507778067 8.773943101416041 -1.0339169429169484 -1.6582419827324024 0.764873879906515
Ni 0.46866981926859264 5.124897797441084 11.88034950088523 -2.3694885642317645 -0.4456115157292132 0.9532925470956616
Ni 2.539810683224438 6.714726974149273 4.02035182733102 2.119695350589878 2.4034029575910223 -0.5580561413848906
Ni 4.282134358757803 3.729027188079647 0.2607526383612947 0.9665576396356838 0.17946634309186513 -1.1684599431335618
Ni 7.3423325192231506 7.441083811180813 5.343111133011171 0.4235848749464769 0.2478440603353151 1.5781318075433726
Ni 0.889730448858459 5.256646382045018 3.1170782383948596 -0.5025316259550249 -2.887305912701266 0.3771337825727892
P 5.762136035068178 4.014491708028473 4.750923545686278 -0.9529565039124813 -1.013767721662583 -0.9039559056440626
Ni 6.270614506241854 0.2969941404303894 7.810957922618299 -0.3964977889216978 -0.38654967657005035 2.047115422339623
P 1.7710737002815338 1.5346146940328367 6.939361179424142 0.19292966768562256 -0.22891405620003155 0.8453080140938667
Ni 5.7816790193836365 8.146065509117319 9.86446475948609 0.7212574287681449 0.8147494245807194 0.09761681661422543
P 4.994981367616723 7.066491438520574 11.909507596470666 0.0675711621817546 0.4386836782611284 -0.58836687655329
P 0.8096060638264693 8.725507591425114 11.489588824960595 0.24492174448219756 0.2891650305712891 -0.010570576426994698
P 0.07567909636478011 2.2178326139816718 1.420649114759134 1.1811879322231915 -0.21038565837854087 0.010274642453130691
Ni 2.346342541146965 6.074398131995019 10.99852785349193 0.5763806507256912 1.1667804985486099 -2.0319713676093327
Ni 7.7790608481704675 6.424608040795772 3.33252205918956 -0.9342789821076363 0.23551536356663308 -0.7458400032035155
Ni 5.169091591518089 8.528384393095457 6.073845709569056 -0.39017544624809575 1.0299078217575555 -1.595624565011497
Ni 7.435504067079382 0.6202186301216843 5.93082937307074 1.1959419506039144 0.07472371406613583 -0.39278203063300743
Ni 5.020261402252062 2.399419509912814 11.52118516693198 0.045477929827141036 2.069618231427829 2.2757767390989
Ni 6.965288020216512 2.4683659001280076 7.180780883538141 0.41785362888965455 1.5625676345565285 0.9978433371228428
Ni 3.669537677585287 8.801875133828279 12.77161044671612 -0.43291000900214477 -0.7409397376884207 0.42996403899994334
Ni 1.5262682111481094 7.6728976573318 13.4294955881799 0.5806610232685999 -0.5816611823983402 -0.5220992636743073
Ni 6.516576658746221 7.803942990606202 13.398509039137677 0.3502161322463388 1.2752663966668552 0.3169571130828928
Ni 0.49112666994813253 6.635389120209526 4.9966229042727655 -1.038898712402256 -0.22932466137488894 2.0118622555642838
Ni 0.41401701232616966 2.4730388201466185 12.0829136437118 -0.6803959146670928 3.030487305319168 1.3209194186192799
Ni 6.560677919753551 0.4420388018159923 3.804284333646707 -0.8245077895190639 -0.9958772145354075 -1.0465721697871135
Ni 1.9402611648761634 2.619638962433466 3.178604401752776 -1.785575352574454 0.7866830053618064 1.2397319512056715
Ni 4.616243513435023 6.112345943868929 9.776624041773863 -0.9569797661392615 0.12247321353627293 -0.6176921078799685
Ni 1.5450339176782948 0.3166842523266327 3.310149413603425 0.9877718118194537 0.5553893931860048 1.5264158672263195
Ni 2.557197647016459 8.07555531002461 6.036791767148212 -0.08349786071434007 0.2227413517304164 -0.4161484732730898
Ni 6.476889225162412 2.2071913109689922 0.06096078630219982 -2.126659440612537 0.05192959898975572 -1.2256384492270826
Ni 3.564688456336012 8.415271968724163 10.461297506908691 -0.8301637022532606 0.33826178809794 1.3259940049287098
Ni 0.5874415661812392 7.430609067693549 2.8272952000842793 -0.15841003664219816 0.9545400463495174 -1.2158623436769254
Ni 5.823485460263014 0.24809041310690338 11.796462721240234 -0.4084279647003805 -0.41266617115144416 0.7020857409357005
Ni 6.42966959970702 2.458464861672732 2.409719365898391 0.005021878694623609 1.206846256221244 0.2904135582664095
Ni 0.8666221653684039 1.748282805220465 5.087105441124228 -0.2909432055176344 0.5609856563268596 0.9671811321522955
Ni 5.404134841800751 6.8275155327767045 4.435313602298576 -1.387450055351662 -1.3617523934752418 0.092787256436066
Ni 4.506425266344175 6.447306402787164 0.4813098365862619 -1.436836319094274 -0.30463150163800434 -0.5798354420435111
Ni 2.994481174381829 8.706760391508862 1.8547208192760685 1.3890161142872013 -0.936460306029671 -0.7839182981324757
P 3.301885285150709 3.8900254760079975 11.535851658475542 -0.11927938918932361 -0.029746120914181027 1.8392175633799424
Ni 8.639239010566671 7.1885980772643245 12.166583895973755 -0.1304660019337624 -0.07144607175612856 0.21254718480623394
P 4.261573510675913 8.801995426818857 3.975077247000206 -0.1396929198486691 -0.5805579220318324 -0.39012582395708295
Ni 0.4573197129421995 9.138825053744535 1.3705942760488854 -0.21773592809602502 0.5751159250806547 -0.42240782391924026
P 2.9571996006095818 7.213794832136955 8.828427498171655 -0.3610091090967847 -1.76205824328912 -1.336013593948241
P 4.46608084796567 1.0467618440898223 0.4206701400358359 2.218014849698083 0.19616231569030732 -0.8866757784073762
P 2.154373434798234 6.309996580695734 1.7941292399218738 1.422876257369756 0.18175539623635792 -2.068243976788122
Ni 1.511305613781586 1.019029683108084 13.277596076992738 0.9584473518237235 -0.7528825118725937 0.3275372025915843
Ni 8.442495197822687 3.896567564034053 9.800432800601362 0.27921794666090627 0.47144210363907196 -0.6457549275544555
Ni 0.37936522839409953 1.3137382567174891 10.352654429802723 -0.12031785775616696 -1.0499955936463656 -2.1502822222378004
Ni 5.4125183379133475 1.9395579135466297 5.400371521857048 0.8538024247181231 0.4409202809011309 0.6308181037389653
Ni 8.163396953067535 4.167023220081518 2.7830634674487076 -0.3271235120929334 -0.06318306041638795 -2.3153563011637353
Ni 8.945495711271576 4.999265648742697 6.932115840068553 0.10204914135396619 -0.17378934731174586 0.2571555675442281
Ni 6.200826065092615 3.3414431724369718 9.496538469165271 -0.4710235280444146 0.5973539105432486 -1.0048189971097277
Ni 7.183508758432173 1.2661207390624922 10.123125225142024 0.08974255607247125 0.10335629020116394 -0.12460260117444992
Ni 5.565197902877873 7.535162183119863 2.262830520434156 0.7089066205122758 0.7466118483725336 0.0860648501105679
Ni 7.974083545818489 3.505346998753133 4.863291078846684 -0.965444351966847 -0.33835794735617214 2.5768999704733297
Ni 7.208899832751123 6.166422269787275 10.31167338390485 -0.5966273167898692 -1.7087158231122381 0.07473271292720032
Ni 1.1103505695708056 6.877705469768679 7.408725922045997 -0.19904812187853463 -0.1105479228535967 -0.6537484872828935
Ni 3.2398048487054356 5.974471670052479 6.826560591497653 -0.2866684894016805 0.4063708250610356 -0.8293286079464749
Ni 5.184128215340352 7.097906415675396 7.8104434387509025 -0.03315386104414935 -0.684667288348937 -1.2037815012529913
Ni 5.374320686751314 4.889049509452245 11.387784867034338 0.6235650217209777 -1.2329244413655347 2.49504247357589
Ni 8.672486142501068 0.6103148156743188 8.280539192623195 -0.2295054099271273 -0.09377893092537398 -1.1954277299716574
Ni 8.381238305697526 3.6777176009445984 0.1853326345916059 0.018771109959916057 0.5173902882344121 0.17007333191273932
Ni 8.87904771393762 8.838906868312401 4.331884763668819 -0.08460677750780268 0.7943495207681287 0.6741085389964842
Ni 6.609618660304907 5.19458445221368 6.244028829993395 0.8972682092112418 1.2006964345697644 -1.5836987601081884
Ni 0.13624754245155593 6.2381261454787955 9.27225033757099 0.2360126149180258 -1.383201307377637 1.7417030766715358
Ni 9.190291947098032 5.949608034230679 0.8470153332348686 0.0788845303120448 0.09390440075964472 -0.2640324971697195
Ni 8.593092768719515 1.896863155198368 3.433689389596448 -0.35912577603114276 -1.2084912480238348 -1.4958595917060171
Ni 4.71210777361881 4.368467712765017 7.369383636812078 0.23162914113834945 -0.30877149194830694 0.061077841147927074
Ni 3.052018237106036 3.2319858043178584 6.072707552812048 -0.48287811339015546 -0.47477862421147266 1.29549403656764
Ni 8.10690551403066 0.4421951827037438 12.273045968627471 0.6916084955534605 0.012025563705966386 0.38630130800467016
P 9.124445414716968 8.523933552444069 6.590219102247445 -0.0984745366288304 -0.883938324871555 -0.6309883107682424
Ni 4.74870460267546 1.2256652810003765 9.805132555210179 -0.2600238902309587 -1.0419794082101088 -0.9728912951631954
P 0.7245968580463116 4.202352346083613 5.209671043893569 1.1875845797781548 0.17480184773666024 -0.16793725940634305
Ni 1.2960459337955392 8.509674206407079 9.133405391853644 -0.349346842267508 0.7921548271096551 1.24328778687773
P 7.745388064115564 8.102195580784178 1.795523713281883 -0.06216696044704778 -2.0873423881804696 0.6114155308426374
P 5.578374611999661 5.186293489170758 1.9676981453656373 0.44727707635709424 -0.09952714626306085 -0.4623213722847264
P 6.419611255033296 5.2781788273584995 8.276814736568758 0.6452741312632951 -0.3150989768282315 2.881460252553767
Ni 7.309714612162548 3.232744575489197 11.673084678119142 0.0037486684091548343 0.23604449659722573 0.033769383140961194
