# total energy = -340886.1042819697 ev
CRYSTAL
PRIMVEC
9.16010203525051 0.00000000000000 0.00000000000000
0.00000000000000 9.16010203525051 0.00000000000000
0.00000000000000 0.00000000000000 13.40673524589448
PRIMCOORD
 96 1
Ni 5.189967190482332 2.97412937412171 10.096330297208178 0.3694541545403444 0.030662976301495583 0.17762671877996508
Ni 5.293302300326293 0.7896795630258093 6.3747814903031115 0.3524681615053091 -1.7593171902088736 -0.0057700697145578045
Ni 3.131087720649171 1.4036390587562828 5.988869144128734 -0.8501792261432389 0.8579197893206063 -0.7226419678204974
Ni 3.7426069652261624 2.6013865064884785 2.750619223050298 -1.0475828704398154 -0.39570666047897013 0.30302867592725874
Ni 5.189655747016798 3.2052204255483097 0.7530666356216507 0.22351499667164734 -0.3893267250945553 -1.6342060248291213
Ni 5.018865646578834 4.592719384708364 2.846128857817609 -0.12891665516877152 0.8348382249107945 0.15171565534115805
Ni 5.180349083458473 4.854221974534214 12.017140466698546 -1.3362511638803438 -0.13069945810080716 1.024372493761623
Ni 5.541083057464771 8.090495145616698 13.150371484535077 0.13190967635882445 1.3596407464488778 -0.6191344967534499
Ni 2.533876555282912 5.327854204796768 11.652423680374177 -1.1010538457747618 0.7679905711586257 0.9762833515638799
Ni 0.7642282198202914 7.896969672194716 11.733507070615891 -0.026035761942129355 -1.0672903761710715 0.16127321712260612
Ni 7.898242926362637 8.895475742902178 7.482192012826448 0.724310613772172 1.233478771207108 -0.37757678364747876
Ni 8.354745766020795 2.6600935997417317 1.5054957281491481 1.0276321383495013 1.6512925479977627 0.20987169485659984
Ni 1.2734465300609341 1.3182669087921197 2.398746731648649 -0.7701438700562027 1.666982962149826 2.0209392781648874
Ni 2.026837433290818 6.692260546997632 0.6009384108405531 0.058198976938235246 1.4395084666097981 -0.817941963376088
Ni 7.89925053757466 3.862705061597422 3.832945722455408 0.03270391799092432 0.8815148030317269 0.30676988813724587
Ni 7.5900146566046836 4.241841680376038 12.920942075598123 0.9722181803555708 0.3851867347842528 0.8169464322320382
Ni 6.846928868043221 1.113969155503415 9.523930183922705 0.3577003564385259 -0.5274376451680852 0.03301682124565281
Ni 7.101570541525384 0.9043512150152269 0.7518629982283791 -1.1604005631641952 -1.4359839983963076 -0.016173010215436663
Ni 1.9502773013808956 6.719420249212626 9.589985510942187 -0.8980331124017245 -1.408256193463736 0.3561582087623866
Ni 9.4416834607362 5.362406109267242 1.4939256034045416 -0.6823946902646764 -1.590721471282925 0.3269391639962692
Ni 6.613456190115476 2.608595506705409 7.510935496664703 0.7327757138203896 0.3711675376870253 -1.2500618723767696
Ni 3.342832636804921 4.678531219565045 0.4783808271017634 -0.016750479985461475 -0.5957575125904062 0.6674282987628312
Ni 5.962658428473428 5.8018070386267855 4.8441889148930395 0.9066087698858774 0.4289109151450806 0.3278655324652805
Ni 6.639672401831938 2.08456439563783 12.075232001102272 0.26906440316667213 1.6800192265084937 -1.8461322882219044
P 0.4013214696367933 5.817837216999885 12.737282947962235 -0.24976236040395047 1.2836813602034278 -0.20522571144415622
P 3.9783605085338514 6.563478673999116 12.840770115498193 -0.044543333828013607 -0.022351371112006666 -0.12877575871553307
P 2.200302283491607 8.915078361026998 1.4203498327025943 3.3556776049451305 -0.4522704158066275 -1.2871441219410478
P 6.652011059128261 7.717816398696959 6.093240261500694 -1.3811032871980278 1.1060677540495853 -0.8179612466497977
P 4.751573872334813 1.6350965142599814 12.50875214502437 -2.444573775402377 -1.5250454692413542 1.096901514169285
P 4.08851989431379 6.122181603540584 8.214373616053432 -0.385447187534491 1.4368373475355385 0.5655038559121873
P 4.865809503472483 1.1859125960418846 4.072684826111746 -0.05232246355280021 0.8751636640027185 0.45716836732887717
P 0.2168232766643481 5.6976383595074225 3.633171227498495 0.8705624177852813 0.3441665836181492 0.7889838855808411
Ni 0.449933214555765 0.28278333862378424 4.65862631807662 1.1091253099289866 -0.33015278583756047 0.49436323121161957
Ni 1.8005554353761484 6.842467898404536 4.880601236064986 0.8215283951757658 0.42529594410031274 -0.1963366364846425
Ni 8.389453392224036 7.263347101666703 9.312881435513443 -1.1960172839265402 -1.198442348428265 1.0294895032732143
Ni 8.752559832629554 2.4892943392018405 10.332959546260135 0.0014675856844619886 0.19046500819521392 0.43000183421641425
Ni 3.5249995838368218 4.531154339653734 4.699208317645958 -0.4329714583676995 -0.7490685374431423 0.7747605428926075
Ni 1.4169395267549914 0.7822140799549089 7.655393052091725 -1.2957758294741166 0.6484813253466831 -0.5168716967267808
Ni 1.2479356461928877 1.2390778276290093 11.516908216448767 0.8173814628869277 0.2599017628307976 0.21426776704176645
Ni 4.089353463589191 7.674333394847186 2.00165264905139 -1.2087326746106795 -1.0767875170282295 0.5059655913372383
Ni 5.8185975054598655 8.1595165136403 8.195938910924367 -1.097873391164251 0.1699262648119138 0.29464765095241513
Ni 7.200911846928963 0.6811845677660952 5.073175890906895 0.32852322065393746 -0.058156296625757914 -0.8841604681846902
Ni 0.6835341339104952 7.538589844383781 7.30738154365251 0.3007488787541466 -0.2705127055774244 -0.26479380081577625
Ni 5.51555385339287 5.087456489811845 7.135399713953781 0.8719960649080144 -0.5352085473627556 -0.2121250096671508
Ni 0.2617141881803753 -0.0038765551357117798 9.578589428134203 0.5136395629427283 1.7264505213878394 0.5416568740912606
Ni 4.55586829465409 0.5258585514021125 10.348752477993312 -0.19948392386437258 0.315473843669147 0.47295442651854036
Ni 8.431049415076746 7.220990790354011 4.847915244357139 -0.10098907552056802 0.6417332079895723 0.48684301157517446
Ni 7.8110662363187595 6.2150558769833575 7.177979531753503 -1.161420262677961 -1.0261558109142908 -0.22001572526913724
Ni 2.4916851258049144 5.677458654961173 2.7082271873400887 -0.10321873618203514 -0.6412904640251987 0.48922488154378974
Ni 3.877031461012009 4.975327682117497 9.92442907640641 0.12304785509282033 -1.1327758594683912 -0.8880644312247867
Ni 1.319063837659811 3.3992588646782305 3.890191779451227 -0.46926515059241114 0.2607206591876671 -0.26624904520506404
Ni 0.497327581928574 0.3799866762374873 0.37767466651099 -1.4448121382108987 -0.39465867883043004 -1.09836292920616
Ni 2.345700581386581 5.5993504658255056 6.920690588814296 0.9239698868721441 0.22421973604815576 1.433553534577944
Ni 5.232689905872124 3.011044584889476 5.298193794755571 1.1735131892867532 0.04341539087115749 -0.6793178511115655
Ni 4.1827956633514685 7.354957281043483 6.293161318088446 0.7360410148352227 -0.1542276231297344 -1.794369296717
Ni 1.0244291591622463 7.8723747985194175 2.697207584721324 -0.9040757190513784 -1.5587199786756638 0.8398888999608245
P 0.4099713538869177 5.647734124206483 8.390216428714597 0.07862227778959362 -0.989495993599412 0.05133258883570514
P 8.636015855806159 1.7644737938837838 8.188659377922594 -0.4974755515883561 0.11634884580608994 -0.012587606857023483
P 1.7052079344129538 3.31074479975294 10.361180904288524 0.7054973377204108 -0.45690662902705825 -0.3036925347635027
P 4.04477124750812 6.456067318797423 4.106134770320344 -0.7137392660142289 1.3856667381989942 -1.0918570097668423
P 6.858580517694983 4.4767066937967614 10.932843629368834 0.8452918161439507 -0.18375031517919968 -1.9029829786623613
P 6.590052129690751 8.206278833980113 10.4635542034301 -1.0485519192213038 0.23338777570066901 -1.0956005359696743
P 2.1091317890073458 8.635567010811712 6.149656413261883 0.9922565870636846 -0.24705550299574872 -1.5629499575966117
P 7.001432307254116 4.467354229728799 1.7321908466607474 -0.6811847291169751 0.08882081558915025 -0.18329137326491013
Ni 2.447643355737565 1.896544143474267 0.3763858401697928 0.7306460690718966 -0.7579874371993268 0.6815174298660456
Ni 0.9787752111556595 3.503830588282403 8.016597855337096 0.42773977765511495 -0.1473229255901011 0.8371234214005453
Ni 7.86828939305976 9.262969872130963 11.884762337683298 0.7726810346557597 -0.8418043718159826 -0.2797524790081376
Ni 2.970199690394819 1.9323967824184445 8.87362340374397 -0.535409093409336 0.5655624770642647 1.4956922128902177
Ni 6.140135403318456 2.5218859818598336 2.7106536983406797 1.2207317559540847 -1.5716950507790932 1.2406863446991407
Ni 4.196251853082944 7.367891344965093 10.623993388690003 0.5288538087893214 -0.7344045076730642 0.39012196730234106
Ni 6.973869560554312 6.728836833994081 11.924768166841398 0.7894045180580275 -1.3661134986574148 -0.47912455988499414
Ni 7.68153323496219 4.159464883742164 8.977176524013805 0.5539251499356524 0.8411960488080222 -0.4943742869552131
Ni 3.099247206349232 8.57135469630004 12.708874723854525 -0.22149925179319918 1.127608970555471 -0.3541643182608094
Ni 0.30719959031149635 5.02150375593395 10.746288993513668 -1.261189349748499 0.004015034696664053 -1.0746627573757428
Ni 9.09931549109451 2.407705311333729 5.978921273435485 -0.5292759839284046 0.20536995033150438 -0.08216731482837461
Ni 3.1783996471046323 2.984828373173013 11.96012158023053 0.9000704545467273 0.7314014591806823 -1.661950284821925
Ni 1.0080142565081927 3.716949519727276 12.98143355670685 -0.30503413639306176 -0.2669440143895596 0.13147361726267034
Ni 3.0621121531352062 8.099059840918898 8.173456356753547 0.44982632514150916 1.4279485296863408 0.42710137274016763
Ni 5.3571390506589385 8.27257965173125 4.0306546144276725 1.2220504747655083 -0.7477660165816348 0.49917607921923063
Ni 3.001829522350426 0.01656512832566442 3.805837316811208 -0.29440262482114454 -0.16792286122863984 0.13805487002461386
Ni 3.8439543329518595 3.44184417853911 7.184897240729141 -0.24321504620373602 0.1570442666429231 0.7172315954382035
Ni 6.108065886470329 6.085238912467036 9.374177173571404 0.1564588264530983 -0.4423737255182059 0.9278720501400278
Ni 8.071432973505601 8.88377829274078 2.7155204604947527 -0.4111978141360338 0.38380065307000355 0.24431933501150827
Ni 4.460511633588967 0.6634267941694721 1.2800647037035422 0.4476755973470935 1.2956794131055684 -0.45343281154584486
Ni 5.45046216909616 6.005729227736463 1.0102026048586688 1.2099032978800133 -0.5042048998923897 -0.7424114371379407
Ni 8.512217078256194 7.438790533883829 0.39534083908833817 -0.6732690738143244 -0.006824993341633407 0.329300208029278
Ni 0.4070941658714945 4.967056110076977 5.907128058568626 -2.354861558347209 -0.14359122646181077 -1.1176212632151399
Ni 7.4075362661072495 6.439038689314228 2.6762923239902965 -0.07632731110782985 -0.79379621936782 0.01940745799233432
P 8.452190930325383 1.7791116367639053 3.4855369487230217 0.24504335766172636 -0.5378074184381834 1.2875873801260536
P 1.9327815066993987 3.5101510586123674 1.7579719535356548 -0.2411054560599009 0.357482584000765 -0.2122779903052473
P 4.94712372828277 1.5398955749276266 8.29977416233357 -0.17971419743661307 -0.36897490091108065 1.0366402553853826
P 8.616248355846645 2.0747172860657837 12.777288777120335 1.122612545782144 -0.37138248191130885 -0.10125878424218691
P 6.277353730192186 8.093710341393246 1.7770093933715472 0.07549864455894739 0.3797776479535395 -0.31367664255940814
P 2.0396432557854425 3.5848150494233004 5.9752608967052625 0.06049548628189581 -1.4851553179146357 0.5611031557413304
P 7.208331529490226 4.243637060353826 5.981481521924217 0.6305147135659334 -0.5406382030187593 0.12440719733419218
P 2.3746556635793623 8.68452775561412 10.354115717671855 0.18600105888658935 1.2580142944546269 0.3526903048184442
