# total energy = -340892.96696046303 ev
CRYSTAL
PRIMVEC
9.04812311735768 0.00000000000000 0.00000000000000
0.00000000000000 9.04812311735768 0.00000000000000
0.00000000000000 0.00000000000000 13.24284278055888
PRIMCOORD
 96 1
Ni 6.185197536377343 2.222119545167309 11.48108127633948 1.015610688408593 -1.507659412554423 -0.5950167777696397
Ni 4.660000637773875 0.6296751848143618 5.854753740958201 -0.18701355931150374 -1.7443754812973762 0.26854118367335045
Ni 2.628760301059914 1.6556165473826963 4.625592434611835 0.3801257753215776 -0.17054564356346755 0.6094828325962988
Ni 3.3514339064433516 4.1900049227615135 4.831107887262858 0.7552381565889638 0.650398339863738 -0.34403185781249784
Ni 5.186040428305766 4.4374168053908445 2.6790932011729356 -0.5031237510130689 -0.3294814708021487 0.46326676691713115
Ni 7.412539265134596 6.327931680923777 2.5845792199565367 -0.3636779141781995 -1.0864947170136643 0.4076661468336914
Ni 5.155584445387015 4.438475435813154 11.66003234388915 -1.294604949094467 -0.01754803618609236 -0.0013832535007718113
Ni 5.612605151633634 7.864384444872145 12.6456706509866 -1.0741305390213565 0.035844520502435036 0.3250622586885305
Ni 1.9571633515220952 6.4045783331236406 0.4199595933425172 -0.35727561019628146 -0.8179327074047074 -0.853010267834131
Ni 2.7807959163254448 1.5558428921108398 0.06566675461462745 -0.5749210354610292 0.5479576194983079 1.547517425091625
Ni 0.6535414195573178 9.1278372335904 4.561020502912587 -0.5801398606578073 0.04719954050393806 0.140356521574597
Ni 8.600657379526789 2.3668714212024184 1.3692307785904922 -0.00012958359932880908 -0.1577189241124445 0.7071801247394724
Ni 7.168619958086558 0.7052713499028566 4.963589603334771 -0.8557119830360101 -0.056782041986050594 -0.45731337754717366
Ni 0.6474140304804972 7.361444513042442 2.383632164743326 0.45928541367187997 0.36491692879162313 -0.02461137079077697
Ni 7.505870656639918 3.915819643383345 3.7958487673535455 0.7355985279811654 -0.331923504584738 -0.40245297806386815
Ni 7.43690586109425 3.948582897735335 12.589123499813391 1.1331041893420872 0.0672916832681228 0.1933346164335251
Ni 8.22402924851282 8.669558838209584 6.8889270860754 -1.236058359008826 1.1855621500314872 0.7207210966487007
Ni 6.921678577867143 0.652721659589273 0.5284330191361737 0.013134994720061249 0.22544666647672143 -0.6543115588752151
Ni 2.0613796353183447 6.426339069582226 9.333026048991462 -0.1240917229763024 0.6496635185802424 0.0530076625452829
Ni -0.054510418625673185 4.811475269396813 1.6278098549566993 0.36382523838934117 -0.2909426912970022 -1.2194642020955708
Ni 6.534807971314248 1.9418629750765788 6.97452866587321 -0.0936963985138967 1.0301672460665292 0.03952094091275774
Ni 3.271448496757743 4.020198793398412 0.16011830378047978 -0.600175953373076 -0.5654447205394778 0.8045400881478854
Ni 6.157365509206197 5.714052709709997 4.7977094546574826 -0.2514945126037088 0.474119650471235 0.619590610454262
Ni 5.14235608916978 2.695073996488176 9.322233447557865 1.1286235278629144 -0.1391031087834701 -0.44481267397700164
P 0.2357171833059548 5.408597116318994 12.474929850489955 -0.2600388026292941 1.1268823768020915 0.799024814756611
P 4.0117116537734 5.868323211422625 12.800439704291273 -0.07047907985716895 2.2856500323485536 -0.22331676461791217
P 2.123467857180635 8.426960557158617 1.129809293618781 0.8451257228797316 0.35728358061608145 0.44702896490203015
P 6.447475485535346 7.7969940227750385 5.922133305307385 -0.032434980600253814 -0.3911794620325779 -0.6569731648677781
P 4.82945389032954 0.9147471661081097 12.643008693121272 -0.6454268547910755 -0.5560429676096037 -2.046908448535139
P 4.0921585177456565 6.108958049724522 8.303527869166633 0.3065063500632141 0.7032512219987115 -0.7143373046095439
P 4.648663339319567 0.8901199841983484 3.6756969288583945 -0.10735152740348608 0.35562059109136174 -0.288291112606768
P 0.38014694615273803 5.644083572481624 3.596001059117349 -0.7284763151140873 -1.0658613570340287 -0.018545624212671283
Ni 1.4772237490386388 0.9753876882475839 2.410038207687498 -0.18496490431259113 1.1929841535271712 0.039615043288460806
Ni 1.89158255407851 6.592797393336315 4.762682359863938 0.6711340297491926 0.24209635921826048 0.4167704231278048
Ni 6.158722727696337 5.700236225480367 9.055627781040968 -1.3207006177402545 0.9812507228714841 -0.010984781146277855
Ni 8.473775546945195 2.48738337500362 10.077657639920718 0.4359647366680685 0.04475622116976808 0.3117670842415211
Ni 2.4945132961384915 5.320766983760373 7.048516074644724 -1.2692649276677819 -0.7320504056185909 0.3190690172195731
Ni 0.41149597883800154 0.07865895481457835 9.230367852021894 -0.3775947813696078 0.019479448880850323 -0.33516000924416467
Ni 1.3986498465827761 1.2665562949990425 11.393493633484432 -0.0030231030970399547 -0.2540167648049303 -1.3220015959398652
Ni 4.194284685067089 6.737232585057059 1.6497008843903374 0.6323581945325755 0.7106220605414859 -0.6486918986955924
Ni 5.548173465845034 7.94781718952271 7.92268964639625 0.4597746946034727 -0.20057561426665457 0.2325747928810704
Ni 5.332674313980538 2.738369266323655 4.8921845289438295 0.22024763877428524 0.6244821342186084 -0.3372035220367547
Ni 1.0337661795701574 7.5011203919244265 6.998603912263648 0.9236454136531899 -0.8850570118570307 0.11131282604407926
Ni 5.032991423234265 4.4978763650649665 6.837703850632847 0.4207422632913593 0.26588214878394856 0.5323014010182897
Ni 8.213234837454571 7.122845502475755 9.595287711527584 -1.0138232574908668 0.7927441239542218 -0.6786419080904635
Ni 4.459819958601429 0.16279292901838316 10.159485247503612 -0.3410347228573869 0.27095442110053336 0.5230973659215185
Ni 8.386985948562348 7.161734336279912 4.754140931499321 -0.9913728989071506 0.7728448139271334 0.3452186790317474
Ni 7.66884545293598 6.158985123271098 7.063652680059098 -1.8848675000085733 0.8755516434697566 0.256029681469901
Ni 2.4319093312499476 5.323888586287695 2.5569281552507426 -0.06278222543354348 -0.6452977854123789 0.2994697549314068
Ni 2.450087010894562 5.101666678835371 11.334999326184034 -1.5062949281067284 -0.32687565774818544 1.1422370048812909
Ni 1.1591822161824 3.5047453070896135 3.781507491974395 -0.7377536266509551 -0.29380972843215203 -0.26504859713905965
Ni 3.6030350701455833 2.508175962272572 2.4981434031934535 0.37094282327072886 0.22842966036444529 0.21523064517566803
Ni 1.2140862281702138 3.3988008317492526 8.353373075435531 -1.0582007551649775 0.36808272811411447 -1.8296980539252812
Ni 3.616317715102424 2.552294611325403 7.1203192664594415 -0.30521308517308726 0.7120353959492446 -0.36564197988310576
Ni 3.934965472217592 6.809789485539966 6.031876182795486 1.3638306161605092 1.2690420130236981 -0.5422441140532984
Ni 0.7277803661556722 7.384625804854041 11.469175755743969 0.400623123943981 -0.06386954496045129 0.284875916277632
P 0.3586875121989645 5.742291902428184 8.271692047449573 0.09490944498539139 -0.3733018104212087 -0.7760275825304894
P 8.368328718384552 1.6001877442453614 7.991525958591519 1.7781145254210344 0.7063064638852674 -0.42509231272993886
P 1.8378728943620197 3.261142684355943 10.307500781601345 -0.13053182217469134 -0.704250352687187 2.2228858046371394
P 4.210046515799253 6.033189065481616 3.794670701704104 -1.0327375778968664 0.6848202689870334 0.5461010259055433
P 6.718955376056501 4.107377461081764 10.32850419014243 1.2996831349483229 -0.5586451811191411 -0.3203975062230095
P 6.073751802090279 7.78860641250597 10.3687221932546 1.1231277948556657 -0.6339401943077146 -1.0053527581260104
P 2.4283805631755824 8.726281522974187 5.621665942273811 1.1998101753100692 -1.1894653417406353 0.9314088596486927
P 6.811038126550895 3.79501814963758 1.4714917629486126 1.1536789281696456 -0.24596175571093767 0.703458195803195
Ni 5.169717613931011 2.641997705400417 0.48699532900753295 0.4692803201010628 1.2141314770287477 0.765024032331134
Ni 1.3851771910373156 1.089357848926309 7.012760605928139 -0.37890450131996684 0.5859942625560552 -0.21371677963430288
Ni 6.8934393851489535 0.6757292274341334 9.228950915918187 -0.9929317587538383 -0.7014380800493726 0.46422218885186506
Ni 2.5363065775115485 1.5219486223503997 9.187103345805525 0.9094310698260207 -0.3938467244520959 0.12042173032388294
Ni 6.379306924837226 1.874698756061163 2.712041942051911 0.21593744143470556 0.2099935651464448 -0.13076373567983932
Ni 4.118479508331113 6.644570754673538 10.636532164978414 0.8491960362943631 0.7904417010732903 0.05606650397626473
Ni 8.288053768754379 7.280228558592439 0.37710677673482346 -0.4504076515662759 -0.6865166828528498 -0.3840999294779772
Ni 7.845790551557221 4.103242468748469 8.382362357572603 -0.5369481557616818 -0.963616811839805 -1.6637413152840768
Ni 3.158971276418172 8.362963181286862 12.487762803720395 -0.2045289424874478 -0.5621074286361287 -1.1855729486647646
Ni -0.15682026284943854 5.024241888034493 10.347678972971135 0.6959109795835564 -1.0174212592547702 0.8123503282209236
Ni 8.756520350934515 2.75178763312951 5.752187834845962 0.04800892377911086 -1.0906858722768764 0.7807974931153069
Ni 3.8157654962901932 2.5563391224260212 11.34421664935674 -1.5200654995282594 -0.5060347540122768 -0.33277891060649784
Ni 0.7505653501681496 3.2354550623992187 12.644915132693756 1.27952645749479 0.8167453719648256 -0.09614254606154408
Ni 3.145987219529162 8.374101421029282 8.05535684899515 -0.23672712448654717 0.11633804717281254 -0.3442848543635683
Ni 5.7523534155017595 7.798885080537968 3.659183199082692 -1.3151992283060512 1.187279132722594 0.7687816996013535
Ni 2.9211142119594293 8.048531849614397 3.2061056649560955 0.7508186873650295 1.0763596854621915 0.6167762809339185
Ni 3.5246602264016076 4.255820971410056 9.327847808045412 0.08387966953379103 0.5338232369794549 -0.6189743170265016
Ni 6.838182496353704 6.131569309770261 11.62123037206836 1.4658931272509144 0.10316525723628038 -1.1957072088852891
Ni 0.47299245343859087 0.3403469663355336 0.07944071266489923 -0.5748457021384036 -0.42082968079884303 0.6600309778574955
Ni 4.513430088961976 0.28094151302208725 1.410177155625702 -0.17746293950859116 -0.7870002794919092 1.473730878127778
Ni 5.976412091977409 5.572920082981928 0.5240166301692567 0.44825923776470544 0.4819018655198152 0.5547633295662316
Ni 7.678364078613498 8.68350199616496 11.49649565913817 0.6930452279999871 0.8513357083451853 0.1988267498963479
Ni 0.18122757536379713 5.184692257938893 5.764159406741327 1.1061939952148048 -1.6671395423323483 0.02328802399366312
Ni 7.907978302775454 8.859297983131215 2.7481810511950435 0.16810669510467177 0.4990462385095856 -0.48649385576587184
P 8.584642201343131 1.765650774440014 3.6426160853797116 -0.07629080144293958 0.3645325488690109 -0.413255725106327
P 1.8197585515802788 3.329401726286739 1.5931799727746028 -1.0746067073268266 -0.8538235077640457 -0.488749484569268
P 4.793098531040312 1.0319203624235662 8.06309027995197 -0.19211874174855298 -1.0500441874961142 0.6217889036571614
P 8.240804469050957 1.747219747343907 12.111705609284616 0.1804248503503925 -0.8287521666177146 1.1522403959509058
P 6.316449612497189 7.839927367679814 1.5657143945957945 0.17495508548507288 -0.3700845890354917 -1.227786605918337
P 1.8448399492780738 3.4276191043565674 6.135223846758046 -0.753856702860405 -0.8970735767019326 -0.6305188273309915
P 7.056522758924227 4.150645586547441 6.05281354003672 -0.31447497009098746 -0.4699912301251583 0.12327976859796833
P 2.186044677699376 8.517224634876223 10.21074829468854 1.7363513254413192 -0.09814980629956 0.4478990262118092
