# total energy = -340892.4518435242 ev
CRYSTAL
PRIMVEC
9.02623299334601 0.00000000000000 0.00000000000000
0.00000000000000 9.02623299334601 0.00000000000000
0.00000000000000 0.00000000000000 13.21080437138000
PRIMCOORD
 96 1
Ni 6.381338982021311 1.9029645550330845 11.395719093640395 0.21326863635329077 -0.3877349551274032 0.7690976881798756
Ni 4.601212429082111 0.4857124181258303 6.0436658079502825 -0.13829218284640055 -0.5479573623879918 -1.448931559695911
Ni 2.635930762839079 1.7169609758466142 4.735663582288788 0.01270330649928135 -1.2932258093587534 0.5652899401291683
Ni 3.179824472308635 3.9936386472507097 4.420625492195335 1.0973486290090326 0.617891111264652 1.8485159579627324
Ni 5.117278262847688 4.656344658988015 2.393560165100482 0.5189110957543128 -0.8726480966697165 0.6188403625517988
Ni 7.2002168735608345 6.045229151470208 2.527107792404477 0.44007927305707434 0.8943350947248468 -0.5155802316088669
Ni 4.9775612054289775 4.5014093730785785 11.389892660371851 0.30938418583164135 -0.20016423776084882 -0.3622954320083761
Ni 5.7070162086780964 7.542446489946286 12.354558653507347 -0.5260225099881135 0.9290233901356516 0.24029967232915395
Ni 1.7871670145185397 6.574626731072559 0.6569824775226139 0.3041918429974245 0.1529119896421044 -1.1782959553873773
Ni 2.5239061876324365 1.4748322811468975 0.36518513162721644 0.2791976349459321 -0.13685982127524815 0.7047524891345862
Ni 0.33699801185803563 0.1576783580555408 4.746140330692812 -0.18853179572824305 -0.11305243444300529 0.4353175900023729
Ni 8.389793119718165 2.2897296040242554 1.3131119760461922 1.4854929037597124 0.06915341906720994 -0.7714384204979101
Ni 6.8113667647942435 0.89831144799678 4.9007723351803705 -0.31313799644711876 -1.3473513875585634 0.18928590028544823
Ni 0.901388490756263 7.6676674174977935 2.9380830029957816 0.5330434213906369 -0.6639485677443469 -0.8850176739786629
Ni 7.672983868613475 4.013568569259917 3.838187963448734 0.6444377514049289 -0.7615656414688884 0.09508916509636527
Ni 7.673850386961701 3.8823993542971476 12.462121561843905 0.6094704913011245 -0.8724241535843684 0.1872837822537549
Ni 7.928372099287613 8.671176900839095 7.18902885801264 -0.6040202668198307 1.190316376887021 -0.837284629568758
Ni 6.726745832350261 0.6427426926667602 0.35508567975398203 -0.23943063946063928 0.0731100897221128 -0.6188979552626116
Ni 1.8003453143978159 6.448458049077679 9.235699162736116 1.7907399274945288 0.5341718785681252 -0.3303913842109278
Ni 0.09581436373185326 4.820622095839267 1.3161366666554701 0.43749171483555627 -0.1259298046263057 0.7275034096778566
Ni 6.20358537960858 2.1977432656203484 7.286630415837711 0.8167818816297159 -0.2099488279514384 -0.4743847312071636
Ni 3.5439065982884213 4.101520181604895 0.39674986770792137 -0.47008121873580333 0.1336233166158215 -0.40775793521654935
Ni 6.087291396290364 5.7821234917571775 4.670692758637396 -0.7154284807911938 -0.8018026346120642 0.36560367044600256
Ni 5.122531530333811 2.6042486857320517 9.515424824892785 -0.3619807289814347 0.7036947372940332 -0.4640805210676782
P 0.15760614819318863 5.470790670225672 12.378166765380119 0.6086397678697131 0.5310011941496274 0.43182551768871436
P 3.8874630708945954 6.088239150733736 12.780607672864674 -0.25714374046968613 0.06487227519335279 -0.9627827459742839
P 2.387610072442661 8.559558506108184 1.5688224432310782 0.7651821551755531 -0.7057994423418619 -0.4207584612412754
P 6.506776539159874 7.758588660432006 5.525736057112739 -1.8659706631040702 1.0735589827886027 2.0771932155616097
P 4.599813362999037 1.2397621004921082 12.867045585970093 0.2966723946919278 -0.5412503826814614 -1.0526795682364323
P 3.8771280343454366 6.27990217788206 8.081550880295334 0.8601329949218413 0.3335525555477287 1.1922503606849404
P 4.6972064148465655 1.219299630748054 3.8990238698571824 0.129361456015674 -0.0285029925356993 -0.9787552101431403
P 0.35157898831350337 5.721629679571623 3.639972793915228 0.7845235358166424 -2.8775388060121734 -1.8344034298207503
Ni 1.1644472140587647 1.0476928928680531 2.5258657827720192 0.5365912866428952 1.1817044668482939 0.2032035388078049
Ni 1.8907069308987985 6.542764129309652 4.961462919240834 1.0868006782898574 -0.0993908777955127 -0.5762680364072269
Ni 5.832137847668869 5.865859853387346 9.051990051925886 0.08684055193432787 -0.4459077068133933 0.9075755046745209
Ni 8.597351342816767 2.173282174748541 10.087029971663275 0.3348676748147265 1.5312580258099693 0.9916847737206146
Ni 2.6201890128462995 5.055177781224797 6.8931597785038585 -0.8698468797754955 1.0606337900865024 -0.2882273492483681
Ni 0.5848728063544286 0.10412481626531195 9.200004022528864 0.649356785973101 0.05168534418943357 -0.2174986152742383
Ni 1.357716910644425 1.092318587801712 11.369112467233448 0.3525537792405799 -0.12408503810808307 0.17589610924210353
Ni 4.1256834067945 6.69319532505487 1.7407875225530016 0.560390445945022 1.8581820202975867 -0.3795585899641979
Ni 5.765722826770434 8.039340605257355 7.921990552702238 -1.2232732914290159 -0.5273216884155112 -0.6941081220468627
Ni 5.437429713818956 2.8724180620425304 5.039366529239504 -0.7872782157436442 1.1856328553684226 -0.09854421352450127
Ni 0.9060622740970091 7.653053946604267 6.992584635353322 -0.07504124530655464 -1.963478207833941 0.3166241552235063
Ni 5.066325178725418 4.5494560102411725 7.244606983818569 0.923843645706925 -0.16669747346197097 -1.2067554962796507
Ni 8.39514567576502 7.253173781363378 9.23258150192906 -1.911435994525721 -0.6291126910120842 0.41156342500556864
Ni 4.626224120154354 0.311572016700547 10.433285287874861 -0.4421268996147224 -0.37440841322182616 0.3895452688632646
Ni 8.197660728464552 7.060996258945796 4.583620301366556 0.3218622636939941 1.4040143874682465 1.0029135525568986
Ni 7.228559244534072 6.150475025848538 7.032282909804723 0.27760200832403803 0.18193177391322213 -0.6591349484057875
Ni 2.464342077424666 5.188928498766658 2.4032299682927207 -1.3362272526209438 -0.6309607999644167 1.0107582454122979
Ni 2.3950657407305256 5.004847507165315 11.296294236790931 0.0028940337183434033 0.45615612401427896 0.6554094199250841
Ni 1.156594391527963 3.328369185399902 3.658322222562201 -2.209844655182465 0.3553105160501106 0.009892576523363608
Ni 3.7424837197569683 2.785116338458722 2.477911213183924 -0.19274969046433255 -1.4757851895536456 -0.02617742972631621
Ni 1.088626858588956 3.2949540715964214 8.107906577430606 -0.8001008214296091 0.5386895639328205 0.10988123580387528
Ni 3.5265040214615415 2.755835239274905 7.273723805565535 0.4677356013217622 -0.35807136662469946 -1.1544895969963989
Ni 4.209275348699963 6.917100055743451 5.983596228706047 0.32776757343483554 0.29557659052458773 -0.8345782863811885
Ni 1.0209571913321516 7.220995261452679 11.421572029609042 -0.06381863711785782 -0.03315668925762676 0.48337742162407726
P 0.22722909222661997 5.764747993628679 8.025008752827002 -0.517531956018599 -1.3485837173037678 -1.0652224378984492
P 8.439265901662214 1.709947592965657 8.04625199170774 -1.106706930295481 -0.8915793863565806 -0.8945960616957174
P 1.797520103533286 3.1481243427360193 10.156095997133317 -0.006386620252634163 -0.666370032701646 1.0165080034118816
P 4.022811431640998 5.799571199748027 3.880594107738342 0.06571328303740942 2.1747866351370675 0.42611098380244034
P 6.955642069773937 3.779419064350118 10.378606174855218 -1.1529829305438852 0.7656493246199588 -0.40207939677453336
P 6.291473808324 7.672036114170102 10.220551422892166 0.2050087103373437 0.9246694840423302 -0.41644774968106346
P 2.2526227610080194 8.615882198742899 5.6221217813804545 1.4788527727353757 -0.08016622523794581 -0.2076723732124359
P 7.106407236132534 3.99659925160715 1.6841000727366875 -1.024708536944803 0.4915363032857857 -0.553900210234988
Ni 5.708306959967642 2.971309468533866 0.3522279744513938 -0.7066561339152023 0.08048169959583559 0.1695621966042757
Ni 1.1910655745683438 0.95719588287516 6.92054536880093 0.38115987301304677 1.6894338349541744 0.12840449141904337
Ni 6.7898843307444645 0.6692030941024442 9.284474216885188 0.36602815957793094 -0.13693978258356415 -0.11053738133063544
Ni 2.6307136002841323 1.3071609807650917 8.841105662042686 -0.13212230659026278 0.8228373437951765 2.8885611252646064
Ni 6.398263168510108 1.8683489522679992 2.4748856199513667 -0.9349922061245769 0.7405676990609826 1.5584626112492193
Ni 4.017359587033408 6.751098608428539 10.526686036957594 0.23508316112522093 0.22290204567799676 -0.11480412702678938
Ni 7.922829992352082 7.043079186849656 0.29835400139697704 1.225554888374341 -0.28982606119405574 -0.6773656124812011
Ni 7.4898506314555044 4.087240681324747 8.283821536223195 0.9012310505137319 -0.3812172086135434 -0.0004599703555540466
Ni 3.3384424611980337 8.387202590906279 12.494210722049942 -0.49896550587032135 -0.22204998209034663 0.3505033244694544
Ni 0.1307711580965527 4.916489714344605 10.218054766901341 -0.3157831473794497 -1.2049714077960345 -0.33936659112634454
Ni 8.415608145509076 2.4436990830247316 5.922667352099821 0.9422571152171063 0.5260492494609907 -0.14623869138698686
Ni 3.4305461406282634 2.655093455060794 11.537404772431483 0.3646775590873074 -0.482341267050079 -0.3889986523311752
Ni 1.1526860327281505 3.386209285144013 12.625948589678734 -0.6755298448240431 -0.29938439430645214 0.024210792918248628
Ni 3.144360403660911 8.383646255185432 7.76577263911277 -0.199030895487354 -1.6168194539215577 -0.1776503729290489
Ni 5.6339849591416415 8.07586074314198 3.3889677018858673 1.3992714734666225 -1.0177776141529247 2.1779100112573975
Ni 3.326202889529336 8.476065852763453 3.681943873784164 -1.2659919133434647 -0.6037711269235021 0.6668330883809934
Ni 3.44969078038439 4.295502950581283 9.151916767318697 0.10093122569943906 0.5898411471059712 0.47714069668574605
Ni 7.085818399129363 5.918500843042098 11.213502019111019 0.7520800705759564 -0.24627851562040814 0.2462934280187436
Ni 0.6497822516228202 8.693092594062987 0.2797085123143599 -0.7345824280118252 1.113121061351941 -0.3691687620894416
Ni 4.58104782502026 0.2555642422136228 1.8170537739228352 -1.099338919966184 1.1715995172038078 -2.5209550796765936
Ni 5.953098393341596 5.43650001184117 0.25205574552658533 0.04013723434051797 0.20089288839675723 0.4117104921063942
Ni 8.18920314833655 8.644721012519808 11.266953564470676 -1.1664971629802363 0.3639751337036441 0.4636339204485629
Ni 0.22924103951640812 4.994792283832771 5.868239168351851 -0.5095509946956515 -0.48308765829780026 0.1825367544870727
Ni 7.893205896322092 8.887400307419961 2.4531269831780906 0.4163487622093539 -0.3366175676262977 0.09199252844891254
P 8.359798948143618 1.7026453706352909 3.643975928159378 0.21597677931307319 1.016431127427359 -0.4350874762694378
P 1.7540226876988803 3.183579385150949 1.561609580605373 0.09131041478022339 -0.21890295182093267 -0.3856413058231681
P 4.630267872446077 0.9122903747248863 8.101393247846438 0.8122582827277495 0.9447122616258181 1.440239945459184
P 8.373266087472304 1.4984268536704783 12.39343824864433 0.9997284699606976 0.20996065502598035 0.03720643384696818
P 6.279180079258538 7.847524132151532 1.340341412515927 -0.6864683461134178 -1.4819015868640286 0.5722324328852725
P 1.7594835585392652 3.352090125182599 6.030692403555431 -0.16025377471915625 -2.013091242875378 -1.6267261715123082
P 7.033854376934162 4.112631474174339 5.979566918386794 -1.1020424349402762 0.7748178784931042 0.6470199103098083
P 2.513607256014454 8.389269598216112 10.323728484714106 -0.27186459161962856 1.111501266360331 -0.5815531960655662
