# total energy = -381168.2799342284 ev
CRYSTAL
PRIMVEC
9.24009397682704 0.00000000000000 0.00000000000000
0.00000000000000 9.24009397682704 0.00000000000000
0.00000000000000 0.00000000000000 13.52381153809629
PRIMCOORD
 96 1
Ni 4.3077317956819146 5.72758311097165 7.429251747430885 1.552020198057985 1.277808960583051 -1.3725831655421585
Ni 3.1356905598181632 7.108099346351008 0.5114946402440328 0.7026207875035642 -0.37339642701754405 -0.14762168777744253
Ni 6.6531356008431 5.294749390454429 5.566590182194934 -0.3283447860945442 -0.48960026260533746 1.8264695196856544
Ni 8.45242213376021 2.681484502013486 12.267300254716343 0.3263992323323992 0.29371536894613287 -0.025876867766761888
Ni 4.799508075454079 3.7952022649163966 5.956738364738468 1.2831383432157644 -0.9221865697194763 -1.6603299756096825
Ni 5.799360160711798 4.011753106537164 3.6976398090221734 0.12655689668734332 0.14524830244925951 -1.0883168578240676
Ni 0.2015846614631818 0.6366581807519017 0.12672234435585597 -1.0380281368718445 1.2627356111896963 -0.5135637153994704
Ni 3.4641851395442202 3.67989513261628 7.5941744881610616 -2.946828750657248 -1.515315386437784 1.8069450764994819
Ni 6.755959366227803 9.603506836563888 2.026434838279763 -0.2722602843961504 -2.161569622226161 -0.6611414373128549
Ni 2.991286371695218 6.851732939934888 3.0504035687256628 2.528624166186077 3.4870910583938266 0.09942173103344813
Ni 0.8996164701861236 3.5870968691584646 10.908684889997915 -0.5392675479234778 -0.0035077560429423458 0.3955359392290608
Ni 3.193958592215353 8.238661800509878 7.1736106883892 -0.16371936467025353 -1.3937867962029673 -1.2982823979460545
Ni 2.1464830627814337 5.948310475054124 7.953434884675841 -0.8406309203331717 -0.23519551833336916 -1.6049090756372166
Ni 1.821111634807716 5.305218416890525 12.991703291549273 -0.9406743441110187 0.8627485781678175 -1.2424879166842537
Ni 3.6813827877409144 0.38779288259776157 11.05192944633116 1.6330575130469744 0.5812415783624183 2.1741047785786947
Ni 0.9865278697935979 2.981990837189735 7.099555031482995 -1.6763248083760423 0.23848601615918283 0.8389951845019615
Ni 8.559062057942889 4.0737818571686795 4.845081142784587 -0.39176695910493176 -1.4731400386213145 1.3219902830859556
Ni 0.6679691630831924 7.562351604625393 7.721704416727433 -0.35428850254349953 0.7766515892677335 0.4658952056789138
Ni 0.8060133945459748 2.825759328821246 3.300297289335529 -0.439478663358598 -1.0047295227197148 1.0726554971377267
Ni 1.9938644311442006 2.3159371455806843 9.260862900984705 -0.08445945329666099 -0.2087964595145501 -0.6994225922812406
Ni 5.861961797167707 8.67463715296732 11.275504607366507 0.759809320899414 0.14744710987279122 -0.08226810207229703
Ni 2.93903364045416 5.112146653975953 9.815933824258414 -0.5621022864298062 -1.158172445164625 1.500003695781378
Ni 2.95603541330713 2.8470207849814004 11.334576527936637 -0.2948255712911761 -0.5185621970553264 0.3837227486442166
Ni 5.587263044370994 8.100466955515843 7.570954132085237 -0.7058341522345393 0.35388921022255176 -0.3930188292341618
P 2.362553419517225 6.35967945734447 5.3333046064361165 0.47825655545774415 1.068643033544224 0.06679931701273657
Ni 8.382151219332581 8.700001210837646 3.629818443498523 -1.8391422300573166 -1.1957336912478502 1.0170402217662677
P 2.8051908797067284 2.5209655900559866 5.609325616675905 -0.20921503510920747 -0.20281710200266362 2.3350758910798493
Ni 1.485114098800892 7.840506152556351 12.10667877771609 0.8685955238668976 -0.056826522070740834 1.0585758791162092
P 6.1919532721123405 5.25307656677677 8.264388070062724 0.5900679184047967 -0.43940410136692065 -0.5926009692392956
P 8.622818706141528 2.189236977450289 8.821027961287758 1.0473982652328349 0.025274201185756476 1.0077217725788195
P 0.95435386268814 6.056890818964588 1.4894855872447725 0.6993472589586149 0.6501633410347964 -1.3998317168454666
Ni 0.38727358931823064 4.548297641457501 8.816118699376464 0.17012115443153927 -0.6292358468535099 1.5426613825509046
Ni 8.100300633824888 6.895623386158589 1.6527987036102816 -0.6419244980647718 1.4399321844107782 -0.9198928885892932
Ni 8.722861203249739 0.04548528643806048 6.8031808663175335 0.324713359989544 0.08669811281919262 2.620598182692229
Ni 5.203337141087889 8.680476892338557 13.555862771224168 -0.7588592982813189 -0.31660024396410635 0.3502292448724613
Ni 5.075417280557172 1.5985732123126426 4.447345919105414 1.8281265956731032 0.3192939887461856 -0.44950339458445165
Ni 6.219211549240744 7.2824783992212545 4.017451472471091 2.453895309913619 0.839166162862187 0.6730196768076796
Ni 0.22347629203016933 0.22831255719932403 9.34430464531702 0.023231973944747086 1.468364471609542 -1.7106948012154797
Ni 6.641668644261287 1.4520807629588437 13.118029235875024 -0.8009492854728335 -0.9324280449418264 -0.47213887259578036
Ni 8.745453232937518 4.946832133262642 13.489352575030864 -2.0846100768509714 1.3732130858166736 -1.16673267602981
Ni 7.140735358153557 8.5825226564612 9.205549850630112 1.0452812188898322 -1.2823168757557335 0.9927037019034323
Ni 7.03719086544139 1.3986822600689985 10.251928580913136 0.1326550391652812 1.366471653327782 0.12113572567177201
Ni 4.455822781287651 8.926614514761068 3.1235675565664796 0.049933137385017236 0.24771499095661853 -1.6496246733770366
Ni 9.121589737027659 1.525881393272253 5.282292819811446 0.17006793259610065 1.0242051149458231 -1.0844476046766485
Ni 2.358062733861495 1.9667632356128084 1.607792054038408 0.11058803206291277 -1.1511034541329854 -0.5526249430669902
Ni 1.147056021845039 0.2829751049404117 3.391460980175034 1.558568026478832 1.1823228171585831 -0.9673906770599403
Ni 7.40060376017363 2.2861932831819285 3.3512277631335103 0.38375874408847455 -0.3568210391573661 1.160630419786814
Ni 7.442304304133116 3.172179690794456 7.430184996919009 -0.0981156106275149 1.667229273832677 -0.7930048338147762
Ni 2.749722595773913 9.132141924309229 9.197206045800637 -2.7319243784727467 -0.9275372925084283 -1.2201799972156726
Ni 3.077089884039067 0.6065123742666759 4.731115672124823 -1.842498033903427 -0.588578992564096 0.9243866626945886
Ni 7.4362150822254485 3.8649095336135746 10.36032135091658 0.08667240178757976 -0.007117841991703871 -0.6514710041026264
Ni 3.114780227227798 4.19092776816322 0.9257816442012082 1.932610314610491 -0.5755951787099184 0.5321111393843545
Ni 7.4774074210181345 7.317174951972832 6.695030186775365 0.8454864486532601 -0.7837681457078567 0.05625033785229667
Ni 8.960479459057881 5.485834533171508 11.209643989777312 0.20066200333287376 -0.07900177261619942 0.40429543058924566
Ni 4.453226314889996 1.2587225571320746 6.741768429951938 -1.1202139636429804 0.25260831449317783 0.3456395686192499
Ni 5.183664981085729 5.067045755445872 10.18487691521484 1.0103093308003375 -0.1769996267189274 1.06305602637475
P 3.409640865005588 0.04887085685834759 1.0583252477404181 -0.2908956401091506 0.06392945166410925 0.9764227053552215
Ni 6.278218789153281 3.898672836877028 12.797515325286527 0.6716513357052433 0.8047365204294075 0.6740715151109616
P 6.970967112160284 4.939985223651745 1.3296458221919976 -1.0097331465818933 0.48599197642878883 -0.07378680407416326
Ni 1.3016427934918826 8.420266606842635 1.2436454958471879 0.865806905378167 -1.390772949077308 1.50544209318813
P 2.379915556033927 7.180449281915549 10.156787953641064 -0.08395474574610057 0.03584709160559633 0.2463129684027693
P 8.72761061153584 1.0060983887623973 2.1269578202729496 1.5077388596421066 0.8350464842668587 0.29235217005001907
P 8.23559408932119 6.393969445962606 4.78879511053792 0.9300325481264563 0.6166538964234413 -0.5947367846353757
Ni 5.283060671618013 6.903015461312053 2.080151200401207 -0.44251153664765086 -0.7174797068932676 -0.8786577931989061
Ni 3.3584969450375497 3.046708455158324 3.6877002399689447 0.2420765617239186 0.15432532504986327 -1.4496149589161809
Ni 0.8095449584505429 3.794536978152585 1.2501856343392164 1.3444283003744977 -1.4352710314896828 -0.581000923106522
Ni 6.943560993528811 0.03319780951421275 5.5849687290452374 -0.8807555562681992 1.7616990601774885 -1.3023614531114345
Ni 1.5814420781444867 4.352158167354241 5.530143555650774 0.7968026102943115 1.1198501525456586 -1.034485928046541
Ni 7.7970037902782074 6.406656094944742 9.101971169570362 -0.06574439338566096 -1.5077100632867002 -0.8020869986217025
Ni 0.834421139360742 6.917263686170358 3.534204723416632 -2.379431020156457 -0.2576170805616789 -0.48065436626595925
Ni 8.945334945087218 5.416441427668352 6.916117914521571 -0.1708181804985639 0.4263213000410335 -1.1530088986858142
Ni 6.376542628788312 1.0233773644336226 8.01227672690682 0.28068990322074244 0.91978284537399 -0.8401069295089016
Ni 3.956515824952894 4.668307981574011 12.159556139307616 0.9987054280128219 0.175975042109155 1.0928767092806082
Ni 5.409354275614968 3.17426795202531 8.931111668482558 -0.04515088550502547 -0.9938725254005528 -0.687082582658649
Ni 2.0291338697201717 4.932870351316534 3.112748330569989 -1.5037847600903649 -2.595988868783981 0.2402371945223346
Ni 8.503492132976714 0.3470736366148979 11.590163070424065 -2.418616689216983 -2.2535089288396355 0.01647562905752001
Ni 1.0560872969877066 8.237682350552042 5.295154106569082 0.7868462704125481 0.5821273234014812 2.561926122772317
Ni 5.205231360345965 2.6299894584756585 11.255881419862238 0.37750762097244017 -0.6567674766148754 -0.5126656290652332
Ni 6.782302874055965 6.373595038820867 11.387658095604277 0.17042840125931294 0.4563736393417237 -0.3087529800055457
Ni 4.019782748172615 1.7688311832848325 13.199902936265413 0.1968716830525061 -0.06683968333236874 0.5897434451858424
Ni 5.7984638715994405 6.2625660700158186 13.442979315564994 -0.027514917590817128 -0.03663564894516271 -0.08722287497441109
Ni 1.3070852088236213 0.9496691350596314 11.279291197863868 1.919522113967965 0.5828233210272413 0.30780681404219246
Ni 0.14868974369316654 7.475393080538815 10.333112046286068 0.2913540678028079 0.10166219032819265 -0.6154791593890497
Ni 1.7103875891027474 0.9131402716793884 7.215237311597151 0.5348516782439692 -1.4143756760979125 -1.0337814457803487
Ni 4.87059211814859 8.455748567579269 5.428417513426361 -1.3361958851623763 -0.7886329299993257 -0.33432671470959197
Ni 5.257844455250754 1.9527644932909334 1.9266834041307193 -1.4290916421518483 1.1125873003356581 -0.28180164822768244
Ni 4.61174936655606 5.925644524614811 4.817884774285593 -2.770986891691847 0.19215602274439164 -0.010550778932652799
Ni 7.750498397468969 2.9241386090199275 1.0809745660106358 -0.0824341953365161 -0.3744503222033551 0.5793860132109183
P 4.374925758826914 1.1591513048148967 9.00689891899346 1.2476722890986705 1.3267882186952311 0.2900410054183392
Ni 8.694152231372467 4.940983153797463 2.8226768334822507 -0.7436363106839774 -0.12770849379328325 -0.4737447836303196
P 1.3637916653446422 2.3753786699084873 12.973960463162166 0.7413786249980522 0.8324962070411791 0.12757685331142543
Ni 4.029355485496352 6.976492688337499 11.711837551459498 -0.37689904085416376 0.29821557080933153 -0.04585665332279844
P 6.699095828109771 2.6588739921378246 5.471112291493988 0.5941729417121057 -0.1684756484083163 -0.4909428926761609
P 7.316121581263463 8.400030801110026 13.181523465405714 0.18978443718842153 -0.20138396910056286 -0.023038626987018387
P 4.124325171030498 5.042892149881924 2.6861267252098626 0.9899929878404886 -0.13371844743278904 -0.15217434014513145
Ni 4.592936535290491 7.124361911688631 9.30883192467433 -0.8364459357175466 0.9573016682550546 1.0095423707273257
