# total energy = -381163.98751067166 ev
CRYSTAL
PRIMVEC
9.26530454170658 0.00000000000000 0.00000000000000
0.00000000000000 9.26530454170658 0.00000000000000
0.00000000000000 0.00000000000000 13.56070974812849
PRIMCOORD
 96 1
Ni 8.975671055382124 1.7752879288947985 10.27998039464223 -0.09391571361355437 -1.407224152654796 -1.3361506337467375
Ni 2.472483559895267 3.1472015622437164 2.1600315502059386 1.8485542673998359 -1.5700505731971348 -1.088687096679293
Ni 1.1184334335707071 5.78083656284161 10.222794935433548 -2.9581284919407826 -1.3059525128968026 -1.6525554738705863
Ni 0.9658894607236984 7.935316342607197 9.378464416337533 0.43638562625557104 1.053708780831895 -1.2530006432901195
Ni 8.46659816640581 5.846397857294077 0.6136614989308585 -0.5233588471130213 0.08913243329229811 1.179295343186169
Ni 3.247442891339428 1.0474889972193013 3.687875625186826 -0.5277019545730653 -0.5885982758378057 0.03082264180781143
Ni 0.09839012126196281 8.182264502731792 3.6658936903241237 1.0466356760351974 1.9714825661956565 2.4749179349118733
Ni 5.535213341256684 6.631891839924283 9.70382670127984 0.6396590990693629 -0.3982533381602238 -0.955675188395225
Ni 0.866825751826533 9.088383484298783 13.329228231464672 1.6167050398308802 -0.848711640458777 -0.01551892157120553
Ni 6.324969363944569 4.41370382660087 13.0005165389553 0.07513637612352221 -1.0896846847058719 -1.0839256707349074
Ni 6.001184033823604 4.720070384312191 3.4333271358028528 0.8597277890636225 -0.5647664635255305 0.21656041973068513
Ni 3.7940217328233166 1.5073260582249528 12.574045692418588 -0.41163541589408464 -0.972022262294681 0.07346670173058314
Ni 4.393218238410593 5.114466599823526 11.083438876115551 0.3013366329368165 -0.26498766199413715 0.9491204179958428
Ni 6.587724133500469 2.033002372817269 9.274915373544884 -0.203713645675004 0.20740266449081698 -1.0369320755941884
Ni 5.377443736686783 1.0940286215882593 1.6519389304428898 1.5358870399415483 -1.4567736814481491 2.5225051977725332
Ni 3.535732840023507 8.928177104652423 9.067436483945738 -0.5943359496525312 -1.3118747919185085 0.2511206742040578
Ni 1.0878301328956788 1.2230757822911955 8.688726428907556 -0.35741650664951996 -1.176954096647502 -0.31061137337052314
Ni 8.12951712436578 6.8098042164189545 9.9766954771987 -0.49014816468900746 -1.6001882731227797 -1.4192646287590975
Ni 7.236128671144988 1.6883701076315702 5.477590559676867 -2.1487508731949383 0.3049274356118684 0.23409020108433234
Ni 4.184961989766142 5.3289398677695035 1.6092082727428703 -0.3340487784578569 1.2471485553847166 0.57243117915964
Ni 8.434317845621129 2.231122378368021 7.4034285678960385 -0.919832467665003 -1.4290098810713194 2.147534998509966
Ni 4.595238937144568 8.152217120325156 11.043069017995307 1.3744526146507294 1.8970666131779264 0.7412068753068783
Ni 5.460377477026528 2.5728546032536035 6.807964126950574 0.9464883796896343 -0.20298628059067622 1.5607534641659249
Ni 8.216953802679509 1.4462677017464673 3.441016411985174 0.6639740216656436 -0.42383118662932817 -1.052467452225626
P 5.387904265437042 9.034672514267555 6.232502551832332 0.757547778558747 -0.3574419605708167 0.41767236611678393
Ni 1.375582693920311 2.4681381320973292 4.021252398498462 1.1243542110635991 0.6694864668434405 0.2945923722344475
P 6.340507279546151 5.468290047046654 1.1183444866477643 -0.025645468482246154 1.0928353145197114 2.690520875825295
Ni 2.9052751971436046 6.763978020494434 10.635095425308924 0.846232068570033 1.2950718614285568 0.2266913375170999
P 0.2688207643945128 3.1945657987107907 11.610869112844647 0.8437136730235535 -0.08939031493937508 0.4174180840141327
P 2.626593369198249 6.390632576746242 8.42940538118943 -0.7499234292442698 0.9824830526166886 0.9889048969826324
P 3.8985806938035457 7.726698747088292 1.9527963381144373 1.3597235359706712 0.6036605694875667 -0.5479229096056305
Ni 6.152903394572497 6.931476194761211 5.7030107848579465 0.154172858632399 -1.1311851179425036 -0.5012221631149819
Ni 2.855946716128209 2.2083575252773326 7.871462643769143 1.934815549791926 0.06389705576427704 0.7654379799401011
Ni 6.867221308239466 6.960143046801338 12.007235132086988 -0.820341059735884 -0.2179177050895279 0.11072198653761577
Ni 0.19338728802583435 1.3905368953400798 5.467501569635984 0.20338300180846264 -1.3029497215147368 1.8710038546526038
Ni -0.28151793764460636 8.492967222936578 6.831288604431445 0.6215855293971037 0.5096252995770126 1.1390007573321803
Ni 6.265189619483388 8.234159473086269 2.059898625172564 0.17495200016127935 -0.2927216375742959 -0.5997375802840768
Ni 8.997203622977874 3.415691555268536 0.09406693019476077 -0.6448409003806185 0.613444388347208 0.775387120733013
Ni 7.197825902452718 6.944605131199756 7.778531639902799 0.5792883112907894 -0.2700529923321865 0.22533456637888935
Ni 1.50518577289164 6.65041318356624 13.137723653307795 0.15439191662174054 0.5934172944930038 -0.6287126273601882
Ni 3.876019677411268 1.2877846687321277 6.025375743803168 -0.8574217666382652 -0.9203955392573246 -1.1953464831117606
Ni 6.650274203999142 0.2275373472532095 11.179910152821112 -0.5647178696757823 0.14643615210977362 -0.35295641399563726
Ni 8.796443005652256 6.579079604426958 5.256253554177133 0.23840631196118292 -1.5859718724130816 1.4524891951401824
Ni 1.7416919348749218 4.980712664448197 4.051410964558777 -0.1791513829546076 -2.6930181883258526 1.7593022778105378
Ni 5.872850301565106 8.947337754303033 8.373372525857215 -0.9322822633925816 0.300693857146495 0.4155596906491552
Ni 4.950146424991062 8.741064280815852 13.386509123309427 0.6015471226889898 0.6539688308238157 0.992187424388646
Ni 0.11576534674058256 4.008059531459052 6.609435521472553 0.4456966192438518 1.235262602580408 -1.2432384216970331
Ni 1.3208154791791384 3.8064279755129515 8.576443910118455 1.027222047395276 -0.2549467328183674 0.30783021108096015
Ni 8.69508984001976 5.115615497578205 12.032173625607092 0.9747700002431471 1.036789636479053 -0.8887658281671854
Ni 4.199443660657777 3.341810017399121 3.8224791889823484 -0.5721522144666404 -0.5522217940913006 0.49648670531252553
Ni 2.2913839186618103 6.7995938508894715 3.0457492578533567 1.814685896787165 2.4548535600618306 -0.37944726119731426
Ni 3.7142196653955173 4.267460260795648 9.043013141354344 1.0376882370339224 -0.11288942650257977 0.04290039890795192
Ni 2.2789684106677024 9.008340518954679 7.290630898178226 -0.7903488842491678 -0.646711377930454 -2.2617850528054984
Ni 1.8772804005359471 4.578542858483835 11.890342197792014 0.6416306209734368 0.6932966818891608 1.8964881149666368
Ni 1.927127738601843 6.823878213913767 5.823863710284772 -0.4564674846071106 0.8018211465548255 -0.910727162929625
Ni 3.7878417747396824 7.906510510999973 5.169233814564699 -0.01461826413380708 0.9749435497065339 0.031072038814456165
P 1.6455551356608449 9.169871837140706 4.919635777360765 1.303832381230006 -0.7833858226677735 0.24094579055358506
Ni 5.109769090455607 3.2044611438881843 1.4130803076538592 -1.2101213274280902 1.210174806373845 -0.0012786096021074754
P 7.922947161135456 9.07198389538119 8.890604441952645 1.6933869060646514 -0.11184658706036221 0.4369530687232668
Ni 1.6774463136576503 5.017829474167897 1.3663090506730704 -0.5194003766859056 1.2566061012531906 -1.3762099636614686
P 0.28535192063562265 6.049780555785616 2.777016513851339 -1.0836503055863336 -2.0605653771969417 0.8258635322160099
P 7.502886052233316 4.815503020386303 5.905051867261764 -1.529097784933857 1.1516698681594166 0.5757209056545053
P 8.207614375770508 0.20912996685627364 1.542436002995753 0.5899028535818421 0.666172314868543 1.1724122429130905
Ni 0.1989019972482918 3.486700848751254 2.386182807909955 1.121026946462579 -0.05717979164510153 -1.6040827230811794
Ni 7.289923028916473 2.562394074503344 11.400393823778863 -0.8385750662454073 1.9096930436926856 1.0151052095270838
Ni 6.880841305815093 4.925185694740221 10.791015675105971 -1.7163157469466828 -0.8275725444873167 -1.8326725631725729
Ni 5.241030658927641 4.85307383002519 6.659609924786353 1.4168627041858244 -0.9022065270531237 -1.44254339678138
Ni 6.044175046579321 1.6797070479491145 13.243917940527547 1.2032289711836308 0.6387450718955258 -1.3754548306629988
Ni 5.502154734896254 0.15389114811741422 4.091998557334142 -0.32672576243388246 0.5896071767182942 -0.30147084452183565
Ni 4.314768905435883 1.4805215323839422 9.964314250831142 0.16547080014372148 0.053284827466069516 -0.22137146796608326
Ni 7.353223589077476 8.712916285826225 13.470720549136031 -0.6517972770937936 -1.482466715338879 -1.2561633572888173
Ni 5.045106530537041 2.9870971009465648 11.453944504042703 0.26221704122753553 0.46452506480426453 -0.49124859684203787
Ni 7.311122045551188 3.4699306476547354 1.8891427698530043 -0.020178788940720085 -0.1739670105401907 -0.47538694721943286
Ni 5.207518052648023 6.837683517578857 3.603188889240747 -2.167465418885306 0.4370299447077893 -0.8535345157687171
Ni 0.496406291230983 6.167820534774373 7.455746036134494 -0.06803396075078606 0.16554587635603102 1.990717246055552
Ni 8.516278728991187 1.2446917376272055 12.835157723491388 0.2531873269250995 1.0377964804770128 -0.11900839491612408
Ni 3.3131709612724136 0.5771469340019189 1.3811307582388723 -2.3947324264002177 -0.7125200488951471 -0.9514691207336775
Ni 7.504257317295351 8.534031052361865 4.995276796549644 0.017916989489736884 1.769906021468313 0.19971429470762378
Ni 0.8403288340940331 0.9494435452837421 2.1611026194030423 1.365047776397062 0.2614948183495303 -0.7656282415740363
Ni 1.8227911449289709 0.8172823157473587 11.28740621531935 -0.16306836134981595 -2.4171334198032373 -0.15594486293115725
Ni 8.517418361441392 4.122050572393014 4.237504604903297 -0.557369399730511 0.0959276018372606 0.13873672658298686
Ni 7.502617358403592 6.707228030595993 3.395615493535974 0.10895666710707687 -1.065025748506611 -1.639105004792635
Ni 0.33977539258083916 7.757922823163026 1.618701503706126 0.3270111548847852 0.2861504121146814 -3.5995763074794525
Ni 2.8500910437011373 4.921655613735926 6.922185873965918 -0.6168415869542151 -1.0022252682406223 -1.578878713011726
Ni 8.590521613735056 4.506051116285402 9.039283856303875 -2.5227738780528877 -0.022728809056083436 0.07077989892703938
Ni 3.6653637149082554 3.8816159213130894 13.22749611487922 -0.09179018263011933 0.256565499368713 0.15332079504474885
Ni 4.576967756723389 6.808229114658508 7.444815756447443 -1.241024701875166 2.127246937684891 1.2500071078794344
Ni 2.3529796627997426 2.8319217816291626 10.57988903513572 0.6315516394708801 0.29551025606302656 -1.0445798219474332
P 3.9465379097569055 5.407305813003954 4.824453304507429 -0.3770008565393507 0.3583822129968989 -0.09724992019310993
Ni 4.434930639149005 6.554952751578708 12.986820565882992 -0.5352365723872137 -1.3759194290042434 0.37932204847335965
P 1.9271184732973698 2.8261587622468234 6.105967215172085 -0.12185434900535141 0.2866497203486031 -0.298900255581182
Ni 8.72425701850144 8.44668702709287 11.177754116470195 1.102131909330289 1.959424606589858 1.6254719873902328
P 6.261464967085155 2.1787178162675183 3.46733821546313 -1.7629691851391638 1.4273283796038385 -0.16699186477393824
P 3.0469046413211665 8.343591984219408 12.540157841307806 -2.1878372976734384 0.07983583848172056 -0.3130220396945448
P 6.136105397562559 4.217010677938992 8.480460914958632 0.46744609510580143 -0.6712217043669924 1.8670662101610942
Ni 1.6973203917526958 2.1487167603832487 13.337771768719424 -0.035169863032913626 0.4275202054451411 0.46345908543359543
