# total energy = -340888.14730505116 ev
CRYSTAL
PRIMVEC
9.08093153360508 0.00000000000000 0.00000000000000
0.00000000000000 9.08093153360508 0.00000000000000
0.00000000000000 0.00000000000000 13.29086121405682
PRIMCOORD
 96 1
Ni 6.607540189448262 1.9570770007874108 11.322737708006395 -0.6645512343253523 0.11954421281493605 0.9190002015716946
Ni 4.6185618755097195 0.4088562376291769 6.159769435096469 1.0593906617080209 0.13595942094816585 -0.5698474775928637
Ni 2.8173772296512802 1.6567342649033987 4.880484097356974 0.8955926212810318 -1.5259435555755914 1.2549616236712322
Ni 3.3196254015165803 4.143229585278337 4.733500136450565 -0.33714875753941936 2.0417526153658128 0.9205894004356855
Ni 4.771557413218307 4.68703210071881 2.3859085639328255 1.1276480513235225 -0.4383877442872644 0.5408546899049396
Ni 7.506507025598644 6.374650614420101 2.401100054616153 -0.3097819354906923 -1.342199925264611 0.502939917137037
Ni 4.931000412451888 4.861222533074348 11.567222724754648 0.0199144795357399 -1.5223054446023718 -2.9098447172337303
Ni 5.46739288760448 7.946723352848122 12.391814005794949 -0.08055060516055805 -0.1446615767078541 0.7491454134276646
Ni 1.5462374876694187 6.830858462437909 0.28425949770525594 2.2531476888454742 -0.7093740470669977 -0.3605396256595339
Ni 3.010628537698316 1.6885538496690025 0.4197451828610363 -0.9405717570948833 0.33909945350788695 1.281122341227
Ni 0.9261188220091598 9.003398730272545 4.828051705668013 -0.8889010681934691 -0.7280705950352364 -0.22935268639934694
Ni 8.649224231120698 2.307392103955988 1.4777046040314237 -0.5913185029824461 -0.3742716305336457 0.4734763604602813
Ni 7.050190206400131 0.6780877014221619 4.947230761724595 -1.2805829237837623 -0.3825477544995089 -0.632997113668155
Ni 0.6534947221235865 7.439989200710502 2.403798907524925 2.779713215821251 -1.3115467191551284 0.7654364372782043
Ni 7.921460200788217 3.9711277672196266 3.97366225526417 0.14482766997207316 -0.8189598631176412 -0.6344646993526171
Ni 7.484231500076376 3.8723363109796143 12.760994744622927 1.1726084180842966 -0.8191372692357699 -0.08472967623891214
Ni 7.891175293484196 8.669347575824059 7.0007617869259136 0.5540565333071943 1.278290785315476 0.3589877077913817
Ni 6.847748995447048 0.9435996155804461 0.7392386956606252 -0.6707607055701739 -0.5345981674722664 -1.4389407670317864
Ni 2.0753470555782845 6.384612396522803 9.160593290810933 -1.092564577356828 0.9123122480285579 0.46767080952209783
Ni 0.07443821353898597 4.620387142786512 1.6273202189518385 -0.08797389420782269 1.559708053620546 0.040825775767110335
Ni 6.392703506690084 1.9267376078930378 7.1030484937870115 0.2918505478232522 0.47437367546357007 -0.01459846663946518
Ni 3.162225611921201 4.240776953871977 0.5393819178765746 0.039980654157995656 0.03956902054187379 -1.434275243235317
Ni 6.126314374527132 5.506658836384865 4.586663286638105 0.01956763771928243 0.8672197265652936 0.4315635222765793
Ni 5.392774871617331 2.82211747601191 9.393887875394043 0.14070593449421573 0.41690849136756586 -0.5037145905195325
P 0.15161796036585318 5.420653332014137 12.411497833402802 0.6002294323188309 0.035490222486809844 0.6414933240646242
P 3.7592514682039115 6.072128454922007 12.712310053457015 -1.3870556481267207 1.7303863661071361 0.6946717078598165
P 2.5890462823492424 8.62302574309308 1.6087388164554406 -0.6168202467979764 -0.10462153006683272 -1.1180385532582164
P 6.434221526538355 7.679271751673304 5.714857358051817 -2.6283685706662667 0.6383308671762427 0.6467358034104861
P 4.861068157235018 1.3075724400639401 12.648208664500988 0.42551937296502845 -0.9405146786047028 0.03361280295843889
P 4.024441917379118 6.118895253307526 8.211559645686041 0.29903832382094303 0.2436487913070449 0.40223623406737175
P 5.03611219717274 1.1260900195329497 4.006410819345277 -0.7575004702605793 -1.0420454855613537 -0.34913292648448907
P 0.24210036407717608 5.750291153644107 3.717174971054532 0.6111620200709346 -0.7003096228718841 -0.2343452545179319
Ni 1.309234250569678 0.961016842629655 2.7751054924698066 2.240260548470161 0.47761866476342907 -1.8535740892119303
Ni 2.0145048130184833 6.450648932029501 4.836863841814287 0.2912990461951564 0.12224849911997655 -0.5069454387520044
Ni 5.949853709240256 5.829485959220827 9.2650730426837 -0.05437600364771925 -0.07378063342657615 0.2682370221693703
Ni 8.514526770838676 2.401888279489913 9.88906563381799 0.609133676786996 0.1810408866678366 0.8750142829090479
Ni 2.267572218340357 5.301892906910093 7.04842305708638 0.8575307814123039 -0.6962246541692332 -0.6066538477879359
Ni 0.725738074464557 -0.32079299412948553 8.70831839432337 -0.9340398695136365 0.3550073829873951 1.8748947050665774
Ni 1.3464660706435863 1.093371422526537 11.158741529605727 -0.4166290124539341 0.698705511609558 1.4566001319847623
Ni 4.065514971572847 6.908028220239879 1.505628469086855 0.17153474694961426 0.14976675914490337 -0.5415082643285384
Ni 5.668117802461473 8.011188887166336 7.9231746806979615 0.02639803037755454 -0.12621262597404714 0.6555857976019484
Ni 5.1894074056282635 3.0576586831038703 4.956773912874758 1.345875060123353 -1.068814783235398 0.2239068327934273
Ni 0.8863234549091868 7.525168340294225 6.79043378676937 0.6073218203892379 -1.221494088041406 -0.3413221721908187
Ni 4.91016875507395 4.420897234644166 7.037045557727697 1.0245072195672742 2.173766164292353 0.23723620291248174
Ni 8.18006697446255 7.133998125293327 9.325759093217826 -0.359112149184388 0.01676564949411306 -0.06911459540947452
Ni 4.346370027974272 0.3252172240660729 10.593122075695117 0.9470491372891109 1.245371923100268 -1.1648940801591745
Ni 8.196430813431618 7.336620954880917 4.876151584830814 2.2147793734799213 -0.6421733808507843 -1.577089225211471
Ni 7.407461303270322 6.2989792103528135 7.079882128862487 -0.34285300701304827 -1.3875914660255328 0.013417558957486569
Ni 2.4220025432615486 5.20333755489494 2.4762075328232966 -1.3508079786485963 0.7057621613460232 1.4945280173787874
Ni 2.147703919565822 5.217930612177567 11.219600117842633 0.2580559678713104 -0.037916315429799216 1.6475081412546657
Ni 1.4225370357067892 3.225011173870226 3.9663521052252686 -2.722593073769492 0.34931881724305003 -1.2069259604192442
Ni 3.583589924908866 2.5321088404313388 2.860020376940321 0.10094151011208422 0.11835687737505422 -1.3722872315682946
Ni 1.0467499190486231 3.4609701038215523 8.232107069900977 -0.5480267821733464 -0.15178301824398377 -0.1380929223514009
Ni 3.854664817842096 2.579375090061752 7.300803035876645 -1.454341932078205 -1.2087007929314797 -1.235201924545802
Ni 4.349384897307086 6.880594725497615 6.063995572468789 -0.037508024247787014 -0.19006802986711138 -0.29162969006169775
Ni 0.4983143122418811 7.32230032555005 11.305791781313731 1.151033005906366 0.1790526525932142 -0.2553642799717602
P 0.27012775175427634 5.775209230298449 8.068869149299372 -0.14294896489212153 -0.8421699826855172 -0.4554652685948414
P 8.462329575281402 1.7004044655705757 7.865093041382663 0.5273363437035304 -0.8371493895424744 0.9181918467377863
P 1.6354939655978205 3.1987400383888076 10.57212242108026 0.40025494197128486 -0.31026350311280115 -1.3251095454412274
P 4.144328378017104 6.055655644772233 3.95436345916147 -1.2165747963629177 0.32478303688521487 -0.9898911721553018
P 6.76478560320431 4.115006049475969 10.499859998782668 1.1234484114198782 -0.056912911136960044 0.24010272582699937
P 6.43951570973423 7.831259305960379 10.484974535498484 -0.9376810658106497 -0.5400967286929924 -1.0676444170763806
P 2.7746332840200885 8.531907674160983 5.809236389566483 -1.5550322454114316 -0.5332282837079332 0.4930373133113444
P 6.963603522398981 4.309201774422441 1.9356814175493289 -0.5333990049578428 -0.8206519061080834 -1.0543770105435133
Ni 5.248369895320919 3.099785125377739 0.5422778270037867 0.2778981994082182 -0.8574346221540717 -0.6703117909582134
Ni 1.4433777740164526 0.8970616566744056 6.978007696301721 0.00828075195155348 1.9614922877521639 -1.3221260373328714
Ni 7.291888285201875 0.4307403749940823 9.200771873229716 -2.3745297262000977 0.4944827875086194 -2.4499121568961546
Ni 2.545730238019354 1.5966094159498994 8.941719225807669 0.25868923057993515 -0.4161495017143543 2.057928453794727
Ni 6.133606362702582 2.3781507239598647 2.6296371390683557 0.9173181858835815 -0.02248172604228386 0.5706116094523979
Ni 3.9678858745936787 7.075553248709016 10.492284685537385 0.5072804534939199 -0.6907109234398556 0.28176359590089545
Ni 8.319740785330058 7.134443090947869 0.2781117069271984 -0.6474045473427367 0.14159964995307872 0.3445573912986647
Ni 7.571217745073442 4.067004244375803 8.247604587983448 -0.33075468108761746 -0.3334918775131224 -0.7211175607561711
Ni 3.161717079744582 8.800040345215203 12.544646086732481 -0.7249101950293838 -1.6675617174714314 0.33753519434456064
Ni -0.07145240318769301 4.771248661539645 10.115714792564495 -0.025581705123846266 0.7063051783336868 0.7941397187501678
Ni 8.621373013519069 2.304331829964547 5.863928117068711 0.613680158507098 1.3250259845884858 -0.5806103725363226
Ni 3.7795564315417796 2.6838602904935547 11.321594418702174 -0.8125765852991167 0.3769887723544927 0.07625352044710093
Ni 0.9443079282550229 3.3108804642650744 12.795989931212883 -0.05204504152169746 -0.15015448150162528 -1.0447950232820329
Ni 3.2271815165525832 8.334642594291347 8.015359759107787 -0.11010620733048779 0.04299887215902917 0.4486898975442208
Ni 5.9276962358304175 7.811617250638461 3.388026611644558 -0.6453733758453208 0.007597609841599819 1.2482777838931536
Ni 3.419751754720218 8.180675396888148 3.720603930874022 0.04818350168376218 0.5047546017482726 -0.21019128297954767
Ni 3.3303136581573094 4.086246738701806 9.239767210244684 0.024761780325712194 0.6157673800534298 0.01866698028188398
Ni 7.313855059045481 6.179474148847293 11.711388872546683 -0.9910522823429383 -0.7415017808394778 -1.8031197892161206
Ni 0.43803871982174086 0.0353003058959279 0.5725155134628356 0.8802572764755421 0.720196077383166 -0.6536926943442934
Ni 4.808743828633588 0.18695549808185496 1.9192540120581825 -0.7225643205050265 1.21839102363605 -0.74806452165866
Ni 5.866617889045757 5.326366017909894 0.2032103658702199 0.13839605541411648 2.546746072597769 2.7176732678703712
Ni 8.109716996386313 9.157302361153668 11.089855397723618 1.3471996924720475 -1.0622664405939188 2.4903080442146983
Ni 9.259916889650048 4.946092920979409 5.827617103471752 -0.46435408644403897 -0.271637563210487 0.30723268670627735
Ni 8.063594944153294 8.72578556649707 2.6136210997843676 -1.8049689266097173 2.450193435582 0.08179887574536235
P 8.695046612606781 1.452694809966655 3.7852238410315664 -1.5585230321735095 1.0475129364338283 0.1684800192836905
P 1.5950384147614147 3.0712982425553363 1.6243825375386898 1.8272938153591625 -0.24958855383024758 0.7268490639233095
P 4.810342072617249 1.004578072116128 8.448255947293465 -0.011746599012966867 -1.0990028767830038 -0.3306968312664885
P 8.516542737681704 1.5320439913827066 12.561964331625884 -0.08203875967031032 1.1028104234545524 0.48548186956158973
P 6.399677662255147 7.834691898152559 1.0702568189128476 -0.03802661575541838 -0.0323529624094088 1.286682351813281
P 1.7716443749558957 3.151728054846704 6.170454967457681 0.667289973412754 0.1758824823953487 0.03603529635700246
P 6.816192757701479 4.0224350314678174 6.045653906569941 1.389203547707659 -0.15721498789283245 0.41875325788578854
P 2.2483478858778043 8.577602922602914 10.15065640165727 1.099487015508274 -1.4326271661089327 0.6812477211444268
