# total energy = -340880.15284551 ev
CRYSTAL
PRIMVEC
9.12620747587999 0.00000000000000 0.00000000000000
0.00000000000000 9.12620747587999 0.00000000000000
0.00000000000000 0.00000000000000 13.35712713213895
PRIMCOORD
 96 1
Ni 0.16940887902301274 6.866604227858249 3.528018459486141 0.223206464292293 0.7833683391662767 -0.6930377718008194
Ni 1.1139266470104827 7.33975246078242 10.897719483122529 1.1762802105089292 -1.7060151363516234 -0.49713282353695676
Ni 4.387625079360007 1.5727923650436066 10.555349805079318 0.3000140574706511 -0.0358216376842996 -0.33713281669981937
Ni 5.1068432477521 1.4674850555689802 6.912540081182591 1.3236735843256495 0.5164518355805429 -2.417286143331018
Ni 0.333165897680514 5.891003509412366 1.0228689980795498 -0.08721130501018529 1.3806502588210092 -1.0185612863964846
Ni 8.314248908108931 3.5995222960173563 8.793717952415555 -0.42339229931969663 -0.9582874292070916 -0.8252007018210303
Ni 8.014425609888123 8.663965183268624 1.0718292766019066 0.016068623427088456 -1.1266224382724854 0.3887299720508208
Ni 0.7802724972234696 2.2228612584647975 5.150067704799043 0.31173957343769537 0.4999155284884164 -0.6797834778940745
Ni 8.642956653377768 0.31400998793207474 4.368328626014557 -0.43193890333812707 -0.17785760384384852 -0.2596333396607593
Ni 2.883242766471856 2.522766692553988 6.257266511568197 0.21300432694831056 0.2982556800186476 -0.3091389025900547
Ni 6.376408239140803 3.4295284270873045 6.04149558532601 -0.2354487719947558 -0.554045991784233 -1.1652766603095737
Ni 3.557724265217999 8.154768430331906 0.21297648147564463 -1.3750552812317351 -1.8197417140435177 -1.7614594333628566
Ni 0.39751478745480917 6.913439925251765 8.024200690846463 0.39098945750895886 -0.5803854010097101 1.2594744239399214
Ni 7.885919480699093 3.182098686687264 1.3614923679037356 0.19321917390158336 -0.35595432028169666 1.0148079900016393
Ni 7.186067124830197 7.633388190251708 7.6154196001117835 -0.577208031722993 -0.21120712583857176 0.053726542989178436
Ni 7.788296438022079 2.654786411668292 3.953415636394705 -0.9542448837066018 1.1266946862713176 0.030161611185044828
Ni 1.68009831398222 3.9423939154784637 9.465047259057311 -0.3427895007649645 1.5303005469927065 -0.059769663859464806
Ni 3.243052627235061 0.8914552591497612 7.922365903362918 -1.0784952437479554 -1.8817628929413206 1.0413299475515678
Ni 6.261874333784484 0.24063984194704488 2.779484174426629 -0.5537415731699367 -0.4199992144777476 -0.670147497466207
Ni 3.751090351806818 8.32082890378717 4.881709745135009 0.739470866452378 0.6538148217444546 0.06077599363679211
Ni 3.956375265518773 6.297046737867612 3.8629082977819382 0.24094116256789472 0.7924636165993255 -1.5801735205637497
Ni 0.5947649879973853 1.6374241672534433 2.1414545740688693 -0.03728973758939384 -0.10423894991643337 -0.4616222893351728
Ni 5.590842541510428 6.884272565768196 10.105254372547979 2.0198244478341536 0.3831514495217789 0.27426780174448245
Ni 4.553749436268459 4.142559026727877 10.460781304085392 0.6676710109012566 -0.04764305579925988 0.6466283312983444
P 0.4514707520163731 8.749578136746523 2.5074401395137174 0.42030183331983095 -1.4586400452329267 0.3849748758837628
P 4.806490629490602 8.48212549687622 11.604138145358268 -0.27745494122321246 -0.21896465829680356 0.22309899218015125
P 2.2120375762534352 1.9570330835469605 9.591218904342744 1.4896470351374023 -1.29182275836364 1.8825288245730676
P 3.933760523090649 4.150708730112992 2.9639330435713322 2.289966914556353 2.4919319529713664 -1.2908326265362284
P 4.7733259910790595 8.19513364653836 7.441616452130278 0.07076884318344585 -0.1345784814402392 -0.6983267881139005
P 6.464238861065042 1.2054990140499489 4.590684111038782 -0.8586237573661664 -0.08169397473638189 2.430751524807304
P 2.839126678942577 1.148359828278163 4.315153864823391 0.31635187539872617 0.22188414593644368 0.9372429498319664
P 7.344854010829765 5.7554245693347985 8.956114253520179 -0.301443590828326 0.9202690409817893 0.45322815173420655
Ni 5.611732430702508 6.331133123246564 12.406994355904029 0.27473985628489456 -0.37461153037156775 1.1688355813054259
Ni 3.59819899591563 8.337356465747353 9.809714916173727 0.3223255764836578 -0.9450295357559207 -1.5922044835863547
Ni 8.218496737989529 6.610741871637552 12.099206616312348 -0.12130953224547493 0.4781927920993441 1.9572414828956097
Ni 1.0302301971281878 3.5708386255364872 0.7448682874673498 1.1719224477608656 -0.2799946769259307 -0.3303654160689988
Ni 7.853457560272606 5.127085176204715 2.709132977915055 -0.2971120533325076 -0.747282649187313 0.8037430461678867
Ni 8.19624704386533 1.1254347947917032 9.066417249034012 -1.2761220597989311 -0.6142447727613164 1.0608147957490568
Ni 2.9388304969519625 5.260683729233492 0.7447213555250201 0.5554032771430757 0.9570751540665452 -1.3510859149003311
Ni 8.893151634680036 5.137397790790582 10.314493672012198 1.642555682345397 1.3103840663055948 -0.35492665034813065
Ni 5.995033149823257 0.2859779286737107 8.61625519518721 0.09761707372454156 -0.31051521411229105 2.013040335032785
Ni 7.270557554773528 2.540325515972758 10.932461130207026 -0.0039818674658834655 -1.8698142052198767 1.3303795355909152
Ni 3.440461623789844 0.7028612665139953 1.8454606325562293 0.42902687189765465 -0.10881628487447065 4.0688031486347604
Ni 2.869462192998705 4.67992838251997 4.962893750065544 -0.14624023404888364 -0.6245762365943115 0.2769196375450328
Ni 6.4756374943550865 8.129379320793955 5.0184194223339835 -0.5490703929465125 1.0296980197395944 0.13560769403570191
Ni 2.4375552922104067 2.9109499327397272 3.1483280680912067 -1.8055052587291616 -2.7938475983401045 0.5256293883147528
Ni 6.312862455635142 6.860298018407953 2.8797830211714115 -0.6247017064285822 0.7547984979483839 -0.13503305247915454
Ni 2.7995189379667664 2.873158307075941 12.156829491086834 -0.5975310595510611 -1.209193159186866 -1.914667614089141
Ni 6.849647734140955 0.10546062976227477 11.740247318097286 -1.225706583460857 0.7505890878527267 0.7161586740889989
Ni 2.6967395879968175 7.620054800950864 7.424652657446907 0.2679734840953385 -1.5064859610716121 0.7230584865326257
Ni 5.625430868307276 4.654685292303589 4.207094091137174 1.6549332300741435 1.1453590954500403 -0.40849455627225784
Ni 3.690483207147749 2.9912514333955236 0.9412496730465857 -0.01684561080242905 0.6837008106706096 0.9209958918454848
Ni 4.319096386505776 5.816524529204165 8.637894346023094 -0.25499789777127696 -0.2319934664563037 -2.046292155107379
Ni 7.814470401413467 1.718775181783023 6.805149258513316 -0.16583795367515308 -0.8742696914335395 -1.3534425880579657
Ni 6.010766731722403 4.091132846912511 8.152602781268873 -0.6044516979302945 0.569702210264251 1.1201756542058774
Ni 2.53726823642739 0.34944340155250847 11.484925233366397 -1.1486436797385833 0.6906461316401913 1.2263632432082492
P 0.09546651982158118 8.993129238917366 7.341959177779644 -0.5926253947193277 0.34318210821769285 0.488507543761791
P 1.7728205831790487 6.99118608778009 5.113001612639308 0.7492955658522837 -0.8077575666439184 -0.07808286034635585
P 4.2394976038350345 4.557500307591283 6.691787158212595 -0.04750395911823432 -1.1546927141461405 0.2621568774135614
P 1.907988843914701 6.782871273145561 12.83100343663692 -0.581176786562754 -0.8004813446974796 1.0604095898908383
P 4.348838697068027 4.263061471853362 12.612146939605811 0.6686642280524613 1.5255640607489855 -0.09716893044352942
P 8.999362438706877 8.90798172202697 11.523540955576292 0.5393063715812131 1.7838524563460763 0.39102391029132016
P 0.32978555038617297 3.620476068662624 3.0967832475770636 0.715842942620793 0.6300693984983988 -0.6542724781071635
P 6.635921078400745 1.3679090044659687 0.8569006993210257 -0.1544803625704888 -1.2120751087203512 -0.08480089579647976
Ni 1.867048676629566 0.0059575883200481995 5.968965963060766 -1.9701525345303232 1.0213751016961958 -0.25470607756247104
Ni 1.6619280346543768 4.800266555908689 11.742757937807527 -1.4538133132682445 0.39030168741331495 1.0112763226992971
Ni 5.207596579635268 6.451471296635283 6.12056961105986 0.19823179662482635 -0.49774834563376863 0.2693464531834651
Ni 4.669168583761795 1.0427513539527988 13.17265214427988 1.149005691063692 1.2838348550621566 -1.859349558243127
Ni 8.658434701464168 7.4415005492937825 5.708395396340203 2.2548854974721877 0.9099018388148523 1.5529568509396416
Ni 3.4601651059941703 6.25928249082662 11.327739084179537 0.41445411628980233 0.5640948913798026 0.15399339563174122
Ni 0.3833573016078564 4.975024305204955 5.041153718081643 0.07030527328346602 -0.2964332820979282 0.00691549617291067
Ni 6.254947542217516 3.279393185890747 13.134356751956677 -1.4584631533354302 -0.7007245989221158 -0.7065543182300154
Ni 0.39678195298468066 2.208542238743358 10.914188637354084 1.6453540710261407 0.2338505742697005 0.16179797927782458
Ni 2.262952688443308 7.408983871621706 2.180016451653936 -1.1215493946249524 0.5525082149834677 0.07023173973305323
Ni 5.806193662203102 8.24872273755448 0.5781899697576925 0.7230754558134902 -0.9203898828303697 0.48131616821967427
Ni 7.706479986904995 5.174021261881811 6.834615044985344 0.3270790320082432 1.5386301499043242 0.19664362620210005
Ni 7.0338328558860725 4.649638499501832 11.386576657185332 -1.1617025698050703 1.6864708956711085 0.31379619885640797
Ni 3.7830959618534004 3.107227279552345 8.466108089920773 0.6124807388823581 0.6379827398082044 -0.28737579988135026
Ni 4.669843923124056 2.5858105346417535 4.596615233356796 -0.9848991182573489 -1.3902836681457151 -0.009588929240015745
Ni 2.0299058512178934 4.8492104072573685 7.154771533734747 -0.4666979040858672 0.27178900118668675 0.9964922224115872
Ni 5.591253220852343 2.7414032479819825 2.2790330662311833 1.036303183760938 -0.8598473453606224 1.036297784444299
Ni 1.830315691047161 5.191215036996656 2.740201326441311 -0.34286843363201597 -0.664446590426688 1.395729521751635
Ni 8.575495726812516 1.2987962343254587 13.026324356893255 0.20390544997083593 1.6552692732573233 -0.09474180905927554
Ni 1.1481681779186028 0.04259748658495247 9.38021642157057 0.24462761028054644 -0.5542915321361357 -0.3070542521468841
Ni 0.9275147306114254 1.9862004430305298 7.858719731573678 0.827043154346408 0.23271980309936693 -1.1739235373512944
Ni 5.5027746381886375 4.939678503177464 1.34749367806899 -0.002029885945835214 0.7758900285113605 -0.004121478367541289
Ni 1.103376751027064 8.684572160025164 0.21030250264939748 0.0012192171190817712 -0.23836954518597658 0.04971150829251439
Ni 7.85333891957383 7.864874445977844 10.134025654621793 -0.20032698859095824 -0.7966822826663634 -2.580529339695801
P 7.405789698962367 6.052683403220537 4.8703959855756285 -1.8129799698396518 -0.741156224574601 -1.7900868672915622
P 2.440922862814111 6.157799062335602 9.370319049430417 -2.5003772555252417 0.30599135810000855 -0.5568168696611507
P 4.314998719294223 7.785512944704654 2.24577351526062 1.7052975414593081 0.25094995295414846 0.6632667111859738
P 8.536709344520535 3.6037112253048904 12.688789743635525 0.45542824470931886 0.16980079497764305 -1.5323944534072578
P 7.245807279767445 6.359971939256602 0.8449234644692621 -0.2594857583393015 0.46598699406177163 -0.35640940554124423
P 2.429241317088526 1.3200237931986696 0.2215067477176009 -1.6109460258599158 0.5997218965547929 -1.497680704075156
P -0.046993580784963525 3.5843271603664983 6.685710016573011 0.7508413130728488 -0.6450512166192117 0.2286960266519545
P 6.065259317290737 2.3105458610674674 9.359446085698025 -1.0178092387218085 0.13735321597189895 -1.7833742311580771
