# total energy = -340874.151139556 ev
CRYSTAL
PRIMVEC
9.18630481191870 0.00000000000000 0.00000000000000
0.00000000000000 9.18630481191870 0.00000000000000
0.00000000000000 0.00000000000000 13.44508565816348
PRIMCOORD
 96 1
Ni 2.843014313293857 8.755604771862437 5.169877726311635 0.5882905147893996 0.018915863067896454 1.277293454399213
Ni 4.871001303998961 6.546500598359832 0.7647525144119339 0.8540101698535552 -0.8010685846595171 -0.03017343825958674
Ni 8.559761942685123 1.7955275511285798 5.324536514409736 2.5110306214740303 1.129314897502984 -0.2925761131353671
Ni 8.345766975487528 7.685602376960465 5.579293871302368 -2.58809378230662 -1.433115418599261 0.49352839401515
Ni 3.910986534864613 1.2567415961551467 2.995242405177299 2.185782986247571 1.1197064278789426 0.10586285867310155
Ni 4.140148091065996 5.033709132245528 8.629284815028894 -0.07983223893729477 0.19816597638389744 -1.406786550896745
Ni 2.9900319331706675 2.845880440349691 6.780236015654483 -0.46884580366680545 0.3979566328554114 -0.6293430618553355
Ni 1.1908298601756342 6.798453376437894 5.564154841212579 2.3713582704506515 -0.18421928439581822 -0.3060211828966794
Ni 6.669918601549345 6.187867264193955 3.9099650177857392 0.26160306179262044 -0.7197507623156314 2.2461951687870414
Ni 2.9877445433088003 8.933424071284795 9.085906623807489 -0.17681476440163096 0.1425674131829867 0.5805386387581227
Ni 7.93365097555542 8.495972243083488 8.363771214002686 2.047623215213977 -0.9453303548257914 -1.3114991537466445
Ni 6.1403097649373795 4.786863939561838 2.3441373403119767 -1.098720826766211 -1.6161291127227522 -1.7246684897867521
Ni 8.268574457378003 7.627912383657143 12.661384509242286 -0.20493620522819544 -1.641017648434316 -0.5359395119915092
Ni 5.904919894172359 8.158127516377073 12.876694036637604 1.5399833214981091 -0.021395177846324446 -0.06237033470710549
Ni 8.02259277733293 4.3254634150959195 3.7653091968385914 1.265144220631189 -0.8256951249589457 0.6816907222191163
Ni 4.707880092042417 3.5171788401321087 11.986710142495063 -0.22428401362718794 -0.6492917370631205 -0.693006918562884
Ni 0.839963546604974 4.4024079029794585 5.9046782943596385 -1.0883330557739836 -1.334592031010366 1.8400881389103536
Ni 7.836496617406385 0.18273121652734037 0.7890796864287903 -0.3158903623812753 0.8333809236389776 0.5126887689936848
Ni 8.568167411454636 4.37657601425829 8.551356473915611 -0.5906029649726603 -1.6322810398922663 0.8978371943408344
Ni 1.2310566883086356 2.6038304987017225 11.022993292580264 -0.9822742790399921 -0.05320306638554063 1.1240191963216837
Ni 1.9227303118405392 2.6325193281740593 2.2133032333654947 0.060598073298031116 2.3281817350631777 -0.39015050654743133
Ni 6.610685309062112 1.3778722094827913 3.8222495876811573 -0.8811911011437211 -0.26142488434354333 -1.9504434861371698
Ni 6.170321422281639 1.461605376514604 12.730505940072145 0.12563438487307393 -0.21437883869833402 0.3263814917205863
Ni 4.05076534666451 6.758924707459518 5.165009903469051 0.7269441947402772 -0.39830013223775923 0.17111205758989884
P 4.045088210380839 3.4959125448300084 3.0046537743077533 0.1765710238219411 -0.14694754452855338 -0.050207988312958696
P 0.84905982548538 0.8233657313342029 1.6090271937967247 -0.5876978755107233 -0.7598013504796141 -0.75501858437899
P 6.606900551539664 0.7413347865570248 8.99824447426997 -1.0851713702165504 -0.46245069877373907 -0.4133799093890171
P 6.539776223344222 1.8544944407804949 1.4971508637897433 0.20786160640510654 0.9065154388411226 0.10302178967988064
P 3.977890391748068 8.176279654397355 3.0155174982059236 0.40673772148215115 -0.6051854907725255 1.6356376150693248
P 6.537791981536337 2.5011551714483415 5.5333384635795655 0.25861029771288363 1.247429062739613 0.43915521858090817
P 6.377720622728949 3.997741996131584 8.760978760092126 -0.6693941642399504 0.6201593384735383 0.5801223771563105
P 3.811002794878409 5.357673352601415 12.713107997664954 0.020814879862822218 0.5829274507052735 -1.5940744469155579
Ni 5.339567146104465 8.554681916204752 7.293864356669241 -0.7712872396320265 -0.4631014449838606 1.2724816348328665
Ni 0.39447278319033235 8.501254368266515 10.502924433364077 0.13981144770440437 -0.37723765514050517 0.7730589868204687
Ni 3.6741911594856735 7.864193325974779 12.54722262663437 -1.7262160367795303 -3.344902111596181 -1.5009555181716858
Ni 6.929376590539637 0.3227846988367548 6.091377075872282 0.062294230053531435 0.10439758698148474 -0.18424499542743106
Ni 1.3726176432137627 5.4506571284320255 2.677776576742236 -1.4695968013547465 -0.8726915483131422 -0.9875321850048218
Ni 2.2405948258981128 1.9557091455919609 13.354277155403384 0.5805406956406518 0.3955169130656672 0.05948529984982658
Ni 7.49076085499176 2.3200288023461746 7.629709224849838 -0.6520507878654963 0.05941202340972993 -0.1630822453068869
Ni 6.185148118012781 2.4097330674109743 10.439692342455677 -2.215145241459772 -2.5818298036747795 -1.7098563644745843
Ni 1.780122118203473 4.428221419091296 8.52532707964412 0.12026900679610254 0.3711492828545801 -0.758415525875681
Ni 4.685520626485047 1.441744585826422 5.390659535396569 -1.0366744510574273 -0.24491737360682334 0.32421019510088034
Ni 9.030955067925142 2.3224723593873664 0.2376497017128901 -0.7207041273678362 1.254139127769937 -0.7336815134641106
Ni 1.8799680636196847 0.9621000602935604 3.704658457541374 -3.2692867389537117 -0.1686499692026515 0.6042061575783917
Ni 5.500474458636471 -0.13278711531850232 1.748990650320411 -1.249294655193442 1.8538437979335491 -0.9899811607659467
Ni 4.633507769465395 1.802858222252155 8.375454356277075 0.8796929193316397 -0.7249778150425257 0.4855649161936993
Ni 6.155981600697804 8.263981305044936 3.9590529553996934 -1.3956338767140353 1.5952774660847235 1.2535901972450023
Ni 2.464014941683161 0.4840750802733381 11.416235110945333 0.7812129833861707 0.4571956210223868 -1.029367118762737
Ni 0.9784149373806146 0.17243520625753725 7.318241134731295 0.7048743594244311 -0.0909579165368111 0.23078993306650575
Ni 6.408154850087852 7.547302560211816 9.686753415844393 -2.4162633584934583 -1.2888238236363159 -0.13586737545499183
Ni 4.0484779568026426 5.913545834253858 2.9260272740398445 -0.19129881695041892 0.6405160477530195 -0.1643649686740524
Ni 7.348272083315353 4.6943762241832 6.153197231753499 0.8721701285920332 -0.8414863263549314 -1.5998946531417606
Ni 3.179664820393675 7.282424651468504 7.44723246896175 -0.538160430902228 -1.0864952312342966 -0.2833494523307766
Ni 6.4334263742243865 3.9214313632700075 13.26732786310796 1.8346597688059305 0.5939040043214352 1.6375080926191605
Ni 4.88557078319945 4.410087653680347 4.779230120384281 1.0488491387467485 0.0683445500126694 -0.8105150747843977
Ni 6.799794576919149 6.049760359843295 7.807910674546308 -0.37389290703798833 0.7221642568531305 2.166888206225597
P 1.117275118713898 7.644337496400191 8.744791572639931 -0.6498972318576033 -1.1665583552354748 -0.8065964564562819
P 8.542776465357441 6.456162478273069 2.7492643996540918 0.25253169561897154 -0.6672989722738185 0.25363984108148574
P 2.9468838601538354 5.094292811518684 6.651149143855499 0.4484034766520536 0.6160797690875262 -0.27550861613011907
P 1.1862183352332347 4.3558976424548215 0.6960637585318492 0.5393066286915292 -0.6774124065587366 -1.2116794159438293
P 0.7094867869100043 4.6534053053722415 10.413325810802938 0.1207300055929211 0.40131937868005724 0.2951659853497304
P 4.2697576636004815 7.1415986009366685 9.623575524133521 0.08785048125608097 0.03353181320885838 -0.3672682026326191
P 0.5066054110974987 2.310282133095406 7.481612214174757 0.14506858233828562 1.4080636178369557 0.4293680572871573
P 8.076764415949123 1.7768242348283307 11.434480030642742 1.5743563996613401 1.2240466792599307 1.9851816609493034
Ni 2.2982388876781044 2.1448643449723286 8.927429088859677 -0.38903207667227196 -0.5666796213878434 0.42885512220648075
Ni 2.9848141121203033 4.306346715085694 10.754414221686966 -1.18434396135367 0.46095997316082543 -0.48752178280975383
Ni 8.56086429924506 2.0498412095058374 2.7613113195932604 0.5574480754872465 0.5173036420578769 -0.8097884810310182
Ni 8.373987303421892 6.305709180451124 10.194668793987281 0.3100824974502466 -0.04120218526992259 0.15738596625305798
Ni 2.5674068007005006 4.801286437887669 4.470531701122576 0.5447928486170811 -0.7111157123484526 0.23289695210717953
Ni 2.249854621001576 6.825755073905644 10.638060486785712 0.13372616074227292 -0.49666256876875753 -0.5496501767093824
Ni 8.532377568475377 8.723112812258321 3.378373776626822 0.2603967001893451 0.11922462469198822 -0.03175029582840338
Ni 8.95758405255673 5.029005744256468 12.404570338734906 0.9802145682974861 0.28804222982075556 1.0403812104850534
Ni 7.397630098286492 4.036241798987352 10.95318656342231 1.8146031072653714 1.5748708774039133 -0.18117741224570086
Ni 5.344224602570195 5.381934383224675 10.532543835499094 0.6728394424760735 0.6214875703666587 0.8215160538805916
Ni 8.431466011717895 4.424666319185502 1.4233104282528906 -1.133983506623247 0.6345078938857266 0.26563480865983286
Ni 8.953183812621651 1.3610245267251015 9.50915734362542 -0.19216065073008196 0.30333103765902597 -1.110797812535403
Ni 7.277464046948792 -0.13233239323752868 10.984904117543072 0.4775117068719195 1.059587865320491 0.8261376118130032
Ni 6.820528066550613 7.389307306258974 1.7936820225211534 2.0663552444058415 -2.197935305339389 -0.5682703629137309
Ni 2.8663199682318394 8.968359587930104 1.3658996986114187 -0.7370422024062274 0.7135238075693131 -0.5568202120952603
Ni 1.9209757276493076 7.503410396517027 3.4358515662923566 0.0407859236681104 0.6730376745298086 -0.78351489204647
Ni 0.045627456646221635 6.105539601776061 7.354824674433707 -0.0020993057311899333 2.1563078596065894 0.9770621387114334
Ni 0.4331893828362213 7.785200292150692 1.3347314855096923 0.3644893543359013 -0.13323713692099634 -0.2171137211309938
Ni 5.327716813085152 3.601334577178564 6.816550396630177 -0.7090793986447144 0.1690027245563799 2.032044386939113
Ni 4.837921420896213 0.13743906000143266 10.835246353705214 0.45625048350029807 -0.2341997300790031 -0.6052672518530544
Ni 2.567902861152472 6.685351593388449 0.8768989217760995 -1.2241320398848852 -0.5506325952273097 -0.23410125682792585
Ni 3.3533594690209387 4.450838101179318 1.1155297208273327 -2.0360733055928484 1.6821570987871028 1.0078035336593483
Ni 4.4094078671350525 2.7142223218746566 0.6584008280311658 2.4401293664777786 -3.8260462730143656 1.0035213613442266
Ni 0.6653741519032282 0.24972418056605683 12.780440854976318 -1.037864871821103 0.6338005834060568 0.6155053846412948
P 0.6130792753303265 9.101395652105058 5.224719965168456 0.7913960945667596 -0.25951506891534015 -1.3247354499312605
P 1.3118318652379533 7.4483844315668835 12.510194469786116 -0.18748587096223193 -0.6248731990094399 0.4605403691249037
P 3.3909038961914293 0.49173002795162774 7.016008955324082 0.2552226121875734 0.6635798715510184 0.34498008065838004
P 6.812526795186411 5.86836758790581 12.222079803389818 0.40543700039285663 0.804637532957698 0.06755342156994174
P 4.034753617631439 0.537151711373328 13.053497330763888 1.1283335074263212 3.280168933083854 0.8768605920891673
P 0.836149392907595 3.2333771437765613 4.140951892724282 0.05831750479397053 -0.08673873624914094 -1.08472245560459
P 6.097033083655221 6.870519936543716 6.021986486315705 0.1820220196341833 0.5956608391115419 -1.2552058784715545
P 3.864237430418657 2.0718240365718965 10.529196346078754 -1.1907912596409105 0.7564414328684457 -0.286733538311661
