# total energy = -340865.0104855051 ev
CRYSTAL
PRIMVEC
9.37759691408422 0.00000000000000 0.00000000000000

0.00000000000000 9.37759691408422 0.00000000000000

0.00000000000000 0.00000000000000 13.72506098578654

PRIMCOORD
 96 1
Ni 6.102039836110575 5.943858531007928 11.120305167864023 0.6743872465791676 0.21013163338620588 -0.3557036377234713
Ni 7.202997849091731 0.8889399238736291 9.075133799153889 -1.0326491319481181 0.138011161270872 -0.18520915911291327
Ni 1.6928719315298344 3.0095428068109786 12.805660017690617 1.879802169670524 -0.2773729230323675 0.5676874938270674
Ni 6.262556162850084 3.0734605075211783 6.838827311951185 -0.8358355558270574 -0.21539493866767417 -1.0961042150789704
Ni 5.415055839833023 8.47016439015205 10.32024423222266 -0.5678206769708222 0.4745878483569052 -0.3997708032460147
Ni 5.450550044232687 8.955004906894823 1.1718329528575666 1.792567210511255 -0.3786982988464317 1.4133338650969596
Ni 7.043409904448806 1.2439288558549382 2.7225301994934155 -0.9625035241709682 0.588535283810354 0.2211765783464578
Ni 8.726716687104755 3.617445528134142 5.76272743292581 -0.20187016470836203 1.1623638575381532 -0.002153556007893065
Ni 7.986852421709712 3.436823633565605 2.882756758487626 1.0807557576473583 1.133561331484164 0.9675773391494499
Ni 1.2492365757202513 8.91028314711094 0.5475306900141567 0.3960290768153954 -0.13101750356185823 0.645983498625494
Ni 3.2605154335872504 1.167501440833206 2.6311623970345512 0.7216045276949185 -1.4125188253948318 -1.1228673421054274
Ni 5.788912496847918 9.222350817919923 5.817284416375311 0.06634705996666639 0.7265852687389616 -0.7487931722945685
Ni 7.913697788018359 4.554351860331226 11.53126053611419 1.3233244285163468 0.06763672531236738 0.3275207475313521
Ni 4.542301648269517 5.375848107047028 2.7831676167956885 -3.0361732999603515 0.36265178690653027 -2.7177262325954934
Ni 8.072104155447452 8.902237168940554 7.048628537143235 -1.6940196545526436 0.6464828068594156 0.9657801380397109
Ni 4.533739902267697 4.071443128557102 10.507549540126902 -0.43146350636360525 0.8618908581532123 0.1916135199773603
Ni 3.696189209598864 -0.04154181666316211 13.667072943520711 -1.260973377082951 1.4373909060461632 -1.2077746815727846
Ni 1.83856227751482 1.108863327197514 4.669979506061406 -0.5349444950680916 0.2967811523556501 0.3487182075445736
Ni 0.9447084928471555 5.165883711668306 12.847192456756842 -0.5919628214346644 1.1329424669532422 -0.3691919020178932
Ni 1.661231919470531 7.277071487282733 4.7150660543660665 -0.4087938326802314 0.8452092837324734 -0.21140664344388752
Ni 6.7776769400965575 8.436798900256674 3.845912860025672 1.3557051588398974 -1.437934437254459 -0.8405360466265202
Ni 0.13465666543105037 1.6413983019526213 2.7378888277538564 1.0268754626891348 -0.7087778082438955 -0.4903808495251039
Ni 5.54739248778231 8.11253097583502 7.793281941293076 0.4321358498402815 -0.23536983912770432 0.8584072704799862
Ni 6.1173722070995975 5.944646249150484 4.011903827855939 0.0006867416543794624 -0.21147632033955838 2.3561558516786003
P 0.572999305530417 1.6339431123891517 0.1964343985206414 -0.732066603568507 -1.26525837761155 1.6091917621729703
P 5.255214700072849 0.19816268963579545 3.3455655489908827 -2.8705186659405983 1.6008960978230817 -0.5268982277248474
P 7.553391758574801 7.336244123943731 2.1012794066927136 -0.2923657968967739 0.9387992385754929 -2.4739185471130813
P 5.022978511973069 5.916110221676725 0.6776335943734827 -0.8800896405494263 0.047224223094286415 0.17597272811630982
P 1.4444875215076727 6.5612982684141725 0.7309114736010249 0.621625895716736 0.2363183190839027 0.295071368753395
P 5.270856531760732 1.774522668044463 10.196800359447007 0.5383072408927374 0.6832524102792814 0.7285418782447002
P 4.3866710495332395 2.392028048629253 1.0796521127444225 -1.3808186660780735 -0.09545194775242272 -0.5449214037751454
P 2.887277697970078 2.86241768849491 5.512094275158591 -0.41085508608463434 0.3626559006715883 0.1444080659361513
Ni 2.295992078416056 4.324244386735734 7.181363732962267 -0.8992060496639029 -1.8739721932523083 -1.152722734903963
Ni 3.470564227338389 0.5663243320319546 9.32844332308641 0.31817041666470364 -1.3741358547412594 -0.8357669073726509
Ni 2.6608462423731765 7.320292831556985 12.521798282943273 -0.8172410806543216 -0.47016992179486766 2.7023155544673783
Ni 0.901007015609821 9.013080364714403 6.532291485574268 1.6281922145348733 -1.4110859496030472 0.9179064542868837
Ni 1.1368554540490319 6.5536555269119985 10.626518423645086 -0.34473968251279985 0.10820616209429752 0.7000455705772202
Ni 3.5346976127780976 8.787399116872317 4.391854985119008 0.40197372443460444 -1.225411163707625 -0.8743020873333717
Ni 5.72738608335619 3.7187892182126525 13.68599974741499 -0.805582927590103 1.3304597540095473 -0.3744912027436196
Ni 0.3375803610308376 0.498408961748287 9.21696901503882 0.7115677122842068 -1.3076129313183609 0.9191781219104557
Ni 7.651415779338257 2.3984892129175934 0.6087917175126192 0.9552337299824322 -1.0338848041274322 1.3323698265480668
Ni 4.457818877480465 4.3431308669631905 4.953772784351121 -0.5729356295998842 0.057988660699642064 0.7465236595341014
Ni 8.799571237694183 9.013521111770357 4.796894965222464 0.5498049571196918 0.25288162275922255 -1.5825152813230488
Ni 2.19129120863475 5.9660459253565685 2.8096705812539 -1.3748138546448903 -0.6409703616816187 0.0403614345361821
Ni 4.1564604223714605 5.656275765796706 12.402733747936349 -0.6173650635578529 -2.3182269378433107 0.11017999799121668
Ni 7.261110817299053 1.6386131556628722 5.0819786008504595 0.45103525784794574 -0.5036809090681197 -0.04505909712216756
Ni 6.960071200485846 0.37912217769399975 11.416684119000445 0.1165913008341992 -0.3784023648725677 -0.2793745268434285
Ni 2.6286248193038912 3.3210478218038495 2.8961254606784217 0.15179330265662888 0.7123968930537214 0.7076501223973554
Ni 7.142821809558669 5.527043102432965 7.701749093128153 -0.5668300309227786 0.6452674463950758 -0.7919000307863716
Ni 3.9752008512113304 2.39263759243004 12.055928644800373 0.6003721285442822 -0.8059130572360121 0.5467993375241486
Ni 1.561398022498585 9.0413069314893 11.621777790531034 -2.9603563528300367 1.2271723693731058 -0.7348984165903473
Ni 8.691250615495898 5.580645446514464 9.491524422587688 -1.0384569968791473 -0.10332980783860268 0.8468578750794898
Ni 4.717578312585002 1.8773198856479265 4.703166821615015 0.13063723740430402 0.33157383455480316 -0.06243949738214407
Ni 4.475270585376838 5.19752372372761 7.294719186955051 0.8227111026299572 0.6143818125598128 1.140210204259249
Ni 8.136134387320872 6.555043411258406 3.92325365298889 2.7983544850715223 0.759457336876634 1.2615338775721114
Ni 0.03790237129261803 7.486313807697446 8.434640177442194 2.1597024871104353 0.017149772306409176 -0.6893235561740259
P 6.806438029896761 0.6241053333077711 13.553305813022472 -0.11226541976533569 -1.0860859116110197 -0.7665073017448799
P 0.07236785330849192 4.96452795027608 3.913824479270565 0.19031588421185933 -1.1219453445117902 -1.1817708013098551
P 9.28957881034824 1.5402140310220092 5.957170967617112 0.3201193128609584 -0.714357359214202 -0.45042976305346294
P 6.985278181047614 7.342527113890302 5.825382909088534 -0.19889694101265099 -0.19636568995036502 0.5673663630422229
P 8.385193984322367 2.7243982168029035 10.041104117532184 -1.2530806045984355 -0.4413540260044399 0.6758206365915845
P 3.899223560842487 6.47918802964972 4.622696724554525 -1.4083721502163098 0.3977820549507601 -0.16654706392703575
P 5.064811971900916 1.1488212677383238 7.506167118168919 0.7610421648652507 0.009105818956010123 -0.2627065792694443
P 8.393418136834521 6.6241750558645665 11.636779132348243 0.4802661296886051 1.7199924244673215 -0.4547600149977007
Ni 9.036158630771887 2.225472549463488 7.987724538224684 -0.8038695444434221 1.1743935350091774 -1.5332840551010627
Ni 3.500338097607591 7.179441325590554 10.463368867686182 0.36181823526164136 -0.6090025505257706 -1.6157694153904885
Ni 5.36153789412394 7.540019305345233 12.638255846002217 -0.3299085310372383 2.1335551392911056 0.8576017438595553
Ni 1.9642126988493216 1.5423896335109712 7.172813240076768 0.27700499816998747 2.209792461788291 0.7376980908226715
Ni 8.317778439955346 9.364683984202113 1.3151713975312085 0.14850563304429262 -0.8740714593798043 -0.603067158877942
Ni 7.544614327843472 7.794499153375262 9.53713330304164 -0.9136186255448072 -0.10749010986387939 1.0152401924430514
Ni 6.50421683586972 3.4707236464862867 8.990504737852646 0.4526290846976269 0.11599017691509056 2.007417846639685
Ni 0.8049325972491894 3.707554857084305 9.435979040421218 -0.1026464086183329 -0.20669715378336015 -1.76313810661686
Ni 9.051622288118 6.748268796107828 6.197922013734035 0.3621223967656215 -1.048928328724116 -0.011618558075534828
Ni 7.028321350980099 2.6196504590369223 11.99542907817305 -1.2066518808222508 -1.3300720316528254 -0.2508828471616389
Ni 0.007285455058942785 1.7682021677101505 11.790266950184833 -1.2544859695863944 -1.05506195242568 -0.41558771567361336
Ni 3.329121932765041 7.649877853440887 1.618307845019123 0.22344249156249904 -0.04849100562185197 -0.4002318020428333
Ni 3.9202575107680997 2.760717649732863 8.643823418996215 -0.01699344923420299 0.7504579615915011 -1.1486102553974864
Ni 0.8614813822877231 3.7094491316652114 1.2192301410470563 -1.2485667758884818 -0.9457684708044743 0.5186141333391843
Ni 8.847753330747148 5.650499166084634 1.7030466242045068 0.6556253925906322 -0.22501677802815442 0.2054475976469752
Ni 5.74025214635126 3.5578508996110614 2.3433620715744334 -0.09072703147292761 -1.2492432331302161 0.7131049748643397
Ni 2.6232702114539026 5.34709639484376 9.054436504958248 0.7545835537241005 0.4105650656480413 2.1537825220815745
Ni 1.962234025895998 1.9625716193856646 10.5203827815327 0.7809345329138034 -0.9070877664048249 -0.059666819733013375
Ni 3.550086249348731 9.305970849790938 6.585270219459577 -0.8883228270924959 -0.8255573138295008 1.3358225609833576
Ni 2.9801721732099886 4.740375250734429 0.9372326725704285 0.7879662429496042 0.008197448209127817 -1.1779550271081907
Ni 7.010428896027772 6.2442698488264785 -0.02063540205586768 1.1712161657224602 -0.19136643696356076 0.11017125624046832
Ni 1.8683924133656333 4.8305127124753975 4.908946933241259 1.015295214050703 -0.25570058026525644 0.5892554498058303
Ni 2.1730142722080807 6.827218784705123 7.02053325672543 0.3875115262626875 -0.480445849799579 0.1371567836903767
Ni 8.743962087868555 8.735419097060605 12.525820334268772 -0.17383948382339093 -0.8532750914597433 0.32654912764670213
P 9.498567935645703 4.780004975382508 7.683934472230387 -0.2580335992738072 0.5477524454660373 -1.8348672568310462
P 3.53712641038431 9.232506755400724 11.446041623965725 2.487742083259735 0.21928373219911912 0.6310484745822165
P 8.197838975154369 4.263965193636385 0.03239303309319869 0.34974459192655893 2.0131197821204685 -0.4715436622139427
P 2.0660627791623316 8.44186280260167 8.443740197508095 -0.21684838328474912 0.27944368951846715 0.22420508076013645
P 6.447004116968176 3.5949205402958357 4.635652812480173 0.33022374828481194 0.12293549788467215 -0.5806828776454709
P 1.0649667959439277 8.930510623700126 3.200794207505545 0.5081924237852281 0.38563693494779394 -0.5841345836394972
P 2.007865412582593 4.037899464319956 11.003696625494422 2.6989924036314163 2.3979167376654704 1.1492525169671755
P 5.5230951341232535 6.411012899930948 9.181159723382136 -0.6112090712587861 -0.31731475353262767 -1.294716534971667
