# total energy = -340868.92656950036 ev
CRYSTAL
PRIMVEC
9.26092281940590 0.00000000000000 0.00000000000000
0.00000000000000 9.26092281940590 0.00000000000000
0.00000000000000 0.00000000000000 13.55429665462432
PRIMCOORD
 96 1
Ni 3.5525270627341583 8.288127763222944 9.197498529453075 0.23905525839909153 -3.550783711456782 0.42756802796394106
Ni 4.076963864841469 1.1227016814612518 8.996772656361992 -0.7112854051570976 3.5131270774462724 -2.061443923147153
Ni 7.070492361258028 4.377823466636665 7.109879066291886 0.9739742438147291 0.3292986653673812 -0.9952861179186276
Ni 7.033096754644642 7.6927708136551844 0.8562408516335521 0.5255180595478691 -0.2941560560279773 -0.25457006620523903
Ni 4.770699598226459 8.101631298146092 4.945976455227006 0.3665524075125171 0.32271201328879906 0.9103993472765611
Ni 5.2000082004495 6.015821419316814 11.763828061880007 -1.440729483501093 0.033721046401529016 -0.2496086084349056
Ni 3.9867532150096276 2.4428462388505237 0.0019003413761927647 -0.39452806678983665 -0.6987021691754483 0.11369238201984937
Ni 4.578007575738921 4.060007115037331 7.215941637827572 -0.6101374354611621 -1.2602789221190875 0.3991773926363899
Ni 4.091484991926606 3.4544724112179352 10.08618595050977 -0.09902706669819074 -1.9640752179879917 0.33643141975742064
Ni 5.3756879075955855 1.014580406768023 4.262988948943426 -0.33297122912296206 0.0959366006983251 -1.209143022675221
Ni 6.343472871021006 2.6897702257580662 1.0882158568186269 -0.1538738393347414 1.3321260859683766 0.8251125129825982
Ni 2.6902147500565907 0.0867405820264829 7.235296966659166 -1.381695412256072 0.33301725186954906 -0.7388376037437534
Ni 0.5166863357440757 2.5447626952101796 13.681842983308279 1.5340723553303128 -2.0922724784922355 -0.6843536137632601
Ni 6.76615065245772 0.20516463343030833 6.26895670720395 -1.9216443025172907 0.616305769055403 -0.061499759176694084
Ni 1.2367592077243612 1.5557053919157786 2.9679025966989023 -1.208277332240816 1.631676316428732 -0.1994762105548887
Ni 0.8855590813058284 8.741551808640946 2.1432868706285118 -0.2943226635128286 -0.8866099581664473 1.6095820556328535
Ni 2.197533652525133 4.876635295118608 8.118115740883047 -1.218750463857998 -0.03307312840488497 -1.8639078670377704
Ni 6.745406185193239 5.96332124747648 8.805169718405839 0.5640712372307188 0.27348412950092255 -0.5910264256633241
Ni 2.847641178194509 0.2553227178727919 12.480470688023344 0.05426750309431299 0.24793816271101818 0.006784112801368961
Ni 8.451638617696918 8.318596199517652 7.279972584753179 -1.1251024020835334 1.3970068458021618 1.92972605108416
Ni 7.753170552717218 8.027673567979058 9.621124629393309 0.7959235501234679 0.2998173680788127 0.4332748485407312
Ni 7.120834738065941 4.893730958766034 10.836632797371328 0.03588231571890595 -0.5459495879293437 0.0008440931678501592
Ni 6.873410661322558 2.1250484090969617 10.792798997167646 0.1829494165444591 0.8884585813394118 -1.4659172956206301
Ni 8.955793998684042 4.374313576862898 0.7084476354815781 -1.9695557814865887 3.129033832836514 -0.05332082291032752
P 6.648796237647221 7.064037498006534 6.134945596490816 -0.24406325313664423 0.9808938537526979 0.961395378708454
P 4.851741934401229 7.1289287846682425 0.2918496499194757 0.309293425890048 -0.6014725606973125 -1.255061125363574
P 1.0030412968521547 8.35273196127519 6.116078318295313 0.9628817334459934 1.4709692562222407 0.09624461885704715
P 2.0645097561916392 6.914010547254474 10.13141629788465 -0.11636170132189638 -0.5634659995465522 0.22256677382576506
P 8.506268801801017 7.623536154159974 3.374057965614831 0.10199154864315338 -2.246660538459234 -1.3040735507065346
P 7.916162795509579 2.1702509737031845 5.4730628073719805 1.5292386813870953 -0.11495427945140847 -0.0882122354708739
P 3.3554083191071458 7.445504172600862 3.521365909407582 0.4612314816546573 -0.4074861696124014 -1.5651271677535885
P 7.724887694223589 2.723368853988219 12.742502944526992 0.3131922467238219 0.15937754276179003 0.5389338187331428
Ni 8.765444989686644 6.834811134734004 5.7219602969465155 -0.39843820047752027 1.1182552972547126 -1.7065054457244804
Ni 0.6353826582807476 9.4994842594712 13.429001266676629 1.141205992513615 -1.3546936868562476 -2.4618860414285795
Ni -0.08204622021560516 3.7613516128889857 11.437536113655469 0.16635371696930706 -0.6096949486071047 0.3827891810863536
Ni 2.371416740631348 9.064933974894723 4.338472879202062 -0.23785943831877748 1.2130374726336206 1.0561191900456006
Ni 1.9111766559693022 4.303699039857684 1.5024124850764078 0.03658371266130474 -1.2793436520600223 -1.6943374429033788
Ni -0.19014156432475326 1.1518272839375006 11.252411191258025 0.40068277353732284 -0.26204323465383256 0.10239855427358494
Ni 4.556049927576381 4.675413962653129 1.029305274156651 -0.11792287516142916 0.39540249897498997 -0.8122436274397302
Ni 3.1900545409788714 5.412963122211452 2.9877469022588725 1.5371545938000624 -0.6583366208742081 1.914075746141413
Ni 3.368762569908656 2.6397612421740457 2.309312991758304 1.2489496131491975 0.4603542212560265 -1.495808683863424
Ni 0.47669489244576574 1.235471939443217 8.06778818155175 1.7823735578077047 0.7801652588479467 -1.1455118189778206
Ni 0.5381318548710231 7.907383440613718 11.44256479478253 -0.037007430462284656 -0.1052463081350252 0.05403224715505533
Ni 9.381963148048753 3.6267348378191127 6.5480670316015415 0.1762851171504061 -0.34440158244709074 -0.3709456514842063
Ni 4.418395569799923 3.818787856627522 4.703584763979838 -2.6384668354425336 -1.5924842196103024 -1.7168852462969078
Ni 5.274503064143918 7.939000231346282 2.2987685049603845 -0.4697503177589458 -2.2629767591207544 3.5784716642903533
Ni 5.55500715743584 7.905623865265391 7.7239699367655925 -0.5154023112701059 0.36099034004370734 0.40494849079221223
Ni 1.9428397513162958 4.594862455391312 10.31164774862917 0.45717248109393527 0.3789302123515797 1.5741725657853083
Ni 3.371670499694838 7.053554133299661 6.854380390884261 -0.5939371715522158 0.191562869245083 1.139895758342624
Ni 2.831323432069501 6.812492310578913 1.2623749204268426 1.024664828191061 0.9779545686187159 -0.03354209762150352
Ni 6.775337487960563 5.410564543183996 13.39472196061436 -0.23019909356004228 -0.17943291875076842 0.6918607207735826
Ni 6.598824297754744 2.018788579903805 7.955152206951632 0.3498116977190685 -1.0009983378120568 1.7493590505548968
Ni 7.771599789260217 2.081707289990811 3.1379414757151682 -0.3343801936553467 -0.265735081683123 0.5007010005041893
Ni 2.5463926176381033 2.6621171100206804 6.7958124623690646 0.12536801858556473 0.1393224238831278 -0.018479289751110108
Ni 4.53223083391377 0.09363719129963471 0.8816380065559257 -1.8243262480904068 1.8259347302281068 -2.1855446449845197
Ni 4.986664319926339 8.454555808405985 11.847268977082233 0.25291941797569345 -0.4393498510902175 0.47792076938488015
P 5.445330047697777 7.278437123738692 9.916377668473363 0.39153658826168053 -0.07290851523426799 0.6802174801076994
P 5.898161394051078 3.850182385210823 8.813736072075324 0.6881485620293181 0.6138629639418653 2.695078156178675
P 5.595116214454802 4.317118117119397 2.8678179508860837 -0.5655213394136841 -0.27128995006308115 -0.3559185819477548
P 8.585181125712023 5.7595716830631405 12.33549464461327 0.5186812391316938 0.5640162156230674 -0.5717845467145766
P 9.278518639412919 3.644432461454124 2.673070003517869 -0.0482979157744394 0.2109505297430754 0.6320172662533889
P 2.9637453684154087 4.972143192841201 6.066374945166528 -1.7088937434509988 -0.15029177841043792 -0.6787177556337214
P 4.485648391797544 0.8469484416098103 6.723039204239141 2.9829031277823015 0.7155801758777095 -1.0362800438324862
P 2.134614942438127 2.597383259048032 9.097156429984027 -0.23026388535970665 0.6123974351399324 -0.30546942415826744
Ni 8.114022412967467 0.7095793202582387 0.9551512124244353 -1.3937271466096255 0.9781913672198701 0.8643431763484468
Ni 6.586720271542834 6.5620306511289455 4.111736778093557 0.18185284104617067 0.640688825885458 0.23793040076602895
Ni 6.713381913853693 4.033233786974108 4.649733423490446 2.563143797229502 2.0900890976876716 -1.9324498777732269
Ni 9.187743073285036 5.974175049098789 9.803727802488915 0.49615297612219067 0.025477575445814183 -0.7453833752820712
Ni 8.955831042375586 5.104361388883619 4.575646040403009 -0.252592630763894 -2.0106443239967824 -2.370661244383627
Ni 2.307896070556757 2.4461616492436864 11.756102600008564 -0.5171465476547222 0.921282055627336 -0.6589115195410716
Ni 6.218533760366928 1.1898433723842419 12.912948378057951 -0.5524007428713261 -1.506854143044308 -0.8715276099120282
Ni 5.925981206400411 2.605264304423958 5.9306283375045705 -2.2273528392695576 -2.9727691246720935 1.262003618119678
Ni 9.67710876042333 7.243208573080615 0.5873008727492894 -1.234520325097745 -0.9101535498143422 -3.536477065026122
Ni 7.244162448137866 5.558026218296654 2.2779758808968955 1.1787461555509184 -0.559458935269688 -1.3424128126063655
Ni 1.1227016814612518 8.205844463381458 8.495670601650358 -0.015599911320786036 -1.785735532301402 1.1511890718682563
Ni 0.9417988138075019 6.151642114361859 2.3429282896496515 -1.7438116383741065 -0.3901803313441022 3.34533585669949
Ni 4.230371052446893 5.445172612008715 9.144514937438094 0.48013860297180533 2.852555653704275 0.31752301288869184
Ni 2.934240068100837 7.179373031627901 12.552485476568911 0.17431642345980947 -0.10027379462109828 -1.4432964728973208
Ni 1.6589924648625518 3.849228510153573 4.107480457935184 0.9154698198209331 -0.06973320283007992 0.9651561313024668
Ni 5.453285180456789 3.5584633143040394 11.996447627297943 0.3922343856596535 0.2493782375916544 1.1935847632256478
Ni 0.852678174599335 1.3649581632342855 5.6081583721550565 0.012150519319604881 -0.05878081758363425 -0.5609573741920855
Ni 4.932302702585931 5.737188032447849 5.751332239971529 2.0271677755731026 1.5381465253996867 -0.5925600886990311
Ni 8.346684578630677 0.002308748075462262 4.651428172378571 0.9314525684024345 0.7634913977366916 -0.5354741423193164
Ni 5.87925058951801 0.15387486421116411 9.785579171909358 1.3224402261391806 0.05222964672867779 0.056401518718180284
Ni 1.4997508958389916 5.381040721023653 12.557432661574573 -0.15883555421539097 -0.4308862937038966 0.8543955782174318
Ni 1.9121860965638686 6.717308545157327 4.990448333017529 -0.5744181276826817 -1.5290440488777859 -0.6974770385190955
Ni 2.0522760770593265 0.5995910435112066 10.02338855851257 -1.1473290746922173 0.30595253444227305 1.0822979053234973
Ni 0.09262034196675964 3.4904233138611143 9.063649484890444 -0.3287397075401178 -0.11437423857822236 -0.33743183599747695
P 2.2266314722327243 0.8029257185792552 1.0529493363767182 2.0490668896390387 1.4296742541281957 0.336068379991047
P 7.963560198839767 8.477245069476513 12.641983961430823 0.41833853894587303 1.1164732656536256 -0.16047103293628492
P 9.058877331327325 5.665443662850552 7.413021485578464 -0.20936261643066523 -1.6936075067158896 2.36608853741128
P 8.11929187808956 1.0484198189932101 9.214359891751487 -1.850471796137523 -1.0489291000550645 1.6986674377373003
P 2.981748602505656 2.009018306259149 4.167729243954176 0.11456707131531882 -1.2045788003433062 2.92238810111638
P 3.473559173285836 4.327369958754121 12.45516521623754 -0.7261073006612785 0.30607234784958903 -0.2659446265907678
P 4.350105524439078 1.2191912370097526 11.117654576252574 0.6260561635739477 0.5432902959296256 1.3206065153645514
P 6.299502009158612 0.5591522976375062 2.0653497218973933 -0.008775946420417144 1.0685615295740114 0.8623901663871341
