# total energy = -381168.48669911234 ev
CRYSTAL
PRIMVEC
9.30041729419758 0.00000000000000 0.00000000000000

0.00000000000000 9.30041729419758 0.00000000000000

0.00000000000000 0.00000000000000 13.61210081064256

PRIMCOORD
 96 1
Ni 9.484565764152329 7.363019627499964 4.800089627033104 -0.21535765767183554 1.6398002310874469 -1.1081896854885949
Ni 3.520412632063608 5.172827109297094 12.511658210969046 1.011158051953878 -0.3470444193865765 0.7072500587454594
Ni 3.649232714824222 0.8290075943252994 4.863862589814819 -0.3661227761742662 -0.6807790090381244 0.16004140159803404
Ni 6.934995813420912 3.688340970402041 6.545352032229609 1.2171391535068201 0.9005152553936299 -1.0961016439758091
Ni 2.9685351581677115 0.897668856543804 8.930096263899824 0.19747177853035025 0.3491570948542051 1.033362355965059
Ni 2.5533738214879746 6.252131259487438 6.858130652927687 -0.8349102157993106 0.23568994147128444 -0.19549691419216655
Ni 1.6999117093942284 3.118634596163058 8.879105794926945 0.8172040567687991 0.11628945332306423 0.6678764420438433
Ni 6.665525516842612 1.4635229978552406 6.464032901796736 -1.0544297181583195 -0.6019104195656795 1.593264549419753
Ni 7.663702125200538 7.62959749423648 12.078561949186748 -0.1386945604911418 0.787491874416347 0.5742620617207916
Ni 8.967090534580416 3.8043822795208184 2.111427282414868 -0.32843914558056336 0.8846903725462312 -0.5824440833109518
Ni 7.233539215097014 1.9442894795637387 2.5860545585331356 0.37373478419356926 -0.6758826001777715 -2.0930507514191565
Ni 8.935004094213358 3.6818492789886483 7.843986998226413 0.016387697329404035 -0.6704138637537164 0.038048470132289305
Ni 5.572224238318232 0.9923080449168784 10.599171509038685 -0.7827774996598131 0.680852542588537 -1.3583685646046735
Ni 0.1219405639375666 1.386952660596694 12.334047207973759 -0.33297791399118143 -0.3256587546219488 -0.8719387293075177
Ni 2.1718799961499045 7.089317640960212 12.905850826358472 0.04914997936208955 -0.06339620486845855 -1.1393655968707668
Ni 8.214928569871596 5.979461619289931 10.55757260165498 0.02277560313361884 0.07496051266729026 -1.770215582288932
Ni 3.7859581524578787 8.83734971048753 0.6322600522867494 0.7712520155187169 -0.20240932504128364 0.6163872730256158
Ni 5.082817668754372 1.5480358916568218 1.1403074486412448 1.1039944164603244 -0.9280448282724663 -0.04258055367468796
Ni 3.8699409224620904 5.350985906882994 5.127882841739468 -0.19213751080163038 0.36385943406138627 -1.0356809767959065
Ni 6.80261367075868 7.112484980946978 7.481496715961389 0.8777486511210755 -1.2894763696186502 1.0316422879501588
Ni 7.9722155744341725 3.330051686720727 4.2095149760127875 -0.4839312372450182 2.644824402229445 1.830657075404441
Ni 6.484325482734964 4.373112109922543 2.4981609629711414 0.9615946392034537 0.25734120119247295 -0.7925662036154608
Ni 0.9144988920476381 1.9667313869856837 0.9620593670473657 -1.0016259440937267 -2.0543510208561133 0.6919684499960405
Ni 5.287101339091307 5.616977847317154 0.8863260673636116 -0.6781911937062901 0.4192453670308586 -1.1570925818368847
P 3.439778012358567 1.4188902942837884 11.126122933999001 -0.4275127492459734 0.4175659224459066 0.26002877532696506
Ni 0.5519063051901391 2.138119480633261 3.5390376481444976 1.6353079996440483 -0.4200606638433024 -0.35863675220986624
P 0.25211757761109443 2.5677429665219176 5.916404788655539 1.2596533727199466 1.0724392673618628 0.673298384390363
Ni 6.974522587786128 6.092126876857043 5.246131139930449 -1.1359213470759082 -0.07542588233948301 -0.2125937217734532
P 5.6677767276895805 4.373381822029977 4.448080915287986 -0.2760632030820085 -0.6252046142069297 0.8806653105472382
P 1.5733702289205507 8.851365439656561 1.4307818080963448 0.802766026966598 0.71943605928869 0.18494176438413956
P 7.7937870647408385 0.30850786898313637 11.06116602806983 0.26620739333385124 -0.12500266482634603 0.10479122287547758
Ni 4.446101786444476 2.9209449218319916 2.915072638223945 0.8721531593111688 1.4145641379596345 0.33723771770879984
Ni 6.323363157102306 4.7173670635998315 12.549799223127103 0.18255038133382756 -0.5275307191025238 1.2232550365965709
Ni 2.586808822392199 8.524037245825083 7.256856291805493 0.024824001022215315 1.4444275011779704 -0.5014898149540719
Ni 1.0367640405558745 0.3552582776188145 5.958207375182441 -0.09052468565413442 -0.4530589731461939 -0.9506412255157434
Ni 2.039135137205262 0.21532977619895036 12.92541146443963 -0.07172092268407003 0.6552001321277555 -0.6348956162424485
Ni 4.931090657696929 2.4046880469522782 12.631295061492432 -0.6455153007398238 0.6778003860257746 -1.4190306583714207
Ni 2.8120184320989536 6.734553215510526 1.3539361784798662 2.622149586339748 -0.3400476763537692 -0.5010311301500984
Ni 6.241714791890016 7.953382229001335 0.7861847519988993 -0.09326188207963937 -0.04050927296795604 0.5938690373184418
Ni 4.964581461106139 8.94598788727814 3.164582378768685 0.2733180362367035 -0.19497420891947712 -0.7082116513277803
Ni 1.049487011692725 5.30834349265605 0.7383675854762352 0.38519753341753016 -0.36379618492361865 -1.0457327046049538
Ni 9.158418723343058 7.932223779194072 0.3463717286997642 0.5215662739889727 0.37115725327438015 -1.066781554855453
Ni 4.495393999182276 3.131078554774978 6.175756230996343 -0.07779926766766601 -0.7127085107568694 -2.6850081735371822
Ni 0.3122112952307197 1.3036581214873113 7.894651022545123 0.018084625415852724 0.5637115398984549 0.5510640263377735
Ni 0.82048097156341 6.934288981691086 2.29713708896715 -2.17735928096025 0.48245953779549816 1.8682867128317568
Ni 0.7734329495678056 0.6777111925979992 10.145915662288377 0.3466548972576417 0.886421753415041 -0.09220772978351216
Ni 1.9870527992181537 4.069174466097776 6.558827407142023 -1.4737930988242811 0.5341559377285252 -0.29437639956889944
Ni 0.9552086795185615 5.658801824804303 8.381951047545753 -1.005989620379061 0.2884407508107549 0.4557293208895054
Ni 5.964794860896061 8.49225771923545 5.429826476052729 -0.28909869610972794 -0.061396657939926505 0.9123346166260611
Ni 5.031172450389657 6.390465669348196 3.0266237057748335 0.6877173880291704 0.00978664707311863 0.7654588058757076
Ni 3.93781536936029 8.400155684755747 11.444700365006895 -1.539171367119775 1.17725774393085 -0.439678695184546
Ni 9.331852908840128 3.5746526669101817 13.198007631338907 -1.0663832909757698 0.6867516816817915 -1.113150629038296
Ni 2.8975543718252816 7.101343080784736 3.4743802156587518 1.0202227332593077 2.277638474897987 2.5119608465977836
Ni 5.256967986398766 5.111555958822259 6.959349886680384 1.1085180153622909 0.8668518017029135 -0.23458333867066694
Ni 2.6655554573452074 1.946558781433177 6.703878578519618 -0.8532853758723885 -1.8156971116604987 1.1664017750529525
Ni 9.196317924646177 5.594266227787776 6.11132944886454 -0.06807792661484405 -1.6779422893748073 0.9718176024830424
P 3.4124719865853264 6.199797810227891 10.612102809527483 0.8072531162036741 0.6650163468872289 -0.012209654692314456
Ni 2.269599482798216 3.3663140145442516 11.862020328587848 -0.9980914485779069 -1.672152165055591 -0.8853339196675011
P 7.325966764189136 9.087000817378234 3.8872210981728132 -3.240008301704569 -1.2562839420270815 -0.6068433380909226
Ni 8.682934878773251 8.174006732881724 9.303640092360862 0.10735589827886026 0.007705596174373827 -0.6071313016449866
P 9.016894270280588 5.781204619491504 12.483862053193675 1.312957997680358 -0.0743853568901106 0.6841142440589444
P 3.573406410965491 4.299945725468153 8.043839949667445 -0.24932013066020933 -0.7732412780346039 0.5668056054427464
P 8.486286851201928 5.5943127298752655 3.8165611762340537 1.5473999256771545 -0.8804506234332709 -0.8081033800191115
Ni 7.16297694754198 2.3812230936055863 11.993445458289566 0.5911966326926011 -0.40134457549103786 0.24807777361267597
Ni 8.679205411356675 -0.20808010075949485 2.349544011524928 1.4344678188620974 1.4032507698293446 -0.37059058213763274
Ni 5.922747673388969 1.6733497170208032 4.354892592044553 -0.8686734282926847 0.04655059406602951 0.5477665865334244
Ni 1.3158137671568024 5.602450595185751 10.752688850464436 0.23506156385866614 -0.4316457975777405 0.995728347662369
Ni 2.119202431442943 3.4070033410966793 2.3177049622633086 -0.8754359438274988 1.4491341626250203 0.2453156374865065
Ni 2.992930153264173 2.568710209941679 0.33189934903159646 0.9551547971153808 0.3807418116390217 -0.07327849697917703
Ni 7.745880614210196 6.033608649961528 0.6054367181816389 -0.20625081027456094 -1.0739559611167053 0.2403197269338119
Ni 8.948024678710135 3.2175445362510757 10.604752689579053 0.6574483047319839 0.3139088131748723 -0.4693415123563014
Ni 2.182910291302174 7.640144167678869 9.377185933849157 0.054624115102783345 -0.004970970852030148 0.6181685332957547
Ni 1.7345836658256464 5.374618267744645 4.017652943285778 -2.052402638880491 -1.293716890062559 0.3741225065502911
Ni 4.062915285121824 3.6786220341169473 10.158003414910134 -0.1590777521331841 -0.3902896032284569 0.09848790636526909
Ni 8.33889383469841 1.1683742485657973 4.873282052656488 0.3881753850989315 -0.590032437181171 0.8396083926059282
Ni 7.97699598902799 8.98347787021136 6.880345630162688 1.1724148140162518 -0.34741902911717587 0.4103740326831578
Ni 6.285166342439261 7.855765046945497 9.867711343637989 0.2233846417413701 0.538864141837472 0.011129277143942124
Ni 0.806312715547417 8.031505735981996 11.421600918067863 -1.0896466323790848 -0.1448202137729054 -0.5297158996793007
Ni 5.486111672707048 2.7004785250490624 8.064012555219952 -0.03582652278030604 -0.6446894624044188 3.094376647773961
Ni 6.6401260766564 4.254885202691807 10.404803943837795 -0.42493239011330686 -1.7141562774015189 -1.2435850064031746
Ni 5.938065461007676 9.322180474642522 12.616743628275533 0.04282506558532624 0.2372953382851913 0.2840955864681817
Ni 7.901867216481586 0.9716053155670029 0.4565444743774936 -1.0552427009779182 0.33571151087226053 -0.44138925011774954
Ni 7.393915614427317 7.247164326731141 2.7729483082328743 -0.27674557386101367 -1.6610966785723782 0.36440527926252725
Ni 5.438112218001429 6.799116713779545 11.791046982579415 -0.009654749480944663 -1.1548665207198432 0.5459573012388275
Ni 5.131737864792264 5.666409566317419 9.122068041553305 -0.09726894635650345 0.6327073503418781 1.709339572739166
Ni 5.183969009459335 -0.049023430672115446 8.286638508945845 0.49187414624117864 0.9366585380834062 -0.5869224307972796
Ni 7.512421534182984 1.3385346871036785 9.157323134161828 0.046838814730409656 0.010484444471091621 -0.4601660165046204
Ni 4.547587942179356 7.209562738787949 7.3726409094013325 0.4933317046233117 1.0682866786460699 0.7811893292370868
P 0.45139669329251775 7.613619376975435 6.986111838030009 0.3867044569803598 -0.18662789383731085 0.6882020409750729
Ni 3.0061832481983926 1.253519570757222 2.4748978286841496 -0.764637852636309 -1.6925286718294141 -0.2015811727130335
P 3.8354642747981247 7.792196693348733 5.479768787973618 -0.5545450429078386 0.4924431313707713 -1.5053744731749878
Ni 1.4431736843702776 -0.19569566481956033 3.740618617156601 0.4601909562052849 0.15319429676921356 -0.8751940030200218
P 3.3902532891833257 4.6686886784168795 1.3032563434514108 0.7225478654447943 -0.06612491665353129 -1.0249993287123444
P 7.516309108697022 5.11708970723339 8.566190458091649 -0.5691730772336584 0.6837267788125386 -0.4252095550340935
P 7.279157762923222 3.317403118923858 0.5313644730629737 -0.26520980530727223 -0.39960470998179565 0.22851810631319355
Ni 2.678427235162021 3.2255800969690864 4.485037984298589 -0.08449236341712545 -1.129338808762384 0.6461069115772357
