# total energy = -340863.4812523994 ev
CRYSTAL
PRIMVEC
9.32575290283724 0.00000000000000 0.00000000000000

0.00000000000000 9.32575290283724 0.00000000000000

0.00000000000000 0.00000000000000 13.64918203485497

PRIMCOORD
 96 1
Ni 0.09476270566948775 0.052962815954312875 9.195249261186403 -1.404207991536291 0.9570628127713711 0.07073824705582656
Ni 3.4076767438698576 2.3217954002115544 2.3527643604913617 0.6337373342682892 0.9159704136064353 -0.4921726513182041
Ni 5.406726487202476 9.04944950753953 4.650835977862696 0.44619181371271543 0.14954461583176823 0.12573440078604797
Ni 3.940139932299117 0.11289290191134922 2.8292161443384263 2.6065833564703755 0.727153996758238 -0.2050087103373437
Ni 1.3803699692050868 6.741344312607051 0.48119113147841797 1.293916664778191 -1.2397985427775486 -3.295001370110996
Ni 6.862271350654589 8.96013677187351 0.17065008743921337 -1.1873274694620262 1.0980227722579219 -0.2843570676596845
Ni 6.066747324001767 9.254326973327016 7.355475917037984 0.18646874255162724 -1.532745408988773 -0.19413808617142694
Ni 8.818851615212742 9.237456686303958 11.689896559100378 -0.9255225760712447 1.7558266605571116 -5.145170804516752
Ni 6.635273198952953 6.844682980657083 1.138169907676869 -0.36411140217119226 -0.53358978081241 0.03561234988697092
Ni 2.7698232217492884 6.195386759709929 9.298751129912445 -0.7996693903191454 -1.9401279631437747 -3.1738139652656825
Ni 6.444589529101947 6.515316039208565 8.015140510075927 -0.935840413057485 -0.9782070509491541 -0.37289017680508685
Ni 7.960462688160564 6.332326115512354 12.955121457065168 2.0669882500041497 4.0200123523843025 -3.3493382929906637
Ni 0.3871856769456203 6.56499432498625 5.703174453436679 -0.6073997248150249 0.18523024215883585 0.12790158364069587
Ni 1.013793273626109 6.120873993919859 3.3098579889701565 1.262437363222987 -0.3103318944568913 1.3010540471539207
Ni 0.7995760662943467 3.815697085402661 1.9536622364710796 0.004536197307456704 2.4753100281439693 -1.5188583665940358
Ni 8.174796467403763 2.645091276512471 6.631768581007533 -0.12481137475114634 0.712550130802134 0.566507100365721
Ni 6.879169614936392 1.908795106622193 12.644192461704703 -1.9768754550764533 -1.043765553576254 -0.9340480970437526
Ni 4.691245397818259 4.5813134224573915 0.8534817158683563 -1.4226787966469692 0.34462989640781294 0.17060375049491264
Ni 3.799470275330731 0.5811016527569317 6.550993572135107 0.07962680779470802 -0.9043739670180876 -0.040076042085279366
Ni 3.403265662741109 3.0445599026223085 7.069170639674027 0.1645791415673875 1.4153699216903817 -0.8898369497441772
Ni 9.134910707251693 0.3079456870029873 6.905312498082737 0.5217495936443723 1.7707876527423183 -1.3284249829677057
Ni 5.064135628120626 6.918160587873598 5.997641629751758 0.10425051988065916 0.7222452466027109 -0.05436983300013217
Ni 5.8007581993629245 1.8552093303731647 1.7598712257488274 0.7239830552294242 -0.417780609559874 0.024403882765661196
Ni 7.886723959862431 2.8650298332575255 0.7698782061368407 0.38175482628456836 0.06145553620231997 2.3238612533109526
P 2.937472281900486 5.334731674699429 11.110570529698444 -0.5011468297923563 -1.6897878758594835 1.0687458776706755
P 1.9360542823924525 3.069151913058906 5.1929270736013 -0.051780989227033405 -0.2916890825447234 0.25243270814726204
P 0.8627710983468905 5.953514032109024 7.786448801644944 -0.24538428594091288 -0.6812497780269557 0.15131044948293942
P 3.4756894598782395 6.4251173570156315 4.4070747852965235 -1.2570033366916094 3.2937494999817662 -0.6176363149413685
P 2.522802678539357 5.157439786034223 1.3403009392309178 0.7914202629364757 -0.1451922524003435 -0.4264956208353686
P 5.140159165882909 3.237472427419977 3.331423792585868 0.24549098672210629 1.1517472583645714 -0.8530267228943632
P 2.143319140926155 8.732392559938683 8.500983327108298 0.6116592714223272 -0.9618345231284016 -0.4956423550343593
P 7.365190553849438 4.70585885263591 10.670493845095956 -0.6112476378062054 -0.39191813997081537 0.5302468324821061
Ni 4.60250153308005 0.48115476104204985 9.615384688330955 1.2135874315998196 0.3893017853938908 -0.5441696132107854
Ni 6.505990286293662 4.618914858210277 2.2443627411838296 0.6812973434354396 -0.05176556260806569 -0.5858613365226167
Ni 2.7475533237885017 3.9008785125273784 12.985163437505234 -0.6817578280116259 0.1608423002327746 0.6188071953210181
Ni 4.197885091361186 7.635646714134518 8.142324195754073 0.03656417227727896 1.4704974587921449 -0.3876979312418807
Ni 1.1156304954568417 3.6920096244923126 7.314705590444614 -1.3566888629094056 -0.08388635440201037 -1.7635479404607695
Ni 3.5151933492257657 6.338742233517806 12.911853693841186 0.8966789123666751 0.7287732775292158 0.28380890846569834
Ni 0.2911574666055803 2.2177759521987346 10.660311055488174 0.5914935951077297 1.5878477492795555 0.9246941666326783
Ni 2.745054022007308 1.4523927589668768 8.4517778570034 -2.285622007324096 -0.5564468879162416 1.1330208855996615
Ni 4.786452009326497 4.3609831840899105 11.84983788446741 -1.1057666778693989 1.7768310307229207 0.569763916740122
Ni 6.403761382840505 2.155796998326294 8.143019896921524 0.36801587943192104 -1.2023416834826712 -0.47940583857083885
Ni 0.4426692439128312 5.169945620693107 10.819092257192592 -0.11701656129707588 -0.3700704479681046 0.3968914248156907
Ni 3.6492417216245707 7.768417458383982 10.444449717917514 -0.31141510021874114 1.794771160141109 2.4748431158098794
Ni 2.886460413455971 5.267651533982537 6.1293427101418825 -1.262329634000529 -0.4422749951568125 -0.17778098496964223
Ni 1.2430389317802362 1.9953380936724863 3.126222723172233 0.03944920713455787 -1.8426582136303749 1.6537281540224487
Ni 6.723065836893843 4.619101373268576 13.100402698849972 -1.5773985289217736 -2.386079892931542 -0.5103480366756501
Ni 1.9590422633276865 3.8972507946434813 9.31899267661424 0.3897478717923739 -0.22254749055205544 1.4916923477022053
Ni 4.310857262172312 0.46320828213261195 0.32953667015156896 -0.5170948684811805 0.2926648161944314 -0.8766207081642192
Ni 5.553317997271823 3.7431893564892964 6.309866904767395 1.194015165894847 -0.6491940351429916 1.488894473242094
Ni 2.8530462407618757 4.599368080100643 3.4981076373103734 -0.4156733334088841 -1.8525425626236223 -0.2854461869588052
Ni 1.847161205607604 8.612090347336444 12.570090961618181 1.942925837603886 -0.21187612688113835 1.689951655130857
Ni 4.969320698234815 5.040149791623497 4.613450899577436 1.6811003753878144 -1.88389742278582 -0.9166849231749566
Ni 7.221788451276986 3.7820963976502684 4.323542151287161 -1.6025367187502981 -0.38529883488208483 0.7318277480848235
Ni 0.06767792147873714 4.027475608347177 12.955475835675934 1.2334188645034498 -1.0711375178313036 -0.8470103414969542
Ni 9.003799947021083 8.496367079415421 13.524455874794075 1.3892148605615686 -1.1800985558137547 4.648092231256498
P 8.987759652007451 2.107573530003335 8.584612016372684 -0.18359630609983865 0.6540894155620799 -0.6894953058651996
P 7.125015113279045 5.38092212888694 6.269874345967128 0.40869870186326385 0.045944327940598294 -1.2634169535274369
P 2.186357490628429 0.20839327463640575 1.4163207466920351 0.5416327057215446 -1.0727465141896364 0.1556000779972288
P 8.395947372027754 5.09480802945774 0.8131580928396105 0.3307641941693142 -0.31799198210531043 3.638035639896915
P 3.8560216410066985 0.28293308510992793 11.673530795310016 -0.3741345907351492 0.5644599880287053 0.9291326620200062
P 8.931040422779017 1.6981823027920409 12.939111004460864 2.1157942157632594 0.09943818609368037 -0.4458321163804515
P 8.497150442660272 2.74962364093561 2.8848638445569397 -0.4385540946617995 -0.5375680487338678 0.2515425922328249
P 9.207716860258335 8.13870580362309 3.7003207354900733 -0.4113700780478399 -0.4465201435864116 1.1720222065635235
Ni 1.8527007028390563 2.005297997785602 0.5588970350665494 -1.4405741888701513 0.6798680671880807 -1.3911331606302042
Ni 8.485595834798708 4.411165060525 8.749508114263403 0.23918072823336228 -0.01236777753673354 -0.27060989327692103
Ni 7.712164516801291 8.329016443357501 5.353018543590261 0.3525841182578831 -0.006474809091066267 -0.6107195332168772
Ni 6.142155362071667 8.86564824333972 11.346947591106598 -0.1665367795143906 0.6296919605543221 -0.15696481955523936
Ni 7.822572105560818 5.943955135371249 3.776769527585276 0.3272680080905977 1.4395514040325916 0.7172249105699842
Ni 2.464087738187133 7.884905438044025 6.172351217434828 0.3430370979993963 0.030559875064728015 0.02378527534505581
Ni 5.72210479927864 2.895786166370873 10.674233472014832 0.48428862058443695 -1.1544320042855858 0.005033191548533268
Ni 3.2094578656636106 7.56380111367811 1.5591595737884267 0.8134381619684636 -0.7333398138539757 -0.28111773478678037
Ni 8.21223003960418 7.769312730663812 7.619151322378639 1.2974444754257912 -0.8464408421467294 0.6804969590213312
Ni 3.1684898331084446 2.5487655746544453 10.905491627647994 0.2976540418789067 -0.60087966430832 -0.08817495447503525
Ni 4.199582378391698 2.229852802223533 4.878955085064703 -1.1251913622529137 -0.5010948935084983 -0.2763830483152724
Ni 7.959558090127818 1.584893056381808 4.621667820470757 0.42829770704111403 -2.0406400990279243 0.37398572386211076
Ni 8.361768487594636 0.44195395866425824 2.5180418816763 -0.8106569996789007 -0.12281619869798849 -0.7791607288428323
Ni 0.7816370479872409 7.263940854452344 9.719473146915345 -0.33370296508266395 0.3385649211606557 -0.5421998910789243
Ni 5.971811159328062 4.245716878061719 8.846253475002598 -0.6152534165314888 2.4604022577942017 -0.6002430591655856
Ni 9.323897090072188 4.210745304630835 4.997156205535215 1.6719611320907073 0.047397258337040955 -0.1885870744462107
Ni 1.773254613757004 0.4782973503489238 10.710867827190443 1.7734790835315524 -0.060769822989205025 -1.090272953109174
Ni 7.409739675523926 1.559527008453274 10.246127323853912 0.9060958348052007 -2.19203513780487 -0.7144715161945631
Ni 5.450035283739281 6.7093290028501915 3.124051687893644 -0.7714926707746134 1.8423303979773111 0.4343423705732971
Ni 9.186808522223124 7.144888292740702 1.7571275892412632 -4.6767356060248035 0.7504939570357592 1.4440950575392162
Ni 2.0352616419011826 8.639797159246617 3.4003112642176676 -2.3076435059005096 -1.210799070221405 1.467936125822872
Ni 5.529238903245545 6.455295493448254 10.1948739184089 -2.2410035972837727 -1.346936411508332 0.7109460195398078
Ni 1.4942280865431286 0.8042986275704533 5.325529021723004 0.5705496458662109 0.3973812199679156 0.09280756815104016
Ni 7.629034755317853 6.895480356784556 10.233774431542832 3.4018654163551023 -0.5124545414956917 1.0653031705377136
P 5.9849138421735 8.795397346631763 2.1860935718209373 0.020523316764332396 -0.11365073014863654 0.33523431412552585
P 7.039796383142669 8.628419740690436 9.298300696046656 -0.3925989680879239 2.0661441568362995 -0.9106256043547544
P 4.253625116533557 5.479868367314053 7.735469573335632 1.2536979264674601 -0.14321661673121142 0.8145283097088487
P 6.085473435854891 1.5265884491578392 5.825907889823834 0.35697453401609486 0.2417466891883256 0.35938777144327777
P 0.5282125102506466 7.1165753068910576 11.88007104284223 -0.7286200397808033 -0.2513222486919026 0.2586267527731159
P 4.4692924784435855 2.584651071870989 8.925172659044959 -0.5802473327699491 0.5558043692362363 0.6718063732258688
P 4.956880143846336 2.6915708290403435 13.503708872284292 -0.48383430665583765 0.05130070715650519 -0.5928161705738951
P 5.68579031742801 7.061870440292242 12.357027349921992 0.011940460191327823 -1.1743606248887128 1.4800640194346573
