# total energy = -381167.02481499803 ev
CRYSTAL
PRIMVEC
9.25664323963541 0.00000000000000 0.00000000000000

0.00000000000000 9.25664323963541 0.00000000000000

0.00000000000000 0.00000000000000 13.54803305703863

PRIMCOORD
 96 1
Ni 9.150682632504253 1.05761779507702 6.526317768743555 -0.06662139667397558 -0.5230012066632863 -0.028037879973822684
Ni 6.2397274598338175 9.09387461177529 5.1479008132974595 -0.9428559251433697 0.14337988178195307 -2.7052278430181667
Ni 5.790752483556012 4.571347074612148 0.9867600409502374 0.5198564903867176 -0.2216766579113279 1.1062351328653852
Ni 0.15766285355450385 0.4396007734764011 13.498800196819616 -0.7656513815024878 0.014952764655090376 -0.10813571386767828
Ni 7.1345023836929915 2.5895552561427637 2.882262355030943 0.5427997294464523 -0.06553356292643553 1.5501463780740399
Ni 2.222334954637355 0.2110755374733995 9.757849016676406 0.9271994495530355 -0.07522096541752851 -0.17007153214052645
Ni 0.39496246186465617 6.698819947380445 10.059739631511336 -0.0563441831176836 -0.8551630525110756 0.5408978844380491
Ni 7.60318475383294 6.6854533542677475 11.493664049284503 -0.289470734737166 0.658178240919473 -1.9002162145505017
Ni 4.502116638400333 5.261429842307145 12.629327382111581 -1.2471984347860456 0.3855029804730909 0.055404187801917484
Ni 3.810386188174823 7.098984642852674 7.006608895408872 0.0498824866527399 -0.4413985060891301 -0.18902081954951963
Ni 7.728103156918707 3.045287582124357 10.450695818099556 -0.9507633529159045 -0.04623409126687521 -1.7366038077717576
Ni 2.286872272630239 6.005228911825537 11.446015477229372 -0.11039777042897761 1.266332070291703 0.6202300438104738
Ni 7.3883565731130805 5.206306530682414 9.221062743830057 -0.9267502778307588 0.26138837467865306 0.948356800356941
Ni 8.911777922223367 5.279267394196458 12.616036693475008 1.2932461210737276 -1.1201913379351611 -0.8079218601359246
Ni 7.012360973636178 7.398288951513305 3.7400023741916484 -1.0143004542376015 -0.8644007690592597 -0.4370872803082859
Ni 2.054225053307927 -0.002303978549688594 1.2357609722200575 1.3910259456283784 0.17529884197773682 -0.75764985135425
Ni 3.673387865413107 1.8463948950210318 10.977931086254994 0.9103556385228193 -0.802884040601701 0.2662894115246962
Ni 8.829495618775468 5.582653882609651 3.0390134292076074 0.9755909534825455 0.6055055931161055 -0.2951700991147884
Ni 0.9253764613739015 7.487319348021561 1.771216139741197 -1.1503282665298575 -0.9619502227706593 1.0909722931690438
Ni 4.130434634761738 2.582270277763475 6.507920189926736 0.2573334878829891 0.4403849772229513 -0.3728950619010932
Ni 7.006483005058226 8.9763615234334 10.315797827732073 -0.8618728604310835 0.20552370230054928 0.8348618790598784
Ni 8.184983306685602 4.144680609000271 1.2633392899905969 0.1885063418069463 -0.49562615708444313 -0.5692774640220067
Ni 8.065915102247496 6.846704082815659 0.4569708648725066 -0.5885792496744121 0.08605122326381309 1.6442711223746067
Ni 3.0142222867737942 3.4502564755366762 9.538154618505478 0.9970234123247087 0.5101222938180893 -0.052987865050941
P 5.605314145725913 2.190677234107283 4.796206679816931 -0.3871883385953138 -0.6204856114647056 -1.2836728755629958
Ni 4.391036917242184 0.04057927346775757 6.701060055090467 0.059064667372640205 0.22226029832893981 0.6373633610566507
P 7.019803314953775 4.453871012843977 7.069932667448103 0.7258841289068789 0.3906549569876756 -0.23634685832899296
Ni 7.981670390392471 5.358633854963954 5.236639625537675 0.362853104284059 1.0985493341853532 0.4807664663637914
P 9.273490520888016 7.860380591531203 6.414777066742601 -0.2202718071440013 0.12805970648511494 1.1057638496559214
P 5.769138221147322 1.8546147943867348 10.001957811893554 1.484525911860753 -0.07490806216280002 0.550955011563735
P 0.7957001435651933 3.7476816855810484 11.785840742504151 -1.510846809143469 -1.4518829290147512 3.257372761124945
Ni 3.3660673035422297 4.169682802904283 1.2124416360915904 -0.5085014703852146 -0.8491456426724022 -0.018293913213181398
Ni 2.1621390024130687 0.5638101176754426 12.152911086385997 0.09662128547017552 -0.5102215384001149 0.9134486756258461
Ni 8.379687544588975 2.571347438516257 12.448515514667717 1.0758868595908309 -0.42945804589780234 2.652514314674535
Ni 6.142005075144937 1.5415458569459233 12.14747836235702 0.8445323122701068 0.14190098324358144 -2.337715899805858
Ni 1.0124176052090836 0.4824201546541813 3.6759204830555126 2.791987919423546 0.5834229022844533 -1.989603187055767
Ni 7.67878376072449 0.987017375637587 8.421701597788358 -0.8119356092810082 2.0667931032742084 1.9091515693669185
Ni 8.281270911642856 1.0744000896153305 4.272982315259647 -1.8481549750788882 -0.5428660639080134 0.7545167050419069
Ni 4.909936577989044 3.9192165449795193 10.817901308975477 1.563824389781765 -0.2020370293035295 -0.38731303709863624
Ni 1.9899191514007892 0.7140195219402347 7.518088430782368 1.3253538002415497 -1.6874553710715647 0.6865069126608371
Ni 1.1039195255131082 5.19274554805769 0.8213928830690728 -0.7621382261429067 -1.0404205483634212 -0.10041726217749802
Ni 5.867184588356248 0.2223464265135796 2.4911043736159537 1.0252099020612535 1.3039195416271736 2.4714171208474665
Ni 0.9599972334658674 4.230813676114985 5.141613701079908 0.8275802577968006 0.23685156587955336 -0.5479303658047983
Ni 4.1284259431374615 6.516093806075291 9.944960955638622 1.6636798659185217 -1.0510132362776028 0.960483665527462
Ni 1.879802121159345 5.732361576800545 2.9220807324087676 1.3122069784469468 -0.9478916877950644 1.2605650859009387
Ni 5.601194939399631 3.506129575279225 8.420143704699116 1.784891696243868 -0.4992642680576627 0.26245872492469635
Ni 4.27192242958693 5.8571318735914355 2.7925340076080776 0.920438476680118 0.19191742437102433 -0.14176831432045908
Ni 1.311684887295995 5.052331523870361 7.325692799750397 1.3014793076167972 0.2688929105858143 0.11563510756851697
Ni 3.535408338447827 5.161180393961916 5.369749232394513 -1.2927835796150122 -0.7528236336102002 -0.23093725727764744
Ni 5.874775035968721 6.568671540756815 5.968735520767712 0.9653150254778343 0.33753005213823806 0.8735505538793278
Ni 1.8139503597994224 2.844964561659066 7.774132742037958 -0.24786900003597956 1.073643314972293 -1.2526039220723328
Ni 4.963319640648965 3.3514510635665036 2.9611261800602 -1.789252030095093 -0.29533130728300105 0.7484818117017368
Ni 9.232381767416072 7.930934727753486 4.278278966630205 -0.9342291027063071 -2.138773193156936 0.008035211599650677
Ni 4.313318139005199 0.8054492404255066 13.174771393557865 -1.0271310303433665 2.074938358089162 0.051930884541336375
Ni 8.288639199813014 8.840983113271905 2.3471968921982005 0.020844190438860877 0.6705737863703484 -0.781721547591473
Ni 6.76450508915863 4.619435337230197 12.380097811749044 -0.2602372917933453 -0.7929277007199376 -0.5240386467888652
P 3.292023412746894 7.9985174814347895 12.692177214007204 -0.22398422299858198 -0.13975282655232704 -0.09129215994777826
Ni 1.792317584103873 8.769040480535146 5.602220575491659 1.619445578690495 0.8089675277916196 0.4284434885903589
P 7.952947025829658 8.615296889808837 12.332273363468746 0.6957999079269888 -0.3507529785864153 -1.4619675669442629
Ni 4.509086890903006 8.582111823112841 1.1050358767107478 -1.0123096490598178 -3.5215451263066386 0.9485434624464502
P 8.700189566703953 1.7042776484426108 1.5440016444478615 0.16241170160242352 0.820261098427568 0.060661579546114876
P 2.5018670729318355 3.3412872690805324 3.5396950900201882 1.658899156700427 0.7983357591093864 -0.12914985422550015
P 2.390231953167896 5.658123296493182 9.275565860344988 -1.0040111564964516 -1.0045456888436828 -0.4579834070310048
Ni 5.793205494064921 6.94622225632993 12.915340076471296 0.2700506783393414 1.8328324857892049 1.0772819401661446
Ni 4.253112930137483 7.400695678805065 4.654901240867307 -0.6118096809572624 -0.5998244835709283 -0.4711279148327628
Ni 6.876473448086044 9.009444767051669 0.4587851669847563 -0.9904125918764104 0.018287485455278182 -0.042510362558384855
Ni 6.68835994030472 4.924849030554526 3.3272754879207755 -0.5932308895138106 0.4594108835061508 -0.8577516391738582
Ni 8.223092907686276 3.042982677910325 5.533288203198283 -0.3222803250680191 0.5288800340415666 -0.12783062119344435
Ni 5.600121168761769 4.392027378089177 5.332492168253728 1.1290883833144747 -1.5415619788391386 0.361215568680636
Ni 0.5403482292381557 2.7400590216686247 3.2804128048928383 -1.3779673126722074 0.3951690428079453 -1.032942237708505
Ni 4.621295922559596 8.645936379561627 11.150898874056402 -0.038526181099656234 0.26105361704705365 1.369096492545139
Ni 0.9272194590807837 7.375499095389025 12.929321310707735 0.010499613979743208 0.7433095234721779 -0.9974826113493144
Ni 6.6169264229566 1.6180335016067384 6.551896651533248 -0.5120876450745762 0.767247522345014 0.4432718118524431
Ni 1.660947300547503 2.279337364878345 0.5616829410152641 -0.41935412469458105 0.6798032753884163 0.11989105463139353
Ni 8.799541120636487 8.423767680601902 8.836880568903798 1.2878218647343629 -1.165809392884592 -1.0029279507346016
Ni 0.25603968293387497 0.3413035512305267 10.900530736551994 -1.8926738834268695 -0.0740534274719886 0.5661219491121605
Ni 2.1563906268431343 1.9791073918747293 5.4404838731636795 -0.8468205940836513 0.37189490277135306 -1.0211930675923768
Ni 3.98873393713766 0.3499177836063411 4.514353921014589 -0.30953742358005404 2.6097239589818866 -1.0553177771902276
Ni 0.8599754985490128 4.050901554412504 9.870311680362974 -1.4373613383598085 0.9857864059583087 -2.7935835460454403
Ni 4.488796328504784 8.43819878770903 8.972117352420815 0.07101952574167124 1.0287045454780737 -2.3405927071330206
Ni 2.779390499602039 3.955604410302242 12.04051692186081 0.7866750349420064 -2.742432991313555 1.065981941772293
Ni 2.9097795789548457 6.484408315614928 0.5999434253038453 1.047318561034835 0.59299383380234 0.17635170872228337
Ni 1.8678980777085632 7.352376000101271 8.17052072699081 -1.0475538169740926 1.6373039470281545 -0.6437093578793365
Ni 1.7271970975749087 6.583463656957708 5.2509059643917535 -0.46706017252129245 -1.0134098241025322 0.5766369897108715
Ni 7.062078405497879 8.4945439762665 7.016336701989297 1.0394394153970743 -1.156429494331589 1.511098777253275
Ni 8.642205952259399 6.144633961879012 7.567443927885963 -0.714233689152144 0.919424690703623 -0.45525649501814497
Ni 3.5729255142689915 1.351266294602015 2.278169176477498 0.1371398144095122 1.076658447649533 0.43717752602924714
Ni 3.9756265300409988 4.897273489777016 7.861558036575479 -0.9550151862137229 0.3285972684249825 -0.9647828071234481
P 4.8170369045271135 3.1276809652934134 13.206893797588116 -0.5733886579769029 -0.5041578487045382 -0.6194864807762299
Ni 8.66191334612154 3.0988280077225845 8.083420340637677 -0.7497971880790506 1.7498838127101153 -1.3856870499139684
P 0.5366566798383332 1.7096650149187809 9.186690975446353 0.31843935405537416 -1.1292781307277777 0.2779113120343407
Ni 4.326805068482485 1.5442210268971488 8.558970214538226 -1.3878763442558033 -0.9223647471685534 -0.06725491649291644
P 2.861385847103612 8.30383860832482 3.1668254590295453 -0.647505334586659 -0.042936137241893796 -0.6960202514679109
P 6.215132558240717 6.563552616940109 1.7747651368321997 0.05467939382075099 1.0870094518665538 0.08740619462981075
P 6.412678585677054 7.395299055685465 8.839360423678654 0.6605418560556431 -0.7687814424910373 0.40248357419148745
Ni 6.542558549641219 2.017059629937097 0.7631797038674593 -0.44779798185757075 0.9937542546551337 0.41035912028482235
