# total energy = -381175.3774517264 ev
CRYSTAL
PRIMVEC
9.15098608263284 0.00000000000000 0.00000000000000

0.00000000000000 9.15098608263284 0.00000000000000

0.00000000000000 0.00000000000000 13.39339312778543

PRIMCOORD
 96 1
Ni 3.332340627039536 8.400202313421367 3.607335985967844 -0.23971577480122588 0.046770166276003326 -0.28186206915197265
Ni 3.504452367810149 1.8342418940633383 11.228846144626003 -1.2580407768171884 0.40281421805802886 1.4175772137543456
Ni 7.621965877750586 5.678269042632522 9.629849557408914 1.0141603291153114 0.43693995609714426 -1.1666712266642552
Ni 4.193503295954856 7.8997257494865725 12.298469184975216 -1.2502112534704404 0.8576518803712003 0.47001102761950025
Ni 3.615810713909553 3.5067950201728286 2.9290008621852386 0.49395082626454934 -0.3422819650009266 -0.07345436043540898
Ni 1.4523255020460293 4.285132116687318 1.6005101602670402 0.18653096324813037 -0.17674225929248272 0.28109022398295463
Ni 8.721319555838509 1.006462021316202 3.188498111576695 0.7954589517822236 0.17605937429284516 -0.06079013470417917
Ni 4.7543489131576075 3.2107972337539508 7.98444466084771 1.8945371618878533 0.7777615345024605 -0.6171102672345695
Ni 9.138567903997636 2.479038654919301 0.8380097597636965 -1.8920645319776448 -0.44747376574893255 -0.1883291927991337
Ni 1.406350949428443 5.490344398413821 6.579959597422198 1.2365296422182896 -0.7993963391634168 -0.021530932093240335
Ni 2.434390995241514 8.673926600423206 10.860554655353981 0.8393847066308964 -0.4080978350544714 0.373878251749969
Ni 7.588464118767111 5.000913074329629 13.176713999067934 -2.65703534247334 1.2422110088737832 -0.9820269389158766
Ni 3.1407098335751904 3.2698485450679002 5.908856497710786 -0.9476302066035615 0.6887437724111558 0.3999782912711305
Ni 4.46342077286734 1.8261432716376687 4.702219407496512 1.1019154224441088 -0.5711258300846551 0.38962265906841925
Ni 9.043580671479614 8.199667610781681 12.071532058129266 -1.4268390986722461 0.17148178222449176 -1.4045725739645616
Ni 0.2483339618241408 6.2603540978578485 0.5074203319535491 0.09266281504305976 0.4699976578830616 0.6146754325408317
Ni 7.724630787347859 4.281480873356423 1.9857446997324255 0.20846067344168615 -0.7320732884367264 0.44348675607672655
Ni 3.010143568298972 6.03545032005482 2.9771506041255154 0.1368888747409707 -0.4082238191093744 -0.19439982447324586
Ni 5.4179875537587145 6.079731940300937 12.866992479257217 -0.568216369747344 -1.5013787217520338 1.1075528232355443
Ni 7.075377496411331 7.837965746378275 9.543462421337946 2.7397510736060173 1.0105114195088145 -0.26988355663385777
Ni 1.8209180587505982 1.8180080452688323 2.098825261357831 1.379542113358495 -0.9760252128064869 -1.2244295165206462
Ni 3.7857262180901547 2.5638042363079756 0.4778498364661948 0.717382519193771 0.5780672943994948 1.4253951671368676
Ni 0.7243737333007341 1.3836107497360264 10.947129386633678 -0.49249506765462925 0.5381612022331764 -1.1300543467721698
Ni 0.31803061490959494 5.915242970694825 2.8578281550915805 -0.7730487024078235 0.8904463011934018 0.7418537648622578
P 2.5928494652108856 6.502232954304512 9.56873561389751 -0.9306670963866617 -0.18635844222600806 1.2042604977719389
Ni 0.24085028564367464 5.850005592985674 11.119971376070472 0.6043439687078366 0.06671832726315606 1.4214667786167388
P 3.0375599217309563 0.14146417425557387 5.490393813737097 0.2913029028498983 -0.4375130549917948 1.335471348291526
Ni 8.205002635498252 2.929916875862989 11.594901132970529 0.04890161079670933 1.5757777054888993 0.2912975035332596
P 3.1272487334755747 0.45821639645006595 0.34926750490962094 1.1411409436036346 -1.0968588338568077 0.9268963164903197
P 0.3430247024025116 8.10847803736722 3.10928992385933 -0.23930285563352333 -0.2785530593833977 0.44050967572627353
P 6.372627542536423 8.20786689405106 0.3447871822659963 0.05776008962860375 0.5602850307154092 -0.6038981394196695
Ni 5.9146573076041555 8.87701442809878 11.210390436481267 -0.24402931457491522 1.4684770859280063 -1.7199152913724831
Ni 7.845112666281605 8.22652575408037 6.952188755880394 -1.0217283712705567 -0.9283775290215366 0.42087827464859123
Ni 3.131888283271975 5.4818797365564835 0.49379725940542 0.06933596739166123 -0.04283509288765527 0.9641531439592492
Ni 0.09390192560312478 8.897174049797934 5.2763943506034785 0.2764666091680142 1.0424391214553468 -0.7369447575964148
Ni 4.919432696840182 6.873159012385968 4.438154901096409 0.3419279240956176 -1.797474418004885 -0.3783455434927033
Ni 4.256398021301327 7.590596298456581 1.277324795060971 -0.16084281445340687 0.3187735974663413 0.12190448551699651
Ni 7.655540844620397 1.0604528374873323 10.178188522330124 1.7689505995335795 -2.381142603530925 0.658366188560563
Ni 7.523217590072169 7.399853150614032 4.372433436238877 0.4031494899102605 1.2715938329112746 -0.08639806508027055
Ni 7.12371300336318 3.8650378119469657 6.672132901809268 -0.26149173302573675 -1.2266733182495004 -0.0465433949771779
Ni 4.307680145678108 0.8560143243088997 2.3158518705913496 0.4649467257227154 1.14888896298017 -0.8049038992452073
Ni 5.597740367665412 8.087467373989439 8.078412473548534 -2.027558840363934 -0.1999348953588621 -1.3664562267088145
Ni 2.0937821530880156 1.6128337928327454 4.379585846733684 -1.346319089639307 0.9218214730705737 -0.18844026445570128
Ni 3.791591999982645 7.470324892196045 6.485536065628945 -0.2390436884348657 -0.3601706723558894 -1.3557933476783295
Ni 4.909604538099877 6.723814924265147 10.152700281604456 0.21391244058487677 -0.19643305285319074 -0.5735565510133348
Ni 5.205840250149341 0.8117281285698853 13.019529346320768 0.13630754831620395 0.6471325246282725 1.2471927783590908
Ni 4.17791001616577 4.076617754437255 10.089898896313061 -0.1001904908786726 0.13448000818916198 0.19607721217566876
Ni 6.583402198277041 0.8166028587011329 3.9538499592527376 0.21655527752436254 0.5270221548972214 0.006422358586576036
Ni 2.4699151220849593 3.4578555481587263 8.135227283934988 -0.9512621469291939 -0.4565960397651749 -0.0739896641135887
Ni 8.832989035454831 0.8296960891719215 7.855359025072592 -0.7986674314171922 1.6863436260646247 0.43564977653081105
Ni 6.518338689297933 3.258190189169253 3.9220676704995254 0.1083203190746586 0.2013477165459887 0.5681934869292086
Ni 6.992524471053125 7.049352092819687 11.650551022865699 1.8286485296148443 -1.235932117843607 1.148831627379673
Ni 3.6722539942728636 5.511409967706354 8.038914988674325 0.8274625012720135 0.343594513164763 -0.5717688629852927
Ni 2.2485344738117417 1.3051959524868035 9.233110398606183 0.6974158462638569 1.170541508252939 -0.8605711109005244
Ni 6.945726329714284 1.1523012818787959 1.4907779443428242 -1.14145538952026 0.612292791241268 0.7754598829524774
Ni 6.352907168155274 6.2612234415080605 6.410238094140381 -0.9290038497516259 0.9607454038292808 0.23390276766387458
P 3.148122132066481 5.57758074596626 5.357142649229589 1.6122907128132684 -0.28402925200662055 -0.5472688209613995
Ni 8.573027831083733 2.195467907205575 5.3511295364658515 -0.4543486384918949 -0.37729267674815664 -0.7900578353713104
P 4.382370491710103 0.5756153082705825 9.701704928042634 0.6019680122764922 -0.3843963776724735 -0.9468179951149114
Ni 0.7817403481304287 8.720193984586126 9.367218095383793 -1.7960929642763261 -1.9975553520233083 -0.512505192227969
P 6.976812228448747 5.451525916685358 3.7007016638035743 -1.0761583680846627 0.005555125490274304 -0.45498627207589387
P 6.42584967590105 1.6209873211731651 6.040594089168344 0.2568056404039771 1.1534009919179105 0.1998359078871526
P 0.3463382743576923 3.0089356381744654 3.1529657488460368 -0.8418683922846983 0.32234408842641904 0.024633739388280156
Ni 5.146862146721724 4.441165575421884 5.539922609236186 -0.974491806881096 0.1127187052526704 -0.809861757471115
Ni 7.263311291615822 3.0570789744246887 9.343030209739128 0.9136623342985492 2.625439827055246 -1.736088558698236
Ni 7.77233487628008 0.9207813413483559 12.739915484863381 -0.5174807910656894 -0.1365482035721003 -0.9538265652222605
Ni 1.6192943888016977 4.353535735480402 4.261308440277162 -0.4332925891525441 -0.0876440216722297 0.21263614497561445
Ni 1.2938761830624494 0.7482202871753694 12.880319059865695 0.22981805607153968 -1.0255536585539178 1.9506437750734344
Ni 7.189984442466795 6.721472271902468 1.609778278676891 1.4600924614087372 -0.6093717609397311 -0.4089511841937022
Ni 0.6558484063966197 5.165566761679994 8.824223306164944 1.3168786728910031 0.18919411190259028 0.7565507047528003
Ni 1.8665082699649325 7.9623367942735 1.5409903184805545 0.8949629581168329 -0.05514476349294375 0.5386152590514595
Ni 1.7892647988970491 3.8621094964936162 10.375379454761518 0.19655003804702925 -0.3019400708487703 1.6188354559103215
Ni 1.7550675649934027 7.317896921863414 12.66843530464712 2.217040915820588 -0.032728600581272665 0.11761228589954584
Ni 1.6459420594271774 1.186901159157278 6.844291312607417 -0.3511265598757501 0.40997114081778424 -0.8539721175267679
Ni 5.7315735348692725 2.1280617458637874 10.759274289906996 -0.12008363025817384 0.18432649939764384 0.40702902747032477
Ni 8.48463845932154 5.494736871593846 5.22111965112577 1.05398671708363 -1.7331929823179955 -1.343283902357409
Ni 1.5509731288807385 7.081462901962822 4.734229555795937 0.08993744569209673 -0.2628860422701021 -0.6377811653203597
Ni 6.096121355853903 3.2913625126642274 12.962152665406702 -1.1528710875563695 -0.8407209089438166 1.016930435661281
Ni 8.947074375320167 8.970217218387418 1.1247970789832111 -0.8272814956094591 -0.8861960105574801 -0.2407652991116628
Ni 3.86911000062428 1.1636210513031497 7.352664262181885 1.328515742909299 -0.3571460265969527 -0.40677217426451234
Ni 6.328190355531846 4.631991082136559 10.938571384721264 -1.3281146508161383 -0.6157547816479395 1.909428220067073
Ni 0.28226307184408994 3.5220131095444542 6.9730154844437635 0.43270792029366767 -0.42768989825378595 1.1623438029334952
Ni 5.968437651102076 8.153189753945549 2.8078042912611596 -1.1995705484954373 0.8792524893601116 -0.49304091285577023
Ni 5.214433025807763 5.372049605084295 1.8502707607761097 0.33468821181406877 -0.907260030316631 0.8753683238143569
Ni 8.40511639279152 5.956861654075554 7.30588167751889 -0.2201753907754531 0.8032339677419521 1.9958252567060792
Ni 5.844469246581686 8.70800487151156 5.77482932960814 -0.6811801011312849 -0.20375401199463616 0.22170648270799884
Ni 1.1978640401357548 7.724713146219985 6.978560066734965 -0.19515058659634132 0.9719780393203067 1.093088568181098
Ni 1.8109709371950018 2.978819743933925 12.80836943407832 0.34790162518054923 0.863643579178261 -1.0583311100952548
P 6.171186892303358 5.029372640141869 8.272670515033683 -1.3825505611675157 -0.38373534704970685 -0.236544833272412
Ni 3.1056158030639556 8.294407766683326 8.431341287873423 -0.24251313504070493 -0.10207819481968872 1.5267714507935253
P 0.3225850605381325 2.777205224970816 9.218163178413992 -0.09151147504743594 0.051731881156652844 -0.8384321129096398
Ni 3.300001043251608 5.842648200409134 11.663850150516799 -1.7360016554113844 0.7016782210846367 -2.434086759828124
P 0.25191931805733553 4.3545331929317 12.9721437116941 2.240647499495935 -0.7195250194580705 -0.8995258948971669
P 3.9530977482206584 4.024017888106465 12.305474264598775 1.0778105589761051 -1.3343403200108763 -0.16514427004223817
P 5.659628484574794 3.0658822227563207 1.9013524785640532 -0.5562232019412098 -0.49930669125982396 -0.5404829083878175
Ni 6.287834508190374 1.2039219927298717 8.345811599171139 -0.8653243093147935 -0.4668979359118152 -1.3987438830979266
