# total energy = -340884.919105656 ev
CRYSTAL
PRIMVEC
9.15680346667826 0.00000000000000 0.00000000000000
0.00000000000000 9.15680346667826 0.00000000000000
0.00000000000000 0.00000000000000 13.40190745736482
PRIMCOORD
 96 1
Ni 6.508729229102685 2.330992542961385 11.620820657030938 -0.13854157985304527 -0.7139146152498286 2.059160012208983
Ni 4.698841220275701 0.6768425335036469 6.323783773399141 0.742931828417785 1.123285917700085 -0.21121792447184914
Ni 2.855768955325729 2.2010025595392206 5.058737480590558 0.011495145123793106 -0.43124393415363155 0.1683262673146456
Ni 3.852944863657209 4.852886126665604 5.600938374460541 0.4494900248480129 -0.3620840873285183 -0.8569617962827113
Ni 3.9497780613670836 2.87819396725873 2.8791581786742237 -0.5765889100817553 0.39524489035120314 0.20598110155294203
Ni 5.179472682648621 4.97620995709176 2.8419147115304533 0.6743674490848256 -0.45189606318634434 -0.010726642388884752
Ni 5.52471164749547 3.3443210527831924 0.6764222362199701 -0.0029559973045303932 -1.0121183589846183 -0.34577069488047546
Ni 5.771368465151347 8.055615525908578 12.698294407192908 -0.9364448794107034 1.510975107191217 -0.5783249189362556
Ni 2.5562682242907795 5.282376841122717 11.828470407176246 -0.7065337494047251 0.25773123754204 0.035654001758183756
Ni 0.9129150019176479 7.788154450550873 11.89251766971825 0.08726452684562391 -0.9557883169343218 0.47520851266003966
Ni 0.5538172148737409 0.6329649621763486 4.609103629649077 1.5495275135431186 -0.2933461585321722 0.008882132980978253
Ni 8.667445669774368 2.54766082893879 1.3719528901213556 0.051659890268136846 0.8184369007346356 1.1313198437481549
Ni 1.6002063639703954 1.7636736212296569 2.621989350524641 -0.44704799106542364 0.21664578035563978 0.0740408290664983
Ni 1.8615598513496159 6.589840195089832 0.7554811625279881 1.200881553997377 1.0597349324213168 -0.8670875718628034
Ni 7.64413624406568 4.348291309360604 4.24382133747673 0.44576706747047096 0.34365801941284685 -0.9832731526181517
Ni 7.74256272559603 4.253518392453066 13.03505691897876 -0.1847756711199205 1.2735676688081936 -0.38685563784624344
Ni 8.454549986866132 0.34632679311048264 6.6234502425786355 0.4051624065752313 -0.037320590827329275 1.4114770143938788
Ni 6.855918593109079 0.9071544567943116 0.44331107807919584 0.28439229177299413 0.7792512316741096 -1.1551629689143397
Ni 2.20138714528899 6.950929586909331 9.751925290344643 -0.30273377039465926 -0.3192232834092502 -1.0636165268639102
Ni 0.0581942337026543 5.19955355286874 1.5863566985769026 -0.336786231993678 -0.8444438663213586 0.1048884105749742
Ni 6.948750267660637 2.1014497911702597 6.899329167454515 -0.6927989163171359 0.9198273254586804 1.515731905149912
Ni 3.643400570854109 4.703318897219448 0.9361110167109014 -0.32491776269086625 -0.43877520953367016 0.0516963999330271
Ni 6.073240808309876 6.233759574820904 4.760652391386903 0.0023533307235249793 -1.3682873663802821 2.0302919230243806
Ni 6.049506373466946 3.2767804696807774 9.677169146032265 -1.4181603399513252 1.007477260668181 -1.2198017879406475
P 0.22181898798325003 5.897778138379226 12.868806909115808 0.7598895393180461 0.2264270281121197 -0.22880401298472855
P 4.008454858617664 6.3625225465652315 13.105685176243615 -0.06359032315713564 1.3907932607922822 -0.8274157071944781
P 2.366429372761594 9.076654064332914 1.4996866371448705 -0.05516430387696951 -0.21909501322708075 -0.03456051158368887
P 6.690702386368723 8.261222393178322 6.033069911066073 -1.17911330908235 -0.5036526269333454 0.1080459823673494
P 4.825598852039086 1.373062694713548 12.747733821006163 1.6426065901879905 -0.8320547486283864 0.3719329550981401
P 4.141255980734573 6.515532734152183 8.614585274148878 -0.16936859253623088 0.7828260935095614 0.004932661414926989
P 4.979268329482785 1.1563394679147467 3.9155013985786793 -0.030230516749767292 0.28148874497295395 0.8408566631907326
P 0.20916336977475658 5.967543824748167 3.697961384901796 -0.3314738186418292 0.14860719161916344 0.8854591323914556
Ni 0.6550136294827891 7.967261528300769 2.5486406069203467 1.500905381660041 -0.47405151623746095 0.08284120096694765
Ni 1.8101627129339628 6.493080251808484 5.182437655643274 0.9626431350726261 1.5137549839291995 -0.45237711658782087
Ni 6.256386036432356 5.975647595904029 9.758277364978339 -0.4598767673989757 0.7159321599004896 -0.23306947312930185
Ni 8.71044601932005 2.6901681628356022 10.455230070473517 0.8419555526818662 0.25525038010171525 0.545214509535532
Ni 2.366346961529501 5.49688412145856 7.319746405258133 0.1818780378571513 2.0835335559573407 2.6444911872597423
Ni 0.371627957043547 0.13475243695681255 9.57240615643428 3.4887568761320242 -1.0599637606026713 1.161918285360302
Ni 1.753546196485721 1.4557944149318667 11.579891576451875 -1.0260730213924973 0.23287689750252152 -0.5590856110906693
Ni 4.08109578130631 7.637763108783782 2.0282448093819503 0.08481143731944102 -0.8914012089075035 -0.7949953818822438
Ni 5.533575433347305 8.344109779057263 8.425926734599344 0.3506239092077187 -0.27389833422020565 -0.4732794139581268
Ni 7.290646999205915 0.8410029607928505 4.751753809681517 -1.7964012395453643 0.5270787191667696 -0.11990391014719995
Ni 0.7057011156220812 7.929379831948453 7.361506923600985 1.018826110022097 -0.7100641311554867 -0.2828663420467709
Ni 5.3280235068989565 4.9290341051200075 7.73681408431733 0.3025350241202919 -0.5494822836729504 -1.041508382110961
Ni 8.471435132641735 7.401526733585951 9.62279787781839 -1.1752078033803566 -0.783444958040483 0.4448923781750015
Ni 4.836092548925659 0.4099766503777273 10.366455775582029 -0.34949030982390783 0.6297084156145543 1.7902115657948847
Ni 8.61276123887854 7.74391793252379 4.693441453212863 -0.739476779989649 -0.5236416684607627 1.0141960674492532
Ni 7.29117809381274 6.781775954635618 7.503902544494292 0.4332959315866538 -1.014035887722305 -0.8592295092709653
Ni 2.22123909541996 5.540974130628589 2.99083638632521 -0.02358678618100454 0.15034474313556045 -2.671032942304013
Ni 3.9446502513701542 4.623700490213551 9.729650449990125 -0.901689478207389 -0.2219024007688888 0.2056669127466329
Ni 1.1400403575673634 3.9270050908985774 4.116543599270799 -0.5873849722559948 -1.0632732845918786 -0.09068743648424382
Ni 0.6993957406865711 0.7614138555583642 0.2685992660409531 0.05925544322720762 -0.7479717048345377 0.06948329160280291
Ni 1.1955397439805602 3.219614545018579 8.640692236795745 -0.08595120735083905 0.3670532584083356 -1.1549588233233334
Ni 5.484650631894457 2.953884105534837 5.125224115602533 -0.24623969196267267 0.5884481234131865 0.040737586928678224
Ni 4.189823666848349 7.583600615691213 5.827631528981943 0.5361703970553928 -1.5766547087772136 -1.9788456914289467
Ni 8.333515357331462 7.8833943644402735 0.533817840205359 0.5733655180484513 -0.5529003082155639 -0.7978554770388582
P 0.33715625433918806 6.043710116809702 8.265948219498707 -0.17837028181420894 -0.5287195972043023 -0.5137616903428893
P 8.834584805263574 1.5793196950364734 8.501687380262908 0.05297732352797973 3.3694324926373778 -4.0868054987494515
P 1.970965340355534 3.504061490991114 10.577670269355558 0.18193743034017698 0.34826672182945184 0.4844608844962431
P 3.8363161083814514 6.30924826341856 3.8957465105655085 2.274053842870522 1.722542444582685 1.8927636149271985
P 7.521435076282009 4.539247290924834 10.754641980513876 -1.116192501188413 0.3367090988988395 0.24708147113767773
P 6.509754791102071 8.139244612876361 10.573019528824416 0.29598565303754826 -0.07399377787864676 -0.5290237587082824
P 2.2753191772804353 8.936033031970686 5.709199263020715 -0.10714789603311224 -0.45765713403983765 0.7999211013186354
P 7.082522010955537 4.309265012562544 1.7820385064615174 0.06202914931760285 0.8116679574419182 0.7081345182329416
Ni 3.1284310951088923 2.0232781591277815 0.5771102917847934 -1.4220054247290284 0.4447890198279178 0.05268961708423184
Ni 1.750350472041206 1.2166461762000649 7.296333374220367 -2.254286430435608 -0.1592998954463192 -2.22381088755457
Ni 7.146738674363513 1.0166982135340759 9.513692731969435 -1.5200472446958144 -1.0772634282233833 0.07037212196565945
Ni 3.056504403098389 1.303013147434064 8.980752113545694 0.5428059000940393 -0.16118245718101273 3.0114999655833876
Ni 6.712440638034278 2.3786720191292634 2.9686833314581182 -1.2285283691803681 0.4821391783416019 -1.2658695288329875
Ni 4.302873563673513 7.216751594428733 11.03003834184183 -0.5170789276415805 -0.5518618396487205 -0.6138832756568395
Ni 7.531013092811988 6.651007642910349 11.894527588100976 0.5135971397405671 -1.3084894203860433 -0.40353824070824695
Ni 7.882185666369569 4.0953346108513555 8.442370522443069 0.6959336052913756 0.951210210645336 -1.2087023355933764
Ni 3.2564157385501145 8.92904639084987 12.747210967522546 -0.058018742606629106 -0.6650160897769128 0.8438496843807854
Ni 0.40261824303213345 5.3236648684015675 10.258717740505471 0.17229065127903231 -1.2443038868470702 1.0651221648751592
Ni 9.153717723143911 2.823445438737941 5.910482287646619 -0.6980539940684881 -0.904440558589965 1.1794447242798396
Ni 3.6913639079325318 2.7869647333312138 11.711940009315663 0.8681008436186664 1.5072030417432947 -1.002990428541421
Ni 1.0688187394314383 3.352131806224944 12.765772724031075 0.7572024794041863 1.6003739067710243 0.8209444976478377
Ni 3.161496312785522 8.396733929150752 7.6228173740034455 -0.8362124795505019 -0.5703516709227919 2.2282748368631946
Ni 6.180054921906633 8.168949283644288 3.7313452593425205 -1.7632525207075376 2.386809314898399 -1.0039072839287355
Ni 2.9540947120168535 -0.053786148466008064 3.67454835386403 0.6981311271633267 0.058824012116743846 0.052412709273761356
Ni 3.4591015854823213 3.0149050444982985 7.431907176457044 1.4456289776852393 0.46246972493713256 0.014037966150304856
Ni 5.205340652722417 4.760576389917306 11.967005519686149 0.5815732506702243 0.1713689107957113 -0.3562268572167929
Ni 8.112570844088761 0.2815918546206734 2.3880989484004047 -0.36935336729642193 0.6783572869705091 0.6612900470755773
Ni 4.865421790747384 0.9809042683947943 1.7247718569600934 0.15175422188857737 -1.4839831519834057 0.4961342070691132
Ni 5.992551055286764 6.10745062643225 0.590483803392857 0.22698675727033168 -1.4264405776822466 0.8006811194131114
Ni 8.321748864749223 0.057201636196105785 11.532314656483935 -1.3884527855845634 1.2284399232316199 1.384754767907686
Ni 0.05423208479966962 5.313894558996703 6.178614556705709 -1.4062440481297136 -0.3266044063646698 0.4774811107443003
Ni 7.544675043732378 6.699117488845827 2.663977873276284 0.004982797926572064 -1.3976462791583737 -0.4675669369543819
P 8.621588397516113 2.2738907159241477 3.834928852641211 1.3277307851141587 0.7284120375350551 -0.9406494044103542
P 1.8789211509106485 3.7155287125430623 1.6651335953350894 -0.2504190201513429 -0.5239777116439427 0.023620981853049644
P 5.2252017596569535 1.6392784447862854 8.526440967342728 -0.7089426159565339 -0.5555675706350819 -1.108792094959284
P 8.439139086464646 2.2727552722819704 12.661988596734291 -0.6151621423692631 -3.171697947363944 -0.6901910463806435
P 6.317214682520932 8.094760861152997 1.3497467257935807 0.3223469166398964 1.0769171006275582 2.103098622573462
P 1.8533278849438306 3.8373141999701397 6.298682227783815 0.05524632206781454 -1.5929375050976373 -1.20332667310376
P 6.895402730085438 4.512546051726537 6.2431984079366805 0.07474736821521964 -0.1333194122221575 0.7922561285742097
P 2.3731138393647346 8.854015542430512 10.72363063387709 1.7775188008185645 -0.4252077552618806 -1.7955440337513915
