# total energy = -340895.39802468126 ev
CRYSTAL
PRIMVEC
9.03054616278220 0.00000000000000 0.00000000000000
0.00000000000000 9.03054616278220 0.00000000000000
0.00000000000000 0.00000000000000 13.21711713083268
PRIMCOORD
 96 1
Ni 6.301677630586827 2.0704874916244997 11.49049938980959 0.5280038020842004 0.2282373418479811 0.6543606669455956
Ni 4.5001198023399915 0.1595200818916981 6.0622814652316706 0.11209958361143275 0.3262861037933026 -0.1628621588762808
Ni 2.800381381567408 1.4447248289619095 4.683181614905271 -0.4654056676370049 0.27968768720847315 0.991429463176699
Ni 3.36749064719716 4.026693422132668 4.71459888484788 0.2386287123846342 0.8080100489743567 0.21233892545016977
Ni 5.199779423881677 4.559667223438459 2.642829055674702 0.5578530242351489 -1.129730644884164 -0.6614962495491123
Ni 7.2411434042774 6.3689010158851245 2.6233727440646555 0.6690213542815638 -0.8998781360302631 -0.6145584473469932
Ni 5.057548322531837 4.500842246029388 11.511739234277831 0.5160887958141692 0.05259988558390296 -0.33082898596897864
Ni 5.657691325859222 7.710569252554694 12.141204420848577 -1.0727285164675076 0.48953829901915047 1.8846139892368703
Ni 1.7731206385229838 6.442174867082116 0.21035212293221323 0.33680988614276186 0.005996583903067091 1.2201720267958729
Ni 2.5677003303051875 1.492261623724167 0.31921806554190996 0.41138884710091733 0.37152312125423115 1.4132384771696758
Ni 0.588676918922058 -0.026449566523399734 4.717493174878523 0.11020596613314568 0.6409706187919348 -0.37136217019633466
Ni 8.765328008526753 2.3289236604136883 1.49927023056592 -0.06717675495681333 0.49474683980328343 -0.42229700937298886
Ni 6.996352390671679 0.5292387674316128 4.954542301297754 -1.2261670680370431 0.7547594171803325 -1.3790178654239087
Ni 0.6589941693201952 7.497692188928041 2.7615184263509613 0.11068650531399002 0.260830445292654 -0.9977057831037139
Ni 7.653216254162768 4.006347601730052 3.6682123481813087 0.5162566888506013 -0.40048582703516833 0.35617080716787697
Ni 7.693555703669418 3.8230907293686367 12.558389462891034 0.24664695470342038 -0.2376676340229455 -0.09740958569942579
Ni 7.850976183588809 8.69943211350772 6.991722429677263 0.09978708479266686 0.4692013872340112 0.8165664231848001
Ni 6.874295529348223 0.7491632692483232 0.40705547846251233 -1.0497330840135985 -0.5960583316602767 0.4362760972609003
Ni 1.667400035125995 6.709415818335818 9.02808439057853 1.2524224021891464 -0.0831924136587793 0.530984224868763
Ni 0.03298948802165713 4.889083484710805 1.2597142245444848 -0.3569819902152626 -0.2597343840149978 0.37900297457104404
Ni 6.3614508153382285 1.8880794905981244 7.012896351158848 -0.17322036218215328 0.259744668427643 0.18405267691096688
Ni 3.559263324547331 4.427342631179461 0.5264745172650613 -0.2709302527308173 0.3344961504079207 -0.4136961550778553
Ni 6.043638805826806 5.743337025237119 4.670994892919771 0.23360503391779766 -0.8413909384276477 1.1998456565336948
Ni 5.179451664571296 2.70170460414203 9.492044049290932 -0.2541777158628268 0.7195507304896833 -0.3986914541389069
P 0.20966038309961657 5.6059643576984675 12.12403464351547 -0.35190123325824557 -0.051267282815408474 1.096357468740357
P 3.9808453394943735 6.188886109579874 12.444721978910687 -0.550741095780716 -0.10664678802697762 0.6226571651947277
P 2.241860165295351 8.437862345215777 1.5301059333385651 0.5971150550595652 -0.1905529399233299 -1.312426036436288
P 6.232413341865984 7.713170049836519 5.87514055498514 -0.6927096990374393 -0.5346760718980533 -0.5981589229430473
P 4.650812525401883 0.8942769209188531 12.612975501952572 0.06571791102309972 -0.051337216821395464 0.6990232999602929
P 4.032346544002192 6.245408297728994 8.133232223871996 -0.3132606380679121 -0.23961704443983253 -0.13253651130954594
P 4.767207234309697 0.9737186351140621 3.939124216431754 0.9337362222302886 -0.287379399425776 -0.8135186374974119
P 0.13471859003473302 5.641165426464288 3.60716314726351 0.20995371304744487 -0.6062866942565043 -0.49249686742684223
Ni 1.5968624394025919 1.1937569218118524 2.6316338876528995 -0.6309841970031843 -0.04940297591316008 -0.06123519266139776
Ni 1.8386824033356721 6.414451090501544 4.868538089238993 1.2718501718964548 0.47504524760929806 -0.7616785128976689
Ni 5.8942013286752415 5.318206005665918 9.144830387730314 -0.34408970763362673 1.7644156877777033 -0.5885463395539478
Ni 8.54625599026353 2.3343690797225105 10.201565930247483 0.561400118156459 -0.02160755096744666 0.08278695069024453
Ni 2.4057374856887193 5.121457497405032 7.054768284341629 0.44098918646585344 0.3444051819915165 -0.664576688246649
Ni 0.5827917120173157 9.021858732085159 9.25007869356536 -0.11047824595792587 0.56791246535368 0.025129705188092207
Ni 1.514530950449799 1.2030674148589435 11.451072025460801 -0.8924507332179404 0.14712983574268854 -0.23320188494210803
Ni 4.088363021568735 6.650554718742278 1.5928736471825142 0.03251159947446013 1.4074462959679308 -0.4463424803579668
Ni 5.6686995615763935 7.951865444812961 8.060591413957837 -0.31596595281421713 -0.4724556325052508 -0.22383432768427902
Ni 5.539589843735208 2.8860541725836573 4.801924265803622 -0.5666338557515725 -0.17140310646775644 -0.3193135291302113
Ni 0.5862440897980169 7.297972630994513 6.807132648708911 1.1620445265255213 0.11987022869578709 0.04249210772593972
Ni 4.98599930564328 4.676034840707921 6.721048967844317 0.35823360323417663 -0.5343004337261895 0.6373373929147218
Ni 8.309989812192683 7.132885217421407 9.015355835825984 -1.3307623728516307 0.14217197751678096 0.7639513680922456
Ni 4.880242580061821 0.31273684259341605 10.573640685269442 -1.5555919745696434 -0.12603650540749908 -1.0827684172020127
Ni 8.08691726199943 7.318029473921371 4.815326499296531 -0.10457139355518764 -1.0357917913421582 -0.3846429464656408
Ni 7.28332508519201 6.189427942346921 7.0779912367372635 -0.26570499977613593 -1.6172552559073954 -0.6597311872288896
Ni 2.1595106152503236 5.434140156721743 2.5194465101812042 -0.11637789927181248 -0.5307574535699375 0.24368864340604485
Ni 2.187062811454664 5.496487047116618 11.18848812683987 0.2913530393615434 -0.8837012691600845 -0.28736294436554377
Ni 1.2223024780891123 3.414250814993317 3.793035265780539 -1.0923709732887832 -0.11843221069767991 0.0390879671403972
Ni 3.7334535286068267 2.555590367961687 2.651539017404983 -0.13406400369766588 0.4311287487320059 -0.015198047896677053
Ni 1.2678344916132958 3.4088144262306113 8.232069745018263 -1.0232386372674958 -0.7252896898559896 0.47268394646597306
Ni 3.750349680392576 2.5496302075241695 6.75500382124593 0.5275764847387946 -0.0712342128556386 0.793880294441194
Ni 4.097321323317246 6.783728182336316 5.95628091490504 -0.21640512509974344 0.5907266350347181 -0.4225582334541755
Ni 0.7272967048795294 7.699795811036576 11.509584545974208 -0.17666589752859252 -0.6645563765316749 -0.35378713742704876
P 0.349151616757422 5.416629927800008 7.855765082194893 -0.7226589371013619 0.27591690731213125 0.804969205265504
P 8.57172213031474 1.417253907672626 7.990963194228462 -0.6948300878145518 1.6072654916845353 0.9837467498204607
P 2.0099376799069963 3.1780478507452905 10.369964845081858 -0.8870002516263303 1.0313337555708044 0.7419648365188254
P 3.9904357794711056 5.906347413203211 3.70507503743274 -0.822432909267906 1.3216861215819753 1.078730242576897
P 6.941076417886767 3.9394673771842172 10.27684998101022 0.19712467960357663 -0.8509040201244055 1.4473547021270943
P 6.39969517814563 7.653767117475932 10.079743863123081 0.2914923931528851 -0.24842410120850117 -0.09880415205410727
P 2.3356423867250706 8.363279064831755 5.835436855925157 1.1742580378725778 -0.7655012290778687 -0.23395084729299062
P 6.976151059006943 3.9175050890265783 1.5153689851294985 -0.09186654439400953 -0.06903746231463595 -0.6334845948275348
Ni 5.0870782083359 2.692105133619181 0.5481108027078602 1.2749568358462366 0.3503143483870999 0.19324848447762202
Ni 1.4294632060234185 0.9283852936044623 6.848925113085858 0.2816656368704504 0.8803740045590643 1.3299478473701354
Ni 6.771247967601999 0.7723275230941946 9.290642100615724 1.0604224454066447 -0.02796691752657119 -0.8986761453023621
Ni 2.6542671453870645 1.5877686794623198 9.11745789939371 0.5908693312601695 -0.42238519821142095 0.18408995790680552
Ni 6.489946456043428 1.9966085938376403 2.646331101459049 -0.14591370394740033 0.14313485565068254 0.19759956235746615
Ni 4.023686250275557 6.883452503111317 10.322171582809865 0.38655893254143103 0.5058604332179416 -0.46919470236579197
Ni 8.192601743211947 7.114291322965578 0.312382845185612 -0.9695468041709947 -0.8462495520715296 -0.03737689798656144
Ni 7.655446799053778 3.759985273099895 8.18484540715167 0.4617480162797596 -0.3835923937139394 -1.055016701010041
Ni 2.9579734418630306 8.338986895775815 12.538470787319774 1.3637761087734899 -0.3399810847818919 -0.31307757552282856
Ni -0.08708245926518351 4.98376876075227 9.987660287418054 0.23689064664760495 -0.8000601979996609 0.5063224604560248
Ni 8.592230500547469 2.193600926843698 5.9081571346451485 0.26025374685357755 1.6417699532193082 0.0777560731345564
Ni 3.7005642796470735 2.624466343199479 11.66744932876258 -0.5300498859799516 0.17487949505213107 -0.5426837726938784
Ni 1.2725213450482527 3.5618641218291565 12.571249863616893 -0.17923905757240743 -0.3091689844970417 -0.17276167737817988
Ni 3.3019017907461192 8.4515887753143 8.295987950437576 -0.6792484313262108 -1.0979332978679093 -0.6000368566920504
Ni 5.457836309733932 7.706315865333375 3.567075649993537 -0.31876408438464454 1.6192172647297727 0.0031655422121751936
Ni 3.023020465547024 8.273732169531119 3.504372956081634 0.5142116333961144 -0.40634948490479694 0.7454646221419677
Ni 3.544453228914713 4.440554320149291 9.268767408755423 -0.6409382228921026 -0.3079477104954309 -0.004138190538089647
Ni 7.162884691623577 6.07400853241979 11.461381296908483 0.8260715344617581 -0.7706866299335501 -1.2518498175151278
Ni 0.387517891937409 8.953669078352293 0.486002318730485 0.8032712487377908 1.430258665876756 -0.01844457985843275
Ni 4.689625812614683 0.4952568223916479 1.6536465133891185 -0.2956436963170973 -1.3282748305430867 0.20324287668617252
Ni 6.026435615473064 5.655045375846809 0.339780619051344 -0.09097745692083688 -0.33479774080873953 0.5998062287384831
Ni 7.697375624677099 8.852517931290734 11.430915846526654 0.34239792175350064 -0.09353339057347118 -0.3597610956222965
Ni 0.2452082248363473 4.990469425971418 5.7026309355581 -1.4302401539339948 -1.8472890275341671 0.4210340835001652
Ni 7.827686405151905 8.940665091943165 2.566817142894901 -0.10035478437067878 0.025307625526853186 0.12271335457153704
P 8.60108043574257 1.739219968398076 3.775059963733755 -0.2151810228846552 -0.31236460861620396 -1.3872482237535013
P 1.9464980934319092 3.373432746542442 1.5633600163614636 -0.8262913637820479 -0.6041081985479466 0.09815957649157288
P 4.6280916713703775 1.1052756309530758 8.20404976652504 0.9401948333714388 -0.048235695077936284 -0.4602295227527041
P 8.456745217147365 1.5540666813519957 12.476958319386151 1.1100627341415916 1.4928583429858484 -0.5775705572687343
P 6.201664332336066 7.735078154717454 1.2771928465548095 0.16313855246611905 0.38964297078339344 0.3967443577148651
P 1.8109315351167476 3.1250746672203276 6.106876108068863 -0.4518011894796929 -0.2570223844004735 -1.353703040808204
P 6.957376553628764 4.018132464413325 5.934314111474343 0.48799126624700473 0.30150709707640977 0.7556911849659824
P 2.375449034010791 8.489860229760055 10.352664124830047 0.6551258272463943 0.33218267178339567 -0.5180315213628369
