# total energy = -340871.9879454251 ev
CRYSTAL
PRIMVEC
9.24765879670411 0.00000000000000 0.00000000000000
0.00000000000000 9.24765879670411 0.00000000000000
0.00000000000000 0.00000000000000 13.53488341665616
PRIMCOORD
 96 1
Ni 2.9711524661361626 3.826903043529092 11.338374719088247 1.3512509797232857 0.5203897371823683 0.4780711789198154
Ni 0.6117991949025741 6.830579524715352 1.2678734045493494 0.7142275185045571 0.9327368344314969 0.0156454198467408
Ni 5.356003381468736 3.9226440522904413 0.8130467398329796 -2.0327087599959897 0.5815562813893598 0.8326664140704563
Ni 1.6907309137274222 1.8244705513886448 12.128933927673764 3.2160600184190873 -0.017634939472943822 -1.058943289757957
Ni 8.617476839496506 3.701523289179012 3.754725068702246 -2.153231277563795 -0.04058666317311075 -0.6177054776164072
Ni 3.7297194000370584 2.61234331517119 4.999975001423742 -0.5479087685382434 1.4240831331936636 -0.26995426197079314
Ni 2.316769653234529 5.788951010868919 3.7958854720535347 -1.307391045115542 2.4915483443797024 2.94518093064118
Ni 5.562697797273326 8.237074405863924 9.888504620370446 0.18199553727162204 -0.3806518230283767 0.4094579486267916
Ni 5.243764549889822 3.5301549289591176 6.416847604974708 2.0477078045079833 -1.3294048303824717 0.5079155159747576
Ni 6.89948382842257 0.8339150060718341 0.1497556574693729 -0.43984735955192633 -0.2578682773405366 0.7806763941564103
Ni 1.7487877139789196 0.675197442721014 9.158540694302918 -0.1837811684171351 0.5082854977196666 1.1451531500868213
Ni 2.017700376373518 5.356659965224368 12.888944421071198 0.1084442462470326 -0.29982790960177397 0.21023113507854763
Ni 6.0383788567407555 6.426382865685017 11.296267355503485 0.19343257546397008 -1.1376951511468791 0.9175696397727553
Ni 6.458906880735115 0.6636008789243625 8.583376098667038 1.110887544035732 -0.23337003508885615 0.8908612772436334
Ni 6.297886650410319 4.916415933243995 4.493229207422253 -0.47649586401289545 -0.7504649035700366 -0.2195737526357122
Ni 6.083035799782247 1.6122830264172197 11.672375176514723 0.5866205832861445 -0.19047812082133647 -1.640648438020355
Ni 4.462522357273305 6.570886777875189 13.485331468267633 -1.771515532047278 -1.1633804717281253 -1.2827092260981456
Ni 1.8094985922285343 1.15853741298301 5.225737164351391 -1.7405612497576088 0.24930573248250615 -0.46888231333169567
Ni 8.698846986902195 9.289642899751376 9.047054622128348 -0.45182715762162184 0.10193164193949543 -0.25138909737409604
Ni 8.898503934565436 1.633830070792178 12.613685090627444 -3.051905365983628 -0.21501415828948778 0.0963610898302534
Ni 8.081482551096252 3.8777744131027596 11.22663063724069 -2.022562672700923 2.4757627994106715 0.5857309815923396
Ni 1.31727347165089 7.230568499114527 11.161189581652966 -0.21079960598750788 1.941946247299436 0.003682848168225915
Ni 3.7104010413678363 7.041370653248745 8.67269275904758 -1.35064368515659 -0.27518748534527443 0.49479517654271554
Ni 3.4173427425513414 3.7383659607626316 8.611190281227794 -0.5935813308746938 -0.015213988736277023 -0.10418855629447218
P 0.05219840857272647 0.7656682108861022 7.023507876032148 0.7831703642228577 0.23118382607081475 -0.4361159175339521
P 4.588272017964585 4.974454238178432 10.002698406962608 0.7127475915249208 -0.13832097920180694 0.06939921652942888
P 4.7709502645667 8.857157653277694 2.8749176324093098 -0.4675049733681948 -0.430543051431865 0.2230203164234159
P 8.474452552671139 9.165271140181071 1.3553562542433863 0.5115086326426544 -0.3059167961083312 -0.23667210287889562
P 6.384851631226674 5.680189298897295 13.482828127103556 0.5188956691353451 -1.271502815859365 -0.817817521983082
P 2.3933032752290164 7.500156240581817 13.355058777789317 0.703246336902705 -0.19682334631307394 0.3847419339373503
P 5.894096888355304 8.687685063056456 12.178309026097276 -0.8834585570216591 -0.0113979574242965 -0.071317002377432
P 6.470679150043837 3.250052599743188 2.5409033034950403 0.3539570873460097 0.12302702915721395 0.8986437494025297
Ni 3.1659266500955505 1.0652470337321172 3.209228811162393 -0.5621794195246447 -1.0587358017328412 -0.2349839165431953
Ni 3.432194482150562 6.461727416586773 11.051354216526006 1.1013040141123551 -0.37277807670725477 0.3840521069591773
Ni 5.585326817696297 7.547578233523786 4.69143427269628 -1.2444488970653664 -0.46438545390260666 -0.7927528657049702
Ni 5.06237172782338 5.297299245120136 7.821876732246271 1.3071779006634712 1.1442357804788745 0.2548233198666256
Ni 1.0381976325317939 4.975758158031165 10.698959241517459 -0.03350815905977455 -1.248188823723773 -1.5827348535330228
Ni 2.576887792367074 8.22403520733659 4.736085667142652 -0.7279577236064559 -1.1618290680806056 -0.42866614612412623
Ni 2.445210382558047 8.886223044037564 7.099344224573471 -0.39341786444479343 -0.4686046341902768 0.5503515736517812
Ni 8.475146127060889 6.349285136520199 10.162518291210207 0.13274631332750686 0.3053886915190031 -0.5939729098861577
Ni 2.322614173425505 2.08844496412821 7.319339547641796 -0.5918473789027227 0.04034832191005955 0.0019098154282031626
Ni 4.028945887093079 5.277315055036753 5.442727923163311 -0.13985515645814622 0.18977003901071832 1.005010030074611
Ni 3.3955922496887228 3.3216849627167626 2.637136287690187 0.4018251146718822 0.7897336192626722 -0.4790116884562138
Ni 5.694079282009392 3.0313547231666256 8.836613979853244 -0.1047796529112518 0.7391769893610431 1.5082991030209507
Ni 3.3307106774420667 8.985339448162373 11.662385855770589 0.30712135793939366 -0.29362229501169435 0.35824748719124755
Ni 7.715617436672871 6.470549682824417 3.461965469256272 0.9767888304453887 0.6976413320111018 0.24563111184439632
Ni 6.914317072704729 8.723149833519102 2.8345025903355414 0.6501214320532674 0.37525456327220535 -0.04286028969863586
Ni 4.128228749071429 2.0037549073102405 12.978667053661207 -0.43040164075799425 -0.5043295983957121 0.023853666689146017
Ni 5.303902073310575 3.8402196718123283 11.839693062298466 0.8262533114552609 1.0398327941807513 -0.4735982307501263
Ni 7.716690165062354 8.360502904264168 11.105912627555595 0.5237465694697432 0.5029288613934435 0.501584174440091
Ni 4.49797788007742 1.2660691863701414 7.753728887006811 -2.8370557582964624 0.9363857440379938 0.8894535982628294
Ni 7.364881491604611 7.613967174110836 0.11520363090364022 0.1385006993127808 0.18613398492002783 -0.0953593880386164
Ni 4.717304597434025 8.778672775333371 0.44896549874003977 0.1999724334650169 0.32131179050716274 0.021491337104556536
Ni 8.052805561994644 5.441803157310308 1.2919191662591205 -0.8366081723270237 -1.2441951291833475 0.24956027169547346
Ni 5.215327999909994 8.19515476974732 7.130974915809569 2.329983049937974 0.5326209891412376 1.0220291903404268
Ni 9.13181311161944 7.443625303987774 7.3812211794613125 0.5369108747658431 0.48638201277835585 -0.18492710909612023
P 0.19113800462538205 3.77098245239803 12.611573850185037 2.8096372570741934 -0.06597862088365412 3.1038107966036677
P 0.937925271090732 1.9368573455040392 3.218053851697596 0.6217210265337035 -0.042606264706300814 -0.12426475821905696
P 6.063467754332714 1.4156315677762366 6.39599043592609 1.7528148703139812 -0.6524853042997536 -1.3234180166714176
P 0.6019458147388325 5.124099848511297 2.779131310121163 -0.8375643655927059 0.8777265396338884 -1.1601655643352535
P 0.41124245006436155 7.3708832219905975 4.598327921850134 -0.04040745728276912 1.3495144566481532 -0.40053519221586503
P 1.7563153080223601 2.818519862098099 9.924710128281347 0.3942385605738759 -0.8280204306580126 -0.1100658410108556
P 3.1324038879242098 3.6389443839063325 0.385582971941101 -0.3439696371159947 0.26939247593005217 0.041150763206696875
P 7.1987750490883 7.201105459037867 8.709913659865077 -0.25276386623443564 1.0785628637610973 -1.0830820917876895
Ni 3.762752036306308 1.7713057624995305 10.338971938855762 0.6550558932404072 0.13841096781245196 -0.35877353489804664
Ni 0.24622260742532934 3.1281222220248077 6.255592484123249 -0.7684453993078572 -0.5736033450908701 -0.552758383321061
Ni 8.197244740575107 2.065973153900249 1.9177165418785935 0.3141954911773557 -0.5476292896246118 -0.18628182335180177
Ni 8.381217659371424 1.3200107785757775 4.207250915976346 0.021654087934665934 -0.2042720892816353 0.5691643354829101
Ni 4.285050542423593 0.4980095309881747 5.5169672010765 -0.11186767010628476 -1.2997859790747746 -0.9471987754930977
Ni 5.58991365632719 6.795789833325398 1.9139675411105215 0.014339556551123692 -0.3928280533795944 1.820490419284084
Ni 5.793158695500081 1.7280452158960735 3.9896636831892387 0.8401853481553208 0.012423570475333443 1.1727421154486835
Ni 2.0060390789671567 6.123605277753466 6.8636343553650745 -1.591498972878898 -1.6267750224723727 -0.3588650661705884
Ni 7.910539583168739 4.3906310598608895 9.03855417440755 -0.7377286869502907 0.38583131034678714 -1.6197916491760038
Ni 7.4997123529723755 8.69294698076004 5.229906008816727 1.0685635864565404 -0.06971623354921543 1.1841806963029282
Ni 7.307435036816095 3.29125091849445 13.540567732667473 1.1126780602772515 0.19345828649558297 -0.6002551433504436
Ni 1.5654991219138228 3.7209063814579446 4.4120338407627795 0.290304543492371 -1.1272207339781168 -1.460354713931188
Ni -0.1729830013992368 5.521148067497924 5.3466576977582925 -0.2029412862853537 -0.8328571899250239 0.8055068229365289
Ni 0.8952658222917264 8.90729845782749 2.874497788712046 -0.98181019491938 0.21590967352056364 0.5167287433910133
Ni 5.100860482625344 1.4735958914424336 1.7801076838884085 0.09895610425093926 0.9721315341790354 -0.6337741010434956
Ni 1.2664668356869324 2.514244153484684 1.0975398573189645 0.29843591435025374 0.2775295032148898 -0.5285393628726962
Ni 9.047631676020622 5.992926615065682 12.42204493814388 -2.0943779548710126 -0.039492401667667466 1.836495793573405
Ni 2.8700108247932787 7.74104849763044 2.2446110984905965 1.2967191672239928 0.724002852723766 -0.11421817261633233
Ni 7.02144194911654 6.611225064383158 6.492778279633038 -0.17991577192445787 -0.7771092456304424 0.4820409622008408
Ni 2.696006881892327 5.513074861601211 1.659593122690975 0.7004363782577356 -1.3855695504994976 -1.8411140090717064
Ni 0.636075223309743 8.776897224895608 13.27862688003866 -1.7229113978863293 -0.5090007786191363 -1.5424770344542402
Ni 7.711816649017031 2.4012285185892477 7.638519707508053 0.5969425340374429 -0.4384152550910901 -0.13545651316981833
Ni 2.500890534567328 0.32356724907289997 0.6812768534386525 1.0001480739966195 1.181502635250133 0.4740432887073449
Ni 0.8664880337121414 3.8775987075906895 8.383330749345536 0.09560389994925471 1.1896455760722415 -0.2640718350480871
P 2.426308168522676 3.957202552217145 6.257352313541513 0.28662966574394505 0.12915113977708081 2.146651567463748
P 7.4843519921540045 2.4300812132029264 10.075692025271803 -1.5535548895349567 -3.2693890688595304 -2.8429446129770715
P 4.278641915062286 5.36111733663584 3.347744864454373 2.3214279612791118 -0.16774571222082726 -1.9546711510652728
P 0.5082633347662665 0.05031651006186637 11.006052711684973 0.11787813796642281 0.5134642137071287 0.5310734421484595
P 7.4887816205898865 4.421508991692643 6.804973683011566 0.026862371608482767 0.38397703074686773 -0.8485871990657707
P 3.645158810438509 7.181176754905663 6.393946703390954 1.6068541151787292 0.8237169181866524 -1.7652183861846567
P 1.4814564011929552 6.675579520093603 8.842353076736977 -1.2316319478063562 -0.4623213722847264 1.5766567656597428
P 3.7535228730933428 9.111690206658105 9.293984675431222 -0.6297135578208768 0.20552035986643963 -0.025171099948988907
