# total energy = -340888.8259587335 ev
CRYSTAL
PRIMVEC
9.08391554013377 0.00000000000000 0.00000000000000
0.00000000000000 9.08391554013377 0.00000000000000
0.00000000000000 0.00000000000000 13.29522860924411
PRIMCOORD
 96 1
Ni 6.614108068657033 2.547965698125767 11.24802969279451 2.8214123953322505 -0.1347170639006325 1.4064281391160618
Ni 4.577321561847351 0.41257328578881425 5.97825304198662 0.9823722380704372 0.2717008123482547 -0.27675045895702016
Ni 2.803587087488954 1.7871695857609609 4.68301837201346 0.05764516131729427 0.5390394910730717 0.6106066617880967
Ni 3.54245462721969 4.515814368266038 4.651974089918624 -0.7483090335692983 0.27676588557598786 0.3987660161305842
Ni 3.5539457806505514 2.5701122847379723 2.5062042122224484 1.0779337148175308 1.1071298767655127 -0.28897091228261196
Ni 5.089463648233531 4.749688863310268 2.454246030883445 0.14573809760148448 -0.0403254390919241 -0.3369548963610584
Ni 5.431445824685412 3.3938326815419684 0.1050791038947265 0.8584761760447086 -0.5510200604737155 0.7288866631786286
Ni 6.07614040977762 8.05631595359827 12.194942521509942 -0.33401843944055376 0.7446261854010724 0.3068688756089553
Ni 2.181820305763934 6.749803602214506 0.04282793761302837 -0.2767877399528588 -0.6648726222205129 1.592535384563212
Ni 0.6274505878133125 0.3338493466758722 13.503831225255375 -0.13979139309974634 0.3422092027814623 -0.9576032586558734
Ni 8.278236015508101 9.065402735311476 6.788769967239819 -0.8280664534045996 0.18269333466959503 -0.833339785988397
Ni 8.841493295851164 2.463648792082089 1.1285175641102396 1.2916875183373562 1.0907077266537473 -0.3685293287332298
Ni 6.831150067806096 0.8101072406526217 4.697856040008691 0.6573590874522872 1.5318588926187617 0.00496711419728822
Ni 0.6689840674311649 7.218043123753768 2.2463751530812575 0.4855538604501057 1.254205462231498 0.07861533581105816
Ni 7.913771147561058 3.898126264715292 3.9516341620822044 -0.8032054284968618 0.5267089945321767 -0.6460099809880551
Ni 7.831489038646639 4.445150587603059 12.561186020161935 0.4918039551248756 -1.0313381264461787 -0.29732674044647506
Ni 8.203784241975027 7.2064157115865735 9.015827265075172 0.594623398985963 1.4074738067717567 0.7982835657152123
Ni 7.2484742415351 0.9491147698945943 0.14045641380499416 -1.2386443745684474 -0.08141115338864044 -0.4774821391855648
Ni 2.2279484299709797 6.63015026388146 9.170118482575978 0.8517527412779461 0.9458227210811774 1.0702430310414923
Ni 0.19564120202039437 4.899873242497957 1.2728201078461638 0.2009705357122281 0.759519300462821 0.6977781146992821
Ni 6.328991204835344 2.482870357820984 6.789341345540848 2.4482100866033836 -0.4413769088225754 -0.37089834318603865
Ni 3.4947277338396554 4.645432762183001 0.32396786311690723 0.5769280385887289 0.06893230419533936 0.2632832777085207
Ni 5.891182801077413 5.60501220302807 4.674655719168834 0.7049934015007987 1.5601453982682807 -0.843287127009096
Ni 5.991024119147448 3.207094625353658 9.120513943809256 -0.03929854048930652 0.7998920478529127 -0.5201881626945235
P 0.41118344667820417 5.868046067647844 12.52147295726151 -0.49992221335663584 0.12700041198266515 -0.5720902508804534
P 4.407207071491828 6.355734252819892 12.46455586631151 -0.26464004884673126 0.38010572071691956 1.0972452706619489
P 2.1759339283542913 8.550944250407612 1.3078386030840845 2.2578882888542533 -0.2651804947312336 0.21021853667305732
P 6.596339929439037 8.044815716251653 5.660031663976719 -0.7264793392887166 -1.0839341553753397 0.1894640777345253
P 4.891025508551981 1.3545844335625126 12.67722668519897 0.3848802592874275 0.1457463251316006 -0.3408809708883419
P 4.2671330905401454 6.424717509068081 8.234147230388192 -0.6394251286816859 0.33130849670855844 -1.106150800681695
P 5.012949825823933 1.3358715671059322 3.63201749461224 -0.3695958223245312 -0.46616954238622293 -0.45806311122900467
P 0.43358256614841545 5.618093041716165 3.521839588803883 -1.077150556794603 -1.88317751390066 0.8769590653402445
Ni 0.599786430771143 9.041657379526283 4.511416844648742 0.7940091067095745 1.2685385910247184 0.4680335921781552
Ni 1.851738058951918 6.802172376545664 4.636724012148085 0.7484712701787755 0.31993907852935227 -0.02229249284961322
Ni 6.176408671888169 5.939109540604071 9.121098947983919 0.6464372983334609 -0.8031815172374619 -0.35221130829949665
Ni -0.11249521271761583 2.4897468820479896 9.872159827833425 -0.48148946057274505 0.4255677097044606 0.6267313352641013
Ni 2.4797636586325615 5.570266225262818 6.948166345395284 0.5867062010214154 0.005781382568467462 0.12611569538486667
Ni 0.6318390275148533 0.1102478519596751 8.822181799346287 0.42975423698198245 0.25405276024918827 1.147571529720327
Ni 1.5761048031790967 1.444869472257634 11.33420880156809 0.7966164624254345 -0.4945275247036257 -0.7618800873855137
Ni 4.300852585825012 7.135570252608481 1.3547969971911942 -0.9584051857318784 0.019525214517121213 1.149433008409098
Ni 5.840258369351399 8.234378870239961 7.709929894788064 -0.4234375507353353 -0.6267573034060303 0.8991199177079998
Ni 5.471623984072526 3.194349891548521 4.5700489788934 0.47992674407131536 -0.46005905861311097 -0.2202208993014078
Ni 1.147153217282897 7.882540645193232 6.852839733455793 -0.34908253286252783 -1.4811320556878556 -0.14130808685458887
Ni 5.091325850963434 4.923436919968038 6.84565980644255 -0.026296214692367613 0.16191393603039858 0.720987720046526
Ni 0.9756398039010088 7.607461508281504 11.474487170624275 0.04832182703383936 0.8987057129887167 -1.2689743930105566
Ni 5.3404249888140845 0.7555301664012726 10.579133739346174 -1.7077912544154394 -0.039560021680809285 -0.5925392627634247
Ni 8.343313187981373 7.1512490912026845 4.5843942986546775 -0.4566564606894652 -0.2586221247874255 0.5264045759178806
Ni 7.622122948311077 6.481155877657757 6.909929418805147 -0.6545439866009953 -0.38300772485506296 -1.3037179671393289
Ni 2.445144855687888 5.360827463601211 2.5341372531709845 -0.1296329645095058 -0.14072830309171894 -0.622605743131502
Ni 2.849878722179601 5.42155344042754 11.298431799364575 -0.6017217005936412 -0.3034246258140968 -0.5328531597567017
Ni 1.2151281588822123 3.4749520492396675 3.6477317604778894 0.3361216018264856 -0.011739142813799137 -0.05254126443182564
Ni 1.572643831276205 1.2363845217503664 2.350104387094699 -0.30015315415167665 0.1238847491718189 0.6122562815763779
Ni 1.6065086692131618 3.2467550015427014 8.285639406848933 -0.02390714563490076 0.7611511796392891 1.0286482383188416
Ni 4.157671905684907 2.779905319114049 6.789713786086829 -2.2063798365623164 -0.6337100805747795 0.8141074201213464
Ni 4.127631396281068 6.941165371522427 5.672475720170344 0.49770309421812997 1.1530042707001238 0.5495113371386731
Ni 8.453046890309281 7.478687918529815 13.64130357273465 -1.0285101700790802 -0.2500629223635048 -0.7706251805679954
P 0.5889029913043331 6.003578090721716 7.98986075110487 0.46155286954981806 0.4059087978229526 -1.4579486755928568
P 8.694697217240321 1.9514522022013743 7.785872338896635 2.2034775753138565 0.6946567954614811 -0.8542827067886514
P 2.4634943655142436 3.369433283822369 10.489669886635362 -2.2042648471018427 -0.015339715680863904 -0.7831276839103803
P 3.9322272844618946 6.566817203233268 3.527529753633204 0.8742264969004299 -0.5189712595682868 0.056053905570774436
P 7.6557152687753645 4.35110480778511 10.284950219208799 -2.162692680087011 -0.012061044929592132 -0.8421301305865174
P 6.684690094078212 8.39282052884951 10.011878627679062 0.8760347537537622 -2.0790721777518772 0.21630305230424035
P 2.5988447102730023 8.81952838755407 5.583477872337794 -0.3476087765304787 -0.314078248873201 -0.11128557235056964
P 7.15916118182583 4.23218726662827 1.2861262276449983 -1.302466354120415 -0.3042674334303663 1.8675405786943515
Ni 2.684814888984204 1.8574518419622037 0.06801672761179103 1.1301250521091053 -0.0676421246290061 0.5029502015496822
Ni 1.6633648979275961 1.2904247365805581 6.924434615483723 0.2344943785012865 0.1329167774671001 -0.454584665762101
Ni 7.088524652910118 1.0665879684462907 8.607105559566742 -0.5615438428231748 -1.423732434722464 2.517389988033155
Ni 2.9844387662676217 1.2884262751143214 9.279046441576362 0.14304229593687623 1.8478266452051921 0.9866119871833976
Ni 6.879076807332754 2.1489001950655617 2.2726730891937814 -1.4686316092279998 0.11194608875270398 1.0794568363302763
Ni 4.475945062014615 7.005906439112741 10.407970965112453 0.02725420773026274 1.695129599787371 -0.21939094720094474
Ni 7.628490773255767 6.496253345643601 11.290109115749274 0.565159328088575 0.23830526760694443 -0.20019791921226165
Ni 8.340515341928642 4.418534714439088 7.964506633839355 -1.5437127066335543 -2.1052745471788583 0.6208859322269178
Ni 3.566308989993952 8.515353468477088 12.64170221585346 -0.200526506196274 0.7943050406834384 -1.2221350640595146
Ni 0.4649611363430586 5.251965817185844 10.09024102694493 0.773295785421623 -0.5160268322279823 0.7919733072264684
Ni -0.23695030891908284 2.4263593179052627 5.664126693199353 0.03510455701261696 -0.05046149908466148 0.04907001805377355
Ni 4.33231018608673 2.90672586697828 11.228445678816966 -0.6348277391189906 0.0360941746193959 0.40097485085644496
Ni 1.3943901524036455 3.962603898748693 12.547292171013712 -0.7616936824063204 -1.5010241666260924 -0.8054397171440193
Ni 3.1481036764366523 8.564470200967733 7.994340938355542 1.3228981396122055 -1.162767520734475 -1.0218803234673886
Ni 5.876675787615684 8.04002849264844 3.338418978649526 -2.1138193514250756 -0.6891649191089745 1.2266278097235455
Ni 3.4180140652834323 8.843609848222224 3.4004539477362403 -0.344396183130452 -0.8732332797492252 -0.09258696749980184
Ni 3.898189852125581 4.38523307927898 9.18687013162092 -0.02391125939995882 0.46984776256875854 -0.6651328178604352
Ni 5.717398408756619 4.936962870528158 11.378415677592821 -0.5787332101182678 -0.17729684624437209 -0.1692014708307473
Ni 7.975950550908287 8.829793212357924 2.791985110285874 1.846107862741872 0.8921648265464054 -0.5434767009088189
Ni 4.6481034334151525 0.4221123057237923 1.2882182534435178 0.5260839593536681 1.0399520933674347 1.0343869405748316
Ni 6.175999895679167 6.195012531355682 13.724797476010869 1.2302975452656488 -1.2433194114466135 -0.6057246511054472
Ni 8.368194033236021 0.19321579651364346 11.173509789893268 -0.6328670158481939 -0.3374446915132834 -0.42805576623363695
Ni 0.3584095297043459 4.955439555175093 5.807701615283252 0.10353626742245393 -0.17317588209746304 -0.41238540668623175
Ni 7.273791114746017 6.172257322387852 2.6048673464189798 0.8311026691277621 -0.6664757050415747 -0.461089042539522
P 8.79936209457659 1.7556393141731987 3.4361119506433573 -0.598676228899098 0.17693766313274042 0.5400617616899989
P 1.929287447757658 3.4692564340608927 1.3576693313531214 -0.16663705253768074 -0.4886073025644489 0.6073454745383218
P 4.9814195542361706 1.2578770664281669 8.32556503337804 -1.2508175195958717 0.21398237459086372 -1.2824395173765268
P 8.84085742174827 2.0584153102238165 12.20900896505752 -1.0646683651671922 0.44574804130707746 0.45062850932783033
P 6.591162097458333 8.335446516937004 1.3301614176619485 -0.7970936591721691 -1.520174514302298 -1.374745206190484
P 2.2002152351690674 3.522251998579188 6.2585690563314635 -0.358370385922357 -0.49668390892499625 -2.233891925939656
P 7.00991244596097 4.362459702479637 5.983438141099929 1.5341618297203254 -0.010898134969742521 0.09439985233882452
P 2.7219771883404515 8.529133768678365 10.471335819465791 -0.5209512661127931 0.2958501559009485 -0.46530205217960513
