# total energy = -340867.06316509034 ev
CRYSTAL
PRIMVEC
9.29109606715745 0.00000000000000 0.00000000000000

0.00000000000000 9.29109606715745 0.00000000000000

0.00000000000000 0.00000000000000 13.59845825266655

PRIMCOORD
 96 1
Ni 7.6198787229588945 4.696258822779102 13.312672633826063 3.356058128213001 0.995292545676531 -0.14113325183962144
Ni 9.104279973072902 3.7635535644938924 1.525189161734756 -0.8305956475843566 -0.7251680766764608 1.5284588657982774
Ni 1.0484816060542639 5.6503428930550506 0.781386751720254 -0.39341760733447734 -1.3184676146446777 -0.7764932093129981
Ni 3.9009224194626313 5.98038120662959 10.57492296816914 -0.48278992455172326 1.0477561627928857 -0.5635881269467132
Ni 2.1894374910063203 4.5706339132064056 2.6606883859818318 1.0621260583613128 -0.7128571205195917 -2.169750872485373
Ni 0.8952379843895769 1.425913800534825 3.0257522734123836 -1.0635139398477749 0.19331816137329288 0.07057781021856233
Ni 7.808850325340307 5.775651905362348 10.491238066126298 -0.2674044989657459 0.29391642921334543 0.21759297476025752
Ni 6.14382087708986 1.197018358464493 4.47946782063121 0.924453511376782 0.09382649633385777 0.9224660486331081
Ni 1.389724981454457 6.691744683925941 7.331255469987883 2.622863838797954 1.3904438478726635 -0.4518549255357638
Ni 8.892052757300434 4.124233912812219 6.214998105642076 -1.0351796116794558 -0.1735234952448689 -0.5580396863246583
Ni 7.950688197504851 2.982720562097692 11.562442905768458 -0.14001250797161693 -0.38774626798131284 -0.20904842762435608
Ni 3.6278292335244404 5.072371681621816 12.915883369853324 -0.8710244450233644 -1.7438951992268483 0.06471698056241112
Ni 4.022161931703895 7.6979239297047455 7.8173999919173935 -0.18217705715480886 -0.17538831636774957 0.752849087531497
Ni 6.492952393029009 8.390435773133557 2.752599624459529 -0.9658025066372141 0.5228415411569705 0.37625935038763586
Ni 2.8663588752780442 0.17229129765869536 6.42657680291087 0.7675100319777814 -0.04824237994615562 1.0508422579173773
Ni 2.3093112121295314 4.092876463673261 9.583405071943307 -0.78075944078852 0.9130023321170471 2.253951415693692
Ni 1.3041075314350503 5.774341860820543 5.0987556070499345 1.2931946990105019 -0.5935813308746938 0.4540573325037212
Ni 3.8417845931605665 0.9614612005326398 10.732352228600375 0.45853002356309414 0.709384588589959 -0.08394908931914574
Ni 8.721635473713244 1.7945844914485602 4.8671462358259765 -1.273279962364446 -0.9603024027545912 0.12194176651283517
Ni 5.577036145290198 3.305976375562175 3.29181953252424 -0.7113370843306395 0.015785802079347006 -0.7490595385820777
Ni 8.49209894601607 1.1199487168029647 9.967125480224535 -0.5351275576131751 0.12934525806575786 -1.2048657354561056
Ni 5.580826912474996 5.003821975030044 7.722510028048896 -0.270955706652114 1.158471207351966 1.1731977149288633
Ni 4.149933084462103 7.293724087529566 12.947948800510618 0.7836796997591085 0.27381220226430264 1.86491471103573
Ni 8.73032264851174 6.416319432881416 8.176209113493028 -2.2915334877125244 -0.21668948910938166 0.31820538366769713
P 4.680231682108079 8.73404837802425 1.2007682448267103 -0.6203729971462413 -1.6600299278707604 0.9957892828072915
P 7.004873202705546 2.749606962424667 5.7927122159131486 -0.4248992228825263 0.19672358751041602 0.34688963897626707
P 4.02037804126399 5.3891980566258075 1.8953259876037882 1.273516503855284 0.8456150038113243 -0.729479302457305
P 4.076449805872468 0.8828696773395677 8.07398940395765 2.4280621509005993 0.33670010003777495 -0.023715084228752705
P 3.1352989412858308 3.2450918232043695 11.771817755056286 -0.11575003587982646 0.5496257512293502 -1.0552519569492986
P 1.1571967208320264 8.14716700548753 5.812742889868314 -1.033342301360401 -0.2767651142450395 -0.42712348422735474
P 7.364680187996003 5.841116968068451 6.42226666345737 -0.8927638935829851 0.35877559178057566 -0.36160380525799013
P 6.590397408308828 3.814106418053913 9.405904256734326 1.6541811823994672 1.2739463923038512 1.5776520396934766
Ni 7.918894066851958 6.790713438956513 1.7604425008260627 1.5184883848491268 -1.4196315251802132 -0.02196107765212347
Ni 5.680037236002639 5.591771823611498 0.23333194042999217 -0.8248021808310312 0.9018607136779305 0.973186200695795
Ni 2.0237029198238807 7.799113256689158 9.39067336299403 0.2858339093155271 0.35659426785854065 -0.17221454662545824
Ni 3.399751407905731 7.197728483232169 5.527692063325134 -0.0517575921882657 1.3617660203219968 0.49710531273313097
Ni 8.438981749948685 6.399846319600416 4.528259082381824 -1.8382839958220794 0.8985028529492912 0.2646264219999765
Ni 6.119859140399676 5.624420735100179 2.7576038087873047 -0.7692385846331139 -0.1712645240073631 0.13928514288728916
Ni 3.6633676758819265 5.533442322665015 4.10519738613346 1.981043213300898 -0.7183816498822466 -0.44239403723318
Ni 1.380842693639096 4.452534791427058 7.622507174028942 0.0052036556881265225 -0.4267514455999166 -1.5847487986392577
Ni 8.934494484016511 7.053019662390903 12.804362344071127 0.0796391490898822 0.28486666030625135 0.9607582593450873
Ni 5.983605216955877 3.2522088027719076 13.184384896127966 -3.0818348065532084 0.0730326995169581 -1.651785428473781
Ni 2.423666022204286 9.399151488131603 1.623316143463998 0.17198417578220704 -1.3850273048427824 -0.3556087640168198
Ni 3.48910387853369 2.2931818694020554 4.5972854222005095 0.6249408190225818 0.19702852034534454 -0.6710854358994442
Ni 4.4764779459251605 3.5904325719587202 9.519587320565304 0.26120299814072434 -0.14360382486730106 1.8165823424789296
Ni 7.788484242818056 3.8833994123289797 3.8781443684080923 -0.145155228514821 0.4562276006821626 -0.22968924380315928
Ni 7.9804661603168086 1.6671013626676288 7.430346867486199 0.9095837933538012 -0.5243564351396002 0.04921040028637977
Ni 0.8561670673172371 3.583650071848664 4.039217596706675 -0.1753248101196658 -1.4944064041992586 1.8651432821067684
Ni 6.941024790710606 1.352885785651207 0.2684197646294811 0.32653292969678605 -1.8159321104894401 0.8787963756592995
Ni 5.88357727697661 6.89454143721662 4.700524364971605 0.16521060450379932 -0.04323644209113199 0.7058601203764683
Ni 2.179152247688742 0.856854608424284 8.74588895081912 -1.7221647495282921 0.9883048015047883 0.8936483530704673
Ni 7.776043465218926 1.4387540952637257 2.653127292023525 -0.5536359008300079 0.5835087771300402 -0.5403093589244308
Ni 4.735104895327245 1.0683645515823736 2.6822009897555628 -1.2340840088912748 -0.1112997134179567 -0.7235379972722055
Ni 1.5110388224640499 1.8941571677218088 5.680021441139369 -0.6364364783670072 0.9316999085265503 1.3805232463248418
Ni 5.9854076895878645 0.6652972940146127 9.08979422523511 0.44344201888172013 -1.4427940793396055 0.08459752153642204
Ni 1.224501420554282 2.2649183552448076 10.582591838841523 0.1624412692887783 0.9701057619982584 1.2954040479569948
P 4.404862177639801 9.258530749548452 4.715577798777512 0.1730010470824956 -1.018624278423936 0.4986847414051088
P 0.1923749308612944 5.352832706720658 3.043131268557397 -0.9161689027704867 -0.032179155835705874 -1.05626600003611
P 3.4327533810439768 5.643290951159801 8.355015327695794 0.12007925938279966 -0.21377668633796088 0.13339474554478317
P 8.143524895839391 8.885446788015159 1.221165917075501 0.8450593884181704 0.9427119433663378 0.19820685692416184
P 1.5134916718189193 7.573618355769895 0.6016244837348517 0.5676317008884676 1.9058662137474272 -0.6901367961039404
P 0.7405356606464257 5.920713787853178 9.879932260316545 0.5118775859462991 0.4731405743874174 0.48003858705883135
P 0.4923742018251176 2.5624192504831598 8.499567129013965 0.6399624892423946 -1.540368729861986 -1.0431963113363454
P 3.5616952119033725 8.138414793016747 11.229293933239333 0.8940908399245248 0.1106160570873708 -3.3098741734577706
Ni 6.153418579300391 7.142678739188219 9.09407742051009 -0.12827027983402425 -1.1248386068991854 -1.1448415323836734
Ni 8.79306542007778 4.204722677816899 9.387178981772946 0.635612182693499 -2.178332443506797 -0.8995274375590637
Ni 5.609229793072861 4.433571664407025 5.543547318719394 -0.04386867635849219 -0.18978675118126667 -1.3049253571838688
Ni 5.7778074396439 4.765254501980851 11.293478682910964 0.059363943780613895 -0.12765912861258658 0.5677977941526867
Ni 2.543939260457267 9.15052175806982 12.764451511916665 -1.3963954374704082 -0.5809898673629285 0.025116849672285776
Ni 2.239497916476159 9.203583207560957 4.245588634644393 -0.9515377691880839 -0.09161611894610029 -1.2482780410034695
Ni 1.294565575800766 4.985583553501222 11.880061811264762 -0.6310520741266422 -2.620666574036319 0.293365698916198
Ni -0.04646291308269675 1.4988303222659487 0.47729661116950245 0.7911981196233406 -1.1929543287305004 1.9796046810821588
Ni 0.20046654640355177 8.995137467877244 7.85848057306344 2.5994495736390717 0.30984801284193736 -1.488172764584721
Ni 4.530998097494763 1.1026022404940952 13.521450065638444 -2.753746873664477 0.4638745757044592 2.3389166049821783
Ni 1.6546512939724574 7.134939256185923 11.542058241054125 -0.1292149031354807 1.0845869584679901 1.374427417839749
Ni 1.5017291442307947 7.037587151866515 2.934465396588653 -0.18389661094907683 0.8831286844860662 -0.6063178046047558
Ni 3.398209085962897 3.16610821575836 7.532580513665639 0.09217430544241545 -1.06634343887677 -1.1358436997604375
Ni 3.9103528819444215 3.3039230433370754 1.1430482397805286 1.4238255086569025 0.9196373209350613 -0.5104426532719853
Ni 8.350316820427773 8.052351370387363 10.411659828533654 0.8674099881992287 -0.3217673899873426 0.4990740064237276
Ni 5.921020394022538 8.43996660612905 10.866133791387618 -0.7338319229990459 0.4820769576450988 2.629018288435124
Ni 8.968341946894503 8.658521058305556 3.3386252870508555 0.31120169865635433 -0.03446306677387613 0.008142169491160171
Ni 7.655556531756997 8.724664371022664 5.352937696105924 2.5576264669556985 0.19517758317953482 -1.1760274710681746
Ni 2.2162701763732273 1.9445427815530887 13.469667070962572 0.13639856536811348 1.7165607730779533 -0.2577420361753174
Ni 3.7359961736357734 7.724301351365636 3.0535744605076753 1.9415991483726625 0.08645051558476079 -0.4131942757407723
Ni 6.4317240701176805 8.029894791255849 0.1913157459126007 0.4095219690955076 -0.09260727921477599 -0.9597886963429665
Ni 5.997792720610747 8.322917378202355 6.5801446838273945 -1.829806040258055 0.2650521966834854 2.066475314923473
Ni 5.881700475576294 2.548027342715383 7.956376206501257 -0.8624590719518566 0.4036421132759629 -2.5686091912194473
Ni 8.613803013059393 0.23273359384494066 12.306387469552389 -0.6569924481414878 -0.36565329273701547 -0.33567654386926704
P 2.603095668951414 2.1201723700193775 2.160862725131693 0.6676648402536695 1.2095515709675493 0.924231368063647
P 7.69479283033887 8.447715380227388 8.432471478952635 -2.979009963375482 0.7951959279288241 -0.7035438135384657
P 6.848216032355332 3.259558059740476 1.4395596332904956 0.7323070017140872 0.31213038111821084 2.2565927099712817
P 0.31992216820490993 3.282005347775949 13.09944941255798 0.049080302466418695 1.6064921038536204 -1.6935825670152254
P 1.0252259926632086 9.51092337350691 10.944718810813463 0.0549195348560151 -1.7023639127522812 -0.16725257463449258
P 5.7873029397979785 1.348193782150415 12.078163773725835 2.7341776932832977 -0.12602802076706685 -4.562647017007801
P 6.956745325212271 6.608570792165363 12.142267690861905 -2.051373426285028 0.5933910692407587 0.8882125267668768
P 3.1222635335400657 4.24197068184596 5.649846748526452 -0.9125737292200606 -0.750851597485494 0.11778763513514552
