# total energy = -340892.5056250557 ev
CRYSTAL
PRIMVEC
9.06624501604686 0.00000000000000 0.00000000000000
0.00000000000000 9.06624501604686 0.00000000000000
0.00000000000000 0.00000000000000 13.26936601107803
PRIMCOORD
 96 1
Ni 6.499146752274544 1.9445191487228055 11.292681696142765 -0.005623516834364508 0.04898105788439307 0.8943620913080405
Ni 4.417264926449088 0.4010643840840624 6.207727721259191 -0.5544496549805549 -1.2811092286008774 -0.9985943563562545
Ni 2.620652497695435 1.5936917344818882 4.789524943730773 0.9501822836014541 0.053946629419784516 0.17973939424759366
Ni 3.268499162451824 4.559623104514285 4.688305758710324 -0.4660931806223328 -0.6482460694074256 0.3657957318521507
Ni 4.9970875554123815 4.886098584843401 2.530321872849251 0.25066224651040053 -0.22057751130987815 -0.5713968243578547
Ni 7.196105265876887 6.439119144519501 2.6087974758104493 -0.3064199609969949 -0.7850601250464028 -0.29359761242134597
Ni 5.093715593994657 4.605335111507326 11.423199358314882 0.025060285402737484 0.11639795387647049 0.06874204256140419
Ni 5.83400169217053 7.866735404170266 12.58794437902084 -0.8947680684972074 -0.23840554063023456 -0.9057921875218529
Ni 1.8929684799876945 6.73505044564204 0.19777741351667708 0.01392612316278892 -0.13769877223677576 -0.07105269297245183
Ni 3.071716316005186 1.8034121124594802 0.2879602585703216 -0.3804047400145771 0.25111244667394167 0.8271984489773495
Ni 0.772471267716789 8.937277606815694 4.339679628741107 -0.08913808971925294 0.29475717994708595 1.267572113346391
Ni 8.855545408671652 2.6149498296274816 1.6228297390980986 -1.3586894382792019 -0.40397327136313654 -0.19380435698109202
Ni 7.019032435932206 0.8914439735809057 4.902287271810234 -1.152614748571189 -1.0989743375379137 -0.42174087975920266
Ni 0.4886978010602687 7.396532742789848 2.203232607737623 1.3173442996735116 -0.7804506512988494 0.7713047231335233
Ni 7.749762711940158 3.8897363983060758 3.732380837859306 -0.30258696040414984 -0.5968504885442689 0.14665752409196034
Ni 7.733697325904523 3.6826452313614038 12.636987324405242 -0.03414399287156055 1.1846648350281983 0.5123110739392919
Ni 7.900126384288349 8.725970635973411 7.241411105096566 -1.5033579569655917 0.5364362491222696 -1.044531485208001
Ni 7.146766760907404 0.6261411677428943 0.39943699311713443 -0.6513496480334138 2.2264796926359844 -0.05024784041195863
Ni 1.6632298331801474 6.024791750711099 9.176973710442056 0.5440495426931534 0.9788462271950495 -0.35349943098330083
Ni 0.05537481085126819 5.076335602442562 1.5471546991992071 0.05952155240440073 -0.844288571690417 -0.5644497036160602
Ni 6.109651803359823 1.8155790131704401 7.05288035479532 0.8346921862512334 0.9732923872563561 -0.022307662358264806
Ni 3.3919451535698806 4.715580649991137 0.4327554432756875 0.6313924881851964 -1.0385940366776436 -0.4650490556285346
Ni 6.077647958717729 5.687255451553839 4.6650707861752645 0.09312767049462027 1.2639280888359008 0.10918343840590228
Ni 5.347806174714006 2.8850604651577596 9.28712314672949 0.6072989375711024 -0.7078761223652326 -0.5686501148506529
P 0.23520196600905566 5.48857775991451 12.583101190973304 0.5250992268428957 -0.5164875739144846 -0.6864902004902886
P 4.111279159686866 6.368048850426195 12.373033575814466 -0.031095178742907736 -0.4469040092883916 1.6886303652162724
P 2.3463532570023675 8.450855433235644 1.4949403813344075 0.41891215206115595 0.4717773754913036 -0.3033428647335679
P 6.365492169352804 7.734848739012043 5.891744606200414 -0.6972829202304185 0.9620893194516849 -0.361439511765984
P 4.97133941977965 1.0865894561911806 12.728784867682897 0.4368106296081316 0.06134934964175886 -0.324517441928654
P 4.063445651377607 6.134357320824328 8.170810913123399 -0.7030596748131956 -1.2197105137784219 0.43700294812459584
P 4.876180112877834 1.2427192603219133 4.003301089062824 -0.8948775974918782 0.17167924294727852 0.6655606494264731
P 0.01936459256970165 5.6780804116734425 3.6364300477741316 0.2076235222523715 -0.01191552049066335 -0.5951677015252073
Ni 1.6125041927346766 1.230080914874016 2.46568679941514 0.22129716308472208 -0.5394696366319547 0.002996106513846453
Ni 1.696602680808347 6.387686336968624 4.682639355622134 0.6734171693564144 1.3228127789872508 0.45075449338273343
Ni 6.086115831492719 5.466347327318926 9.126669650386347 -0.6820432204625285 0.2680817275384287 0.8334102342150163
Ni 8.836832679113217 2.299825287964627 10.199842877313683 -0.5623480838920251 -0.937636071505327 -0.09123148191317192
Ni 2.3745764775040206 5.24919262848963 6.798639274409948 -0.7125089931515536 -0.32603413568349654 1.0285639061351513
Ni 0.5651697638894834 8.756342556526105 9.222182540840866 0.34850917685756105 0.3154746150000954 0.5003155921403125
Ni 1.6135468109029034 1.2018576943723627 11.542503888743845 -0.47729264888257805 0.004270088130263614 0.35992153245956077
Ni 4.216583594677775 7.166095995121836 1.2385714532613588 0.37942180727601754 -0.41326035309201736 0.4380265042931037
Ni 5.567435958412223 7.737051836532731 8.040545292560644 0.17198314734094253 0.7615134480747143 0.17494685795495676
Ni 5.2176058311148275 3.512163561488905 4.569929611763331 1.0858108035727623 -2.5610771445084604 0.1218072978174999
Ni 0.726748381229819 7.516660488259461 7.101008516065164 0.6002276325466178 -1.9487496433745146 -0.03781064308987037
Ni 4.91881866283584 4.134470614246207 7.144372365618459 0.1989491344068251 0.8855185248744816 -0.4109597299832987
Ni 8.110626459330875 7.124572593291584 9.108782855742046 -0.6326566996096007 -1.6277872657869707 -0.285379852497244
Ni 4.609859167732937 0.25507245504647086 10.61639512763063 0.09389205946447056 -0.031351003507455684 -1.0028837277602276
Ni 8.199176473670628 7.259949762752133 4.7694477443087 -0.2389768397526723 0.5020989092929804 0.7969350221071178
Ni 6.92033729350336 5.951500226607223 7.002230870807354 1.2774947717767418 -0.14613096216452898 -0.2548577726489869
Ni 2.609691407561642 5.4747698688692115 2.4672126484387276 -1.7198507566831347 -0.32551220174175555 -0.1694693797801533
Ni 2.433044691129193 5.307542980930568 11.455390874227255 -0.810551584449288 -0.4797902184934511 -0.17580997728620043
Ni 1.254405650050995 3.438736043710913 3.7552567870946967 -0.7576994736452628 0.6507269268477502 0.18858578889463004
Ni 3.819536463727116 2.692393693914382 2.64267350003288 -0.019444738988172963 0.4231483016296906 0.09065786879788902
Ni 1.124241571431581 3.4982740742391356 8.184677734760816 -0.29208966041725176 0.07910821628707666 -0.1722194317214647
Ni 3.265135585578675 2.397867660757714 7.332824239588718 0.8275275501819941 0.9327460904028775 -0.6010503855582294
Ni 4.198414839815806 6.649038979885797 6.078988856344519 0.23552616219991052 1.2762745262163955 -0.8083581763423948
Ni 0.46851815307036193 7.311554828956891 11.289908331815283 1.4278042907989925 -1.1403930096940167 -0.3261287522798319
P 0.05885534228415759 5.4945705478205795 7.792926197480254 -0.015792229837250222 0.24416789703530853 0.5947540110265563
P 8.720413027824515 1.3600908673294314 8.221486689221694 -0.5106881936238882 1.4398848761126106 -0.3607229453149336
P 1.9414003604630659 3.3146010179773318 10.47380213382146 0.10819767745386528 -0.5175862062953022 0.01563950630946984
P 4.006183248329601 6.376906571733653 3.772467239866392 0.474033518515332 0.9291786847665933 0.21266571266196924
P 6.986738471451997 3.900534296030929 10.376126943948488 0.416578875942289 -0.26998691498094146 -0.23515952288911113
P 6.578140944446373 7.740877791897877 10.467048687964832 -1.4032078324065511 -0.24683001724850392 -0.9606140204577392
P 2.3372960783062053 8.223256420234197 5.926974220792553 1.0199144579902693 0.015355399410147748 -0.992741240009587
P 6.90233173105033 4.057443797226597 1.7282955532489606 0.07468489040840041 -0.782835092370626 -0.6469312072507439
Ni 5.3819315206723175 3.0161674332510486 0.32690794021280545 0.0026163545769245264 0.24536525977751936 0.4287710471331067
Ni 1.474443414771562 0.7966436899787575 6.978704871809686 -0.6467257761081571 0.7591403198568474 -0.6568798338230236
Ni 6.671550466074557 0.6139216828112759 9.295097815779684 0.7977289787633229 -0.05464185571459622 -0.43934779420768855
Ni 2.108037942480537 1.4877163973653365 9.161382489016841 0.9111184848307728 -0.12430692431090204 1.208029735006384
Ni 6.379454186562103 1.901391021537979 2.573022979897351 1.0509607857731127 1.098623124846082 -0.043713124617234395
Ni 4.266121557035962 6.858859086557741 10.302322270380946 0.08987188256148393 0.49523174985950186 -0.3488773588302572
Ni 8.087208348648007 7.038125947778169 13.488178077072147 0.12819186118760503 0.6920859494105113 -0.11497202006322135
Ni 7.6932709397121455 3.739137003589416 8.09294637507123 -0.16063044133228466 -0.5114649238889126 0.2654460896877945
Ni 3.301881076324965 8.709896183692834 12.511207681839345 -0.4111487060656532 -1.3262212904481676 0.6050340527963257
Ni 0.14680426458431434 4.578952338728717 10.439448318490633 0.09095843075744335 0.9383971180410677 0.1494962790923361
Ni 8.453412114309035 2.1834328354107484 6.14550789547739 1.0783232369464657 1.2747411202910044 0.126496218652737
Ni 3.924895296187673 2.548403591759786 11.235238874820432 -0.8436301121708116 0.027638330542558855 0.39801345423527584
Ni 1.2451308814762467 3.2222703794971403 12.92255772080909 -0.35892034488855606 1.3893855818114782 -1.0043335728328766
Ni 3.1000483314461325 8.224380634606893 8.418218764696661 0.009042312707926362 0.24654591034918183 -0.4685951211085801
Ni 5.482131659761386 8.195368650795364 3.7885897432451556 0.7008904350760188 -0.8115363169600605 0.115395223643569
Ni 3.019594473838785 8.49440060768776 3.646872548697294 0.5427717044219943 -0.7008526398595478 0.05782513853858428
Ni 3.5157084632608764 4.267971071003947 9.242312324483596 -0.5891137820216434 0.530676463820357 -0.059417936947000906
Ni 7.345997493488141 5.828679806390103 11.351730149444167 -0.30364522646533515 0.9058562079905689 0.42832573206557195
Ni 0.46429328292780797 -0.04196764783236525 0.4146039142791054 0.6441649573595164 0.8968959134734875 -0.6761003726155324
Ni 4.581672212211048 0.48911031520508896 1.8042090353898033 -0.1921292832715143 -0.6107146481208707 -0.6821370657279155
Ni 6.138346468598413 5.486537854802762 0.36509224403124846 -0.39959031180409244 0.7698021704460678 -0.4178508006761771
Ni 7.983898487544139 8.910368991830502 11.560882073863954 0.3126530863909003 0.9517766246717672 -0.10591428073632729
Ni -0.043711993359033446 4.743287094531148 5.643262404601631 0.13753036497971155 -0.06530730584824236 1.191164583819929
Ni 8.07876767460784 9.010786720798157 2.718441922254665 -1.1646729652873038 0.5973873348843454 -0.450541863151295
P 8.747774955056762 1.776521629964169 3.744456169496361 -0.4850576375399775 -0.5026005315197474 0.22555799524360512
P 1.925017655854493 3.239831695948056 1.702579149473522 0.9316592850966019 1.2574460806559828 -0.8587895935200693
P 4.560393735334279 0.980342131726396 8.387845030894978 0.34148260902808286 -0.5503914257507811 0.409888608406307
P 8.652833238033534 1.8096587552239 12.440600672862532 0.5403947195493854 -1.733791535133943 0.5367504379285788
P 6.444531692749339 8.043055735784836 1.4021473643622195 -0.97730742195302 -0.9554365900218578 1.828796625156934
P 1.6909362777201578 3.1636480397079687 5.963200215703717 0.0937187671113999 0.29647853351356684 0.4708831458118084
P 6.818097249302543 4.026020192260734 5.973802282537843 0.07895960652435434 -1.390023215395477 0.12060607842054713
P 2.3099794822986626 8.451780190219635 10.464845590444144 0.35966802168785805 -0.41073115891226036 0.34494922742044465
