# total energy = -381162.7210083752 ev
CRYSTAL
PRIMVEC
9.27404467523798 0.00000000000000 0.00000000000000

0.00000000000000 9.27404467523798 0.00000000000000

0.00000000000000 0.00000000000000 13.57350181701258

PRIMCOORD
 96 1
Ni 2.7034861008514794 4.595799317032479 11.68400283612555 -3.7562919871383635 0.5115163459521385 0.7525199863268524
Ni 8.751841973320849 -0.0708147519952308 0.40770834380679627 -1.0195629881881216 2.139964899472192 0.018440208983058565
Ni 2.5954991221154633 8.805102813142298 12.666181689390081 2.4657496381490436 -0.46469372917164486 -0.4415466016312202
Ni 7.080417958405259 6.7155213880387805 7.566182228459869 1.26279911743778 2.335942867065835 1.1920271889305405
Ni 7.982726882240873 4.482943464727551 7.745990193062024 -1.234420823405403 -2.959893040040374 -2.5990117147707044
Ni 3.853161624122489 3.9010156957712216 13.335368946746202 2.0483012151176077 1.1939184924159825 1.2165241456306404
Ni 1.7348584819848405 4.38299708291391 2.648679277746341 0.4804026552664694 -0.3474025740569437 -0.48026870079176637
Ni 0.2381240862948668 6.222086555453034 7.041973332705132 1.5231703637058285 1.1889560062043847 0.8651646438084777
Ni 2.9429975842623635 0.3182861481379188 8.030178460341242 -0.25037608272854944 -1.9284785518303043 0.9432315633152337
Ni 7.746544780946635 6.617021757228473 13.080498717587746 -0.23015461347535202 0.247184058153813 -0.6840142281459703
Ni 4.408973682659665 0.3297034248058945 10.750851221188736 0.5086109993798853 -0.19494669811565135 0.06995560325353113
Ni 6.711589193004079 1.245745354319308 9.868167103751547 -2.538829131743537 -1.2165951080778918 0.15981951539521508
Ni 7.37069556356133 2.075679631808661 12.546571550189462 0.32322057749410144 0.36129398732705514 -0.5843302445900711
Ni 2.3015953654061656 1.8136785895318512 9.816492125606832 -0.3986125212718554 -0.24197088938398972 -0.14533314885358198
Ni 5.941222105863526 3.2020958504876127 0.9217194997970093 1.4156152049319684 -0.8768629060820126 -1.771077416068595
Ni 3.0720922891752234 1.910508892261389 12.174345702143915 -0.44834742660313753 1.128589332190869 -0.37178691643857903
Ni 6.550053879054928 3.738608621602112 3.0232802086890267 -0.8335745277070225 -0.2520971791847142 0.48540036559137695
Ni 7.5818933879133805 6.434712582718633 3.4052521505128 -0.8178126368870754 -1.6630196066267036 -1.3507930662502607
Ni 5.488361219685377 7.280718780007841 0.6950219642150113 -0.7904149616004129 0.3429882470393319 -0.7959220074615713
Ni 7.273021322746514 3.289531545740374 9.802009777101665 3.1806888380086447 2.1630066117830036 -0.9132846392441563
Ni 7.912698569252583 4.360424057643946 11.977720184532496 0.37524967817619886 0.10331258144742209 0.14521359255658217
Ni 4.56410063158764 7.255057497788453 2.8988790978965984 0.06397418885911563 1.2541545543889046 -0.3004349470581536
Ni 8.108510753126872 6.307676715772056 5.405850969675374 -1.6465861436610287 0.057795570852229486 1.3659510049376218
Ni 6.822961198126101 8.973825511883652 11.866009676771874 0.37533452458052136 -0.66996134959733 -0.14683235910692777
P 4.736032149862029 3.598737476523395 7.533809319951298 0.3551678198246593 0.41438135407033794 -0.07853074651705184
Ni 8.520704952448492 2.2506808589426885 5.971865404999522 1.4609375830178517 0.6370368309551674 -1.1148413864771574
P 8.684966835596235 7.862590904694811 10.955377297644644 -0.8768469652424126 -0.8201117173338972 0.053495143704662705
Ni 4.644840466427536 7.314457755329176 9.472906383000357 0.9729535158596985 1.248874794047204 2.7319398050917143
P 4.301839916053821 5.633787517655099 11.057313889492358 2.3741144930395497 0.9465601134678344 -0.6999398982372913
P 3.9822192328557757 5.539915635246482 1.4812894013248963 0.3992573539447059 1.7630005525977315 -0.8739056232259015
P 4.6134478244641715 9.226441220728578 4.037994266247761 -0.1118077634026268 0.0957342548795319 -1.0542877932638166
Ni 9.38273669931309 2.1635419331265084 8.20138103868703 -0.5647142701313564 1.324016569487365 1.2742256141071668
Ni 9.129889139345835 0.6303058241415259 4.1876430368573425 -0.4245521239557527 0.3088805067223454 -1.0398682754043769
Ni 4.766330454528 1.8354725950307897 8.913366158416128 -1.3167192644950032 0.418060345583822 -1.8332739442019974
Ni 5.524140484883207 7.33407236027822 5.232435604218079 -0.371082948393019 0.22743438633071153 0.025370360443988566
Ni 2.265797552118548 8.69578964598656 10.231963772393696 -0.8073202219961838 0.03896455418865547 -0.09249569333757618
Ni 2.1732240359949726 0.42741939882272956 3.9352972027188065 0.7997868897336161 0.01073075615394281 -0.8774092655037857
Ni 1.1221594320729886 4.187351831847697 6.643482462117652 0.2917551598959685 -1.292511299790232 -0.19223135606701733
Ni 8.698395652601539 5.839624944058901 9.098373152585392 -0.36357789826522546 2.0883618305839193 1.2613461870413374
Ni 0.6503164308075084 7.797032681345026 12.816738388994704 -0.5516265837094628 -1.8166335074318394 -1.1768497098591537
Ni 1.5539218661191876 1.021971925092125 0.45855885936051033 0.8999156741364179 0.4757258186160904 -0.6528514293899207
Ni 3.975949978507996 8.995842094460025 1.2501792751827303 0.2931579537807661 -0.08860664269581514 0.2736458518897674
Ni 1.714399938950518 3.4950258324831287 0.29042691727885056 -0.7620816618733585 0.9630665957632897 -1.047119043429519
Ni 8.635091022160793 0.8926583527197868 10.617722306747348 3.250641098828066 0.029918127715671053 1.1571116080002781
Ni 5.494389348865933 5.139388184400463 9.058602338465542 0.3844485710666476 -0.6086050579770357 -0.06386825940887064
Ni 3.340167830857056 3.909631283476972 9.745666244757727 -0.25050515210724594 -0.17254570471263186 -2.94336650314026
Ni 4.759551127711096 7.543545212280143 12.050677240898047 -0.4444604328439056 -0.4260125105513631 -0.0911000985416302
Ni 3.3178544788441005 2.0772654934853927 6.795099185053563 1.9941301283918431 1.7229674479352455 -0.9018288319987307
Ni 7.839563451225082 8.688444602431172 9.005190331712337 -0.23381406460481025 -1.8853403258799335 0.43902409231968265
Ni 3.396516927627928 5.5633511466915095 7.477629010797481 -0.5193324995624475 -0.48532606071001577 -0.5791913807016089
Ni 4.81452766583778 7.509796962913914 7.362430534752541 -0.5171375487936578 0.6845389903011888 -1.7089472223967537
Ni 6.794814471875344 2.037210893591812 7.326772759542809 -1.1720797992743361 0.23012967377468752 0.9688729180324216
Ni 7.609307464617577 7.705720435326922 1.5584550192629665 -1.012064108707915 1.04681616747712 -0.08286974021203793
Ni 9.156162508528173 5.855576301275145 1.414765749901733 0.30031796186431503 0.9632789688844119 2.6705570311088587
Ni 5.81908293462054 5.344326028449627 6.615318115181599 -2.120302388046258 -1.8491433071340864 -1.1590594757552684
Ni 6.029613027740283 0.6674270436353982 0.32281837387720863 0.6135402904951239 -1.4119590962366197 0.9265124507883399
P 0.5066438547270825 5.506593991945339 13.120649767548215 0.8043631962503889 -1.5025668285228637 -1.9800818778288929
Ni 4.066492478799968 3.720227464623859 2.4346250475671947 1.530217757470913 1.1409442542117965 1.8558523437231458
P 5.17799603329071 1.7475453753986903 12.338245897540824 0.540511704743224 0.01367826881804096 -0.410846344333886
Ni 3.0693935421113117 8.571953324528124 5.798491772744246 0.1643711393216395 -0.49262696524680316 0.49105216456051565
P 1.0991412526481525 1.001318627115046 11.898328795820065 0.1012479856089095 0.21554251998913201 -0.5426110104744138
P 9.211046306205924 7.94650246288817 3.0014138656399214 0.8762615250525876 0.07407168230443371 0.7758352640140251
P 5.830072677818941 8.991065961340045 8.505346206700922 -0.9027585429018516 1.0666108336055435 -0.3798419255325716
Ni 3.9918827876344536 2.0343081175402515 0.9742922054873842 -1.2356534102609236 -2.3237910621946494 -1.5824324918012553
Ni 6.735516228828446 6.594430183868723 10.84856719520557 0.5406921961851462 -0.10414664731294322 -0.4589969358971837
Ni 4.560326095316121 2.806789686916446 4.707113823076161 1.9742256761584323 -1.6447277502960513 -0.3384186253907785
Ni 5.689450335103878 1.3706667390302432 2.4936691817840204 -1.9571291256874617 -0.8300405464118349 0.3292284742510782
Ni 0.5451496891235045 3.1133710629947013 11.003576363763402 0.06055256477207636 -0.265189236481982 -0.23044540524289342
Ni 7.917706553494892 1.8273949019288427 2.1353154500896707 -2.055045218709661 -1.0863023984972002 -0.21803494739368257
Ni 5.359739491062069 3.2343602526709345 10.726242543064721 -1.4582826618935079 0.23914447567878816 2.5941104208143453
Ni 0.42360683896714935 5.5881870389154065 10.901979201958778 1.7592020047872479 0.4472457088985265 2.2930357832896635
Ni 2.626474432058635 6.448002289050537 9.648452923974103 -2.137615682513725 -1.3041270296522895 0.1549300485133977
Ni 5.318358702748765 0.5243294583383485 5.9046768045575195 0.2069318955019855 0.15401499289829604 1.4761991371626126
Ni 0.6358990006165939 2.3411213447408357 1.8902998210346929 2.331785650364352 -0.5222077642277135 2.2163996826921637
Ni 5.828032387942445 4.945699756806707 12.692676708245365 -0.28930849812768883 0.932831193917516 -0.942896548573318
Ni 8.534662390012707 3.7057506805456284 0.8134747026129636 -1.3357400285718803 0.4260881009843049 -1.6481753425250196
Ni 1.3196873142525143 2.8015220294171286 4.380073903963584 -0.03722186046593589 -0.9205932570904274 0.8922923532632051
Ni 0.640391347962843 8.011272392422036 5.38566693836989 0.5999926337176763 0.1697300896407077 -0.06528519436105532
Ni 7.0190701514369715 4.054658797516289 5.197225765376688 0.7267765588141613 -0.45461834721351385 0.2577510350363819
Ni 8.056529731500682 9.12536340543797 6.200022675247705 -1.220269985826318 0.028561356577460485 0.8867338853388212
Ni 2.2025578399920547 6.625590974709758 2.656198673345719 0.755880418158653 -2.2412414243261916 1.8649530204728335
Ni 5.058713267874819 5.462820500049599 4.090659712387067 0.5745055451901654 -2.3427280083084687 0.12789052789710234
Ni 3.093830650404802 4.349035530515139 4.892270129368204 -1.685244222352859 1.6771791859565373 0.7929492979864924
Ni 0.4323717387956798 -0.13302040811613633 7.996475653794991 1.1725112303848 0.8282968242478509 -1.0452907319715286
Ni 2.6381690026689166 6.388917349036182 13.490187997383723 0.11469691202496375 -0.10137808342887056 0.3104043995660396
Ni 6.948874905640603 8.619900136625787 4.148741200743983 0.6206079959751828 0.05235074568757436 -1.416637989769528
Ni 8.806085861900971 3.941283598697345 3.1775975334978273 -0.6659668837259562 0.9213424765516263 1.2043810825102033
Ni 1.8662995202556707 8.235759923105991 1.4757657801865272 -2.1848275643128376 2.2207294204157693 -1.43295806708579
P 2.7582957061700855 2.131861795771456 2.6708034392434756 -1.850583639125039 -0.8608881279203109 1.1962350563643012
Ni 6.896189056602532 1.6213812686720712 4.287339946863357 0.7027580844123767 1.331683084893687 2.169901282020308
P 3.0975031721824955 6.565680644699911 4.955916044661019 0.38035023262755785 -0.44423777531013814 -0.4490328827059364
Ni 6.532980362406611 5.357829037814076 1.327990366645365 0.6188377914486375 0.45205701424424083 0.8291931108098751
P 1.7680781107921582 7.583405057230967 7.820468192790055 1.876013906272685 -0.7672169262173948 0.26504756869779517
P 1.17226709663076 4.082295451297921 8.846787790128097 -0.19675701185151276 0.2780228979115405 1.2197094853371575
P 1.3681720209539816 1.7322153791902883 6.514371991328474 -1.9800970473375445 -0.45646619905553 -1.035631868725526
Ni 1.0174369171393671 5.806562974014767 4.606181610290377 0.13097559458032926 -0.9994160809266014 -0.17434419137395138
