# total energy = -340888.85982248443 ev
CRYSTAL
PRIMVEC
9.12502301818015 0.00000000000000 0.00000000000000
0.00000000000000 9.12502301818015 0.00000000000000
0.00000000000000 0.00000000000000 13.35539355857072
PRIMCOORD
 96 1
Ni 6.243194579104729 1.933975575992152 11.425512185924765 1.4076285871820662 -0.0433570268293963 -0.1222389860382798
Ni 4.648341349349625 0.3000590362594839 5.888058730408006 -0.010319379648137068 -0.016370985158855676 0.7426292095757017
Ni 3.0427753428621367 1.6653257806104675 4.495799256200069 -1.4930069527485705 0.2679940529206288 1.6674758426258445
Ni 3.4354433227155603 4.649034851080171 5.086107929240917 -0.08934583485468484 -0.12387652164170278 -0.08417586061797115
Ni 5.492843956699379 4.347352473269843 2.884070209333491 -0.5086842758199821 -0.1992512390282762 1.3248213247768474
Ni 7.408031110807395 5.777800167771668 2.486266666664918 0.0002344846083092736 0.7277147543577145 0.31673651243165446
Ni 4.947204095123917 4.481773183699773 11.936435898370455 0.2898008643830751 0.34829808928801953 -1.2136668786875031
Ni 5.4202726506068375 7.8084462349928385 12.525569268478483 0.43723074786468574 1.0747704865982006 -0.8103055298767529
Ni 1.6860122072308363 6.583849929167195 0.45595457527714117 0.30458804999457867 -0.4804088259140565 -0.18916300155433874
Ni 2.889091709364011 1.8028033736684634 0.23391813371320275 -0.7860667119340462 0.5349604359076916 1.3000574875686064
Ni 0.41185151522351676 -0.01821993296554496 5.125960553688115 -0.24037629120336024 0.5615034765035426 -0.25040590752522035
Ni 8.46427987154297 2.060594391953439 1.09957984386283 1.0961697782095832 1.796225118978816 -0.4277343783384763
Ni 6.919258391136712 0.49575609959682565 4.70718862119557 -0.14506575412480824 0.9524733936284757 0.8144329217815651
Ni 0.3717853652434923 7.2120986218825776 2.2917184436943625 0.32243381992674797 0.9524602810023531 -0.8047082382946334
Ni 7.931104791071798 3.7282470533703442 4.084560030004442 -1.5053135380300657 0.08655901613816705 -0.39601365019642765
Ni 7.393494949534237 3.795498471187776 12.556367132830669 1.06880269905054 -0.14607336945371618 0.8529467615860471
Ni 7.982049793198626 9.247389325693852 7.169976604272394 0.9618687188004466 -1.1324832679286367 -0.8003810716741893
Ni 6.588832191599802 0.6018819394204752 0.18591686393208756 1.309228612544913 -0.0013079201781461345 -0.36563760900773157
Ni 1.7441568523234656 6.621007021888033 9.65457339177034 -0.17602235040732267 -0.4738252591592679 -1.5811366558079671
Ni 0.04279453178835717 4.507140747001329 1.1940630671337982 -0.07620698347988167 1.058539626561635 0.5914516861262007
Ni 6.416643011923419 1.9151597790397037 6.932717799722969 -0.7119145541006643 -0.7673660502007493 0.8446063600411517
Ni 3.8635620160317683 4.618411274662898 0.960508109326855 -1.3013499811277847 -0.825697953172423 0.16692193076795123
Ni 6.213100254008136 5.873795407315682 4.891827069437532 -0.5388777686842268 -0.5867995320661701 -0.4995023522103978
Ni 5.5068326166063155 2.780941939489899 9.140217758260722 -0.5468353329684067 1.208123580271771 0.3502708967436742
P 0.25422039687494014 5.81954714694599 12.349731904698517 -0.5014995851460846 -0.4124656251048638 0.7543932920901653
P 3.999178104444615 6.202524352617307 12.845017153120391 -0.6416861568017207 0.22590278017753354 -0.5929447257319594
P 2.190452590998198 8.477356029172872 1.6752200428003512 0.9399917162216973 -0.3685509259997846 0.5394914910088257
P 6.7560482338663475 7.791710943232029 6.10402885683422 -1.1788775389224602 0.18245165097243415 -1.6136035180874213
P 4.651480357182623 0.8711239487799549 12.802573022206417 -0.21387438825808971 -0.29466513445391185 -0.9038214369487273
P 4.079898055871073 6.180706423173417 8.281131539519405 -0.20109960509092464 0.9488694783273013 -0.17822141494117047
P 4.97916904988843 1.1011438727656668 3.7618134496310534 0.5296994446190684 -0.9534115891720291 0.09176550003977099
P 0.04692360459193762 5.802912230435653 3.8346804064613544 -0.7475513294676674 -2.1908688854109104 0.23337594862612712
Ni 1.5490273654024391 1.245081981945066 2.7752506627880362 -0.6811649316226333 -0.029639934353619925 -1.0067298409791952
Ni 1.6519941223429957 6.61853414071727 4.857516983821041 0.48082688728808154 -0.4589208312436096 0.453176986781297
Ni 6.003735731565374 5.652869481022894 9.19369221669949 0.6054677978996347 -0.24197526025936394 0.7340910901977035
Ni 8.795700698561848 2.378929936319644 10.409314062630502 -0.5283537292244512 -0.2568691466520609 0.2907578289797057
Ni 2.343041221763883 5.52874179627791 7.144266852616952 0.5364323924675278 -0.13164305296099907 0.125710489526648
Ni 0.7337595060043113 0.041082677516640714 9.48502681868825 -0.6678859551255402 1.064371916972696 -1.0047333793744568
Ni 1.6633274006237624 1.1454641083612254 11.55013170939707 -0.2681588606332672 0.19119211616922555 0.6337453046880892
Ni 4.215349893874053 6.86821301375941 1.5208456450785102 -0.22899890260435402 1.7769953242149268 1.0712385621855423
Ni 5.725331286842192 7.9597573625706755 8.104786824473408 -0.7388334899786954 0.49250740894980344 -0.5239594568114976
Ni 5.009254249962252 2.84630447759387 5.109560150262976 1.2165943367469434 0.5147312533450102 -0.015417877216966995
Ni 0.8482402166764873 7.6728210215572235 7.259083364127076 -1.0608927001748438 -0.8350549689072909 0.3865255082003343
Ni 5.120606902828755 4.7153463915522575 7.030746094340216 0.241225526577533 0.08353925547523677 -0.4378650390145749
Ni 8.317430880099831 7.511381118704305 9.012313226591095 -0.8352249188262519 -1.226485113498094 0.2113019995452232
Ni 4.677112546144518 0.23137316486255394 10.376205742512864 0.28037622863506556 -0.8506286549758318 -0.02008725766817831
Ni 7.987762057452859 7.651112592386576 4.020894746135755 -0.17435473289691264 -0.6945691208436813 1.051933176988711
Ni 7.565081877707777 5.979901172089236 6.852438586896317 0.15975549492649907 0.371000930202174 1.071258102569568
Ni 2.0413770939990954 5.37520416314411 2.5995602118746723 0.8384076874296077 0.348518947049574 -0.050355312524100374
Ni 2.307864258984208 5.332544681692754 11.753240116228483 0.5343192027792668 -0.23225726164065164 0.3295130953710325
Ni 1.118682166530267 3.646906600395502 3.8911469598665174 0.6802071956950543 -1.062684501967944 -0.087584629189204
Ni 3.9813934350652147 2.5985783594245837 2.5336118473088454 -0.9638104159078498 0.5772532831386316 -0.7270364973437672
Ni 1.4584523893840091 3.402675365947257 8.496033125779212 -1.2432589905223235 0.33415239391525675 -0.11901816510813697
Ni 3.580011058466113 2.9699576611547953 7.342314521819934 -0.22276294899697116 -0.7379220339080195 -0.30951865452697663
Ni 4.104608617533164 7.082897424477283 5.763199218836841 -0.020035321384320334 -0.782885228882271 0.19945204218517262
Ni 0.7937300681532861 7.882149043908904 11.481738751231067 -0.546870042861084 -0.8254945789123653 1.3736321756319634
P 0.3618500404511423 5.591768328552673 8.010751639820464 -0.48960360503944705 0.2684187991628732 1.5733924930861742
P 8.696584701230377 1.7845077030139247 8.30848379527351 1.0702453450343374 0.6951615030120415 -0.5013790004078204
P 2.0531483733728386 3.283466068475489 11.023568620425285 0.3392763454053834 -0.5180870571911207 -1.6903638029676114
P 4.086294696833084 5.902858604839226 3.505630260358212 0.3182858591966454 1.3536017393436495 0.3330810152279489
P 6.806473109695267 3.999625230560361 10.512684145577508 0.05734048559268189 0.11074949734144152 -0.8357545660774769
P 6.413650004454747 7.636193180157063 10.157110295787806 -1.3926115449479437 -0.49595782939224914 0.25535373844879894
P 2.2582515101818506 8.403342969482615 5.937086565250785 2.1477419723144497 1.1680457384142788 0.16108886902594194
P 6.9587697397323 3.912672888581758 1.4794700543309414 1.512026431273867 -0.2181511612565727 -1.235494773195872
Ni 5.328374546286707 2.9349449487849872 0.40520302363304445 0.13380997870533082 -1.2080261354619581 -0.28688009119185437
Ni 1.5758458073244788 1.0907960969440973 7.261353669792338 -0.03598695961757028 0.436757407772693 -0.657168568708036
Ni 6.969683266965631 0.8574665271995816 9.205685234126552 -0.6556333630104322 -0.29404421304046136 0.20011153014604247
Ni 2.771369790603809 1.6232046755025618 9.403158026895003 0.4606807513575098 -0.1032732435690544 0.12381532938646418
Ni 6.583941179394898 1.9373518344171792 2.3774334325853075 -1.0699219002566476 0.182001450808893 1.6782443939962581
Ni 3.9916864607501625 6.761869998393827 10.640161626181483 0.9473347868503298 1.1411908230049637 -0.13765017838702745
Ni 8.082780919560447 7.496835832408378 13.257311231948272 0.35579079812063885 0.23764706519765522 0.8433357208588445
Ni 7.76225536972936 3.9379583266783795 8.076928129955549 0.8696815578422248 -0.8957355746167993 1.6509626754621696
Ni 2.978653807854933 8.357161229241907 12.922438408815372 0.7058416084337069 0.6083626029489264 -0.5205807701472519
Ni 9.536470047058337 4.667002020914977 10.420478527990017 -1.133969879776492 0.5968132075484303 -0.5068811611729722
Ni 8.874020768999706 2.3341351995400275 6.004785109183963 -0.5028185610678243 -0.8511122794804696 -0.12549143153730646
Ni 4.025175294317323 2.461593517596186 11.46129140020728 -1.3705116277251106 -0.2041785011265645 -0.8534270436565754
Ni 0.7306250606826982 3.258208005447178 12.739589377538675 0.6393145712457506 -0.32764030382835185 -0.6276016536841965
Ni 3.0594376344407848 8.313543620399665 8.174916274472606 1.14081981281879 -0.042492364836255854 -0.21914720662125484
Ni 5.630622675508796 7.914478999584231 3.5144851824545533 -1.0022358097635835 -0.2715879409194742 -0.5942958404432152
Ni 2.886427202715071 8.462792492831404 3.8364835109607744 1.0681344693389219 -0.2885991307654901 -0.9665712664824386
Ni 3.530936686007206 4.58023217939178 9.648804552374928 -0.12815406597113413 -1.2591432658527477 -0.09646753350113065
Ni 7.383092423576046 6.084309682627508 11.528869493839892 -0.040397172870123975 -0.2882268350277359 -2.192932709918475
Ni 0.6150849348668853 9.20212921275295 0.42900747053403965 0.7914922538249918 -0.09039947293017979 -0.5261937454586552
Ni 4.602688860429597 0.3714659894465303 1.6725226860694375 -0.7631766947097501 -0.9882027287092852 0.10116853852122577
Ni 6.181399924903963 5.792062578361715 0.1481301446400949 0.1501565383841543 -0.9289591125566193 1.9761362629175836
Ni 7.683743673813324 8.913522992572524 11.186450276875918 0.7804071996554237 0.23862408439894384 0.8967786711693331
Ni 0.2827078054616756 4.6045959901885976 6.031803389104674 -0.037497739835141874 0.8414649861986927 -0.5084310221585953
Ni 7.9751147758931635 0.05797126965999255 2.01317894863418 0.01636455740095246 -1.9843635359233824 1.4181850225416737
P 8.643185067978326 1.3905530949498828 3.6467432624879126 -0.059114803884285284 1.107408584348196 0.1726207809249414
P 1.8663409072183654 3.2214250386599232 1.7790582394154755 0.15507608717295873 0.39472604173325565 -0.9511325633298652
P 4.577385172287434 1.0397415945440251 8.216064652153193 0.3835335154515459 -0.31325729563380245 -0.839382135527735
P 8.59122718832399 1.3430026012936225 12.410352168468739 -0.271331601934294 0.6167708816172797 -0.04599523578319176
P 6.499717219224627 7.563877374702091 1.3913113843420983 -0.7291144629187185 0.8870786702727497 0.6994349335764148
P 1.9633946494037395 3.140221461026636 5.860533099221264 -0.09449935403116629 -0.5956667526488129 1.1327192951988427
P 6.9037732274954395 3.7571277504384817 6.121270587358784 0.43445112823701953 1.807065661237746 -1.9518131127911869
P 2.5561561285652563 8.555420598973162 10.421506918056235 0.8520623020985648 0.17791673921655812 0.2668594250955533
