# total energy = -340863.9940446697 ev
CRYSTAL
PRIMVEC
9.29534984696187 0.00000000000000 0.00000000000000
0.00000000000000 9.29534984696187 0.00000000000000
0.00000000000000 0.00000000000000 13.60468408939046
PRIMCOORD
 96 1
Ni 6.500507517741614 7.8730774255886535 7.609548688138204 -0.034082029285373565 0.6493858394388236 -0.5335604702363713
Ni 1.3677084400231982 0.8967437520878218 13.005560461421771 0.8056040106360255 -0.9558253408198442 2.135936237928773
Ni 6.352757936365033 5.059551723125936 0.5516009158991201 0.6099021795219045 -1.1502339070438385 -0.951120222034691
Ni 4.189804454787218 5.7306573712056075 4.921181149463037 3.630578412287922 1.8660907336217023 -0.6362619004623559
Ni 5.540381565557378 5.733538929571556 2.621336913873481 -0.1781458245082287 -0.29168342611776865 1.4749974035450275
Ni 7.013071683596753 1.1209169090041218 11.788689517901501 1.7272915292318962 2.1710001715114418 0.9203649431297053
Ni 7.750062769411385 3.1286752342017294 8.484737454113779 0.19801813795212347 2.2753381088995845 1.3991542311624676
Ni 4.269549258727431 3.7040945538327996 3.6827468540159103 0.4785792289044855 -1.1878656013536832 -1.1930322331562875
Ni 6.7800558606368195 8.650150058738664 10.281862228575216 0.6069623801672902 -1.221873839978328 0.20647115381548312
Ni 0.8300003535877737 0.6698424100734389 8.14968193127581 -1.688366827142241 0.5051562080620654 2.4078005724380858
Ni 0.012448332140894441 2.2294617077338033 6.996235946459963 1.448665450518718 1.7956679609237656 -0.6390872857262929
Ni 5.098964005292448 1.109167587150709 10.560975549110658 -1.2121864374872349 0.6048371062941712 -0.907396041673863
Ni 8.519429557769877 6.483236758245062 5.294806795796697 -0.6109951554757671 0.2754952463936804 -0.5400607332487344
Ni 7.149062647770353 5.150041951166265 10.059140075726413 0.24347292785081293 0.6070932493181995 -1.5794772658276732
Ni 6.997483382371931 2.456091625540813 6.4658711861829214 -0.8293396636900686 -0.9303763046191201 -1.1318152953273346
Ni 2.73234011933953 7.3334080203944705 5.036848761342094 -2.275194641343185 0.9794437515697326 -1.1401353851572558
Ni 2.633465485989251 6.558807950229435 8.8922520859009 0.5464830918353104 0.4234383220662836 -0.5467944524281423
Ni 7.428992099997829 5.597929074730226 7.556748313989516 0.23559686753684583 -0.16244178350941055 -0.11526229761013053
Ni 3.4692847284063255 3.7305026419542764 13.458229112803293 0.4591018369061642 1.1461409679213874 -0.22534896455659253
Ni 6.799576094728724 2.85626571977442 3.3666557033657027 -0.0989825866135005 -0.2676371838018423 0.1346810684563745
Ni 7.44181968240108 7.465336916807042 12.876711114320939 1.418773548055292 -2.09212541139141 -0.32943441961429715
Ni 2.1462032616570474 0.20411936975921693 10.908929299008593 1.45137693591261 -1.7370455232948663 -1.734751327944051
Ni 0.809711394086631 3.1512257522526625 9.459813117007544 0.7891229822618667 -1.1867823955918335 0.4703198171091707
Ni 3.052722932885086 2.3975588093138027 11.393637161279626 0.12580973410867366 0.44116967790777567 -0.8568291273595888
P 0.2683390808516688 2.192763667641023 1.3908064541636618 -0.5979493780354025 1.2405307929578828 -0.9938558132300045
P 7.919600650174359 4.5861116836007145 3.649374689998408 -1.339180421711997 0.5953168255085619 0.31328712043047335
P 0.5422972005169358 1.4650493406948282 11.192546216409527 -0.47400086550518367 2.8400832322688765 -0.39212717065782793
P 6.406522238263878 6.844825856423672 4.955600899376805 -2.053022017632045 -0.9931623867074058 1.534748041241099
P 2.2772490998606987 8.10347195997053 12.622030620123862 -0.9550537527611422 -1.01390938944677 -0.5114389557469837
P 8.366753441122482 6.908071414881442 10.74187699471999 -0.09536710134810027 -0.6228939637958821 -0.32020055972085504
P 4.281298580580844 5.544332089123597 7.031457885041413 -0.15481897685683013 -0.44777509903943524 1.6094529862541571
P 6.181658436874708 3.4280505577245695 10.787983787645068 0.365130587464326 -0.7512673448666739 -0.28294758890666755
Ni 7.405512046990138 7.829370691921922 3.481764664735749 -0.18157233369127437 1.1031989171422227 -0.4930393701938735
Ni 1.2384380135869535 0.4167021552997095 1.8534202000475304 1.4332190340566606 -1.026185892821278 -0.21104077546403657
Ni 8.480537815179149 0.6114341515306341 2.924830077254756 -1.00636757254377 0.8704055804924428 -1.2843079380438331
Ni 5.0501169433148485 0.5402801096607723 6.720903974128609 1.4652601216526056 1.093479890082246 -0.0820978950430199
Ni 5.377936036514464 5.309308470657069 11.67194829314739 -1.1128701216833994 0.4033955444827956 0.4693232575238562
Ni 5.918990448794215 4.407808288195519 5.74823766584276 0.5946362545017695 0.49393977052095583 -1.4860446624981245
Ni 8.220202959840119 2.882116086921842 12.962964522028365 -0.053939430330932917 0.2881342753139296 0.08952246964186518
Ni 0.43068793825908064 7.58846311717912 0.2505738087581223 1.4653043446269796 -0.2508792476172131 -0.08350505980319167
Ni 8.56975458032872 8.0184288067768 8.837643766261317 1.5790373500767774 -0.8186880975134933 0.24868815350316525
Ni 9.049933748290432 8.782013887704261 11.707415628957424 0.0012081613754882418 -0.22420945163551065 -0.4891829725622607
Ni 5.53144873462294 3.819059437284549 7.922183827819188 0.11539779474673029 0.21745670629270938 -0.08304174701352794
Ni 4.925271103272769 8.04631485547952 2.2488676090260262 -0.31342030357422795 -0.9948300042178158 0.1092816545466634
Ni 8.629412133853407 4.204797853639715 1.556770273017903 -1.2171998315414265 -1.4444349573771382 -0.9738888831897745
Ni 1.319595710661438 6.743162618203121 10.881270986370277 -0.1886364396269074 0.6664083421387491 -0.3228243704969473
Ni 8.59867241283344 0.296659222379195 0.5014385619577096 -2.017557506176848 0.0021985503132155686 -0.2837153203106275
Ni 8.181748098679067 0.11264569373463956 7.013200888955741 -0.532469808275354 0.412064018791071 -0.6744594945779998
Ni 3.546733581003348 8.968339169786272 0.5480222063156043 -0.22486045495594822 0.9540055140022858 -0.2307318261350607
Ni 4.864079817069433 8.468909332870115 4.593825894206844 0.39341709311384504 0.08888586449913079 0.6041444511025208
Ni 4.167356185581528 7.816189886235104 7.046056231537286 -0.9512870866298584 -1.838013515769512 0.3121751183132172
Ni 5.032957728013108 1.3473981012180503 2.5372874335485243 -0.6132032188706794 -0.09043212594032812 0.5843184175155292
Ni 2.4756025642831494 4.319112062621733 7.847017913075961 0.06787866611984439 0.061189684135443 -0.5426840298041944
Ni 2.3777318286861684 0.118708120722611 6.008018518347565 -0.41456030285036344 0.8248955118757858 1.4992243944131922
Ni 7.019030002669567 0.5683883172181579 5.0287404279142995 -1.2891760647694122 -0.8464038182612067 -0.9868729541542682
Ni 5.816137405829014 8.822876244403314 12.698312906350154 -2.035417417176404 0.5244078572028259 1.6538219992878356
P 4.377356723012149 1.214474602401749 12.71735907761411 -0.34600466526815243 0.4502654695614568 0.256719508448074
P -0.037037320351996646 4.358961226217921 7.14059551384925 -0.8006368964387373 0.32430378325595116 1.7017872143132047
P 3.093362201194518 5.525146487616126 3.024960512331614 -0.875028166866119 -0.47588239879861266 -0.19184954724756637
P 1.498289510748471 8.117294144777512 7.684591904267139 -0.17053767314366758 -3.4063481347168048 -1.0447605704996716
P 3.318532749119418 2.7020000983509704 9.112811210905326 -1.9171379300065048 -4.049179460866561 -1.3481054921157687
P 2.7218363743281717 8.22199696230666 2.573884154331018 0.47533552515620725 -0.7460768018046698 -0.20586540191068414
P 6.624823522858342 9.05066808090627 1.709224230810633 1.8382683120927956 1.673665516376324 -0.7429413414994818
P 5.270704883902936 2.0740155769152713 4.854368965376189 0.23232128210936762 -0.7746990935270529 0.5297799201480167
Ni 2.9040717026004503 0.21832266389846924 8.343602443489484 4.612690454718437 0.6824944490673341 1.7960307435798228
Ni 3.338257480901809 6.445274550611092 1.038505269272972 0.24520276605772606 0.21699956415063273 0.0433678254626737
Ni 9.499196583590395 4.241337872789846 5.064915139826426 -1.0032606514836722 -0.8291563440346689 1.2156427714669515
Ni 7.869954188133949 6.650831910948413 1.5773538951003379 -0.05193448408576217 -0.21366664312265782 0.12097143217976586
Ni 1.2086928949707185 3.1828950082293854 12.745153102356111 0.03259464610656967 0.8760949175677363 -0.08493999247750532
Ni 1.5642493112799725 4.70859650485263 1.205576164260711 0.8974638701618156 -0.6523405511917734 1.877035405558664
Ni 1.7560774403059871 5.661146747139293 12.861772558030891 0.055319341397595055 0.5351789796764008 -0.5071719529405136
Ni 2.454976183592704 4.460485034194959 5.036358896419883 -0.460459122265007 -0.18990605036795036 0.6104847914982519
Ni 0.3968900472313834 5.405970810810266 8.96664276849019 -0.8841481268895159 1.0019668723729132 0.44734212526707473
Ni 6.858713108677627 1.9149721458140887 0.9164907927091749 -0.7716579927078839 -0.19222107165437216 1.4668920008290738
Ni 0.4157335798747684 5.415284751076975 3.155701463069449 2.232932904460496 1.6617003735946478 -0.3082202474305272
Ni 4.193336687622896 7.67032726082074 11.538077598210153 -0.7417128684090193 -0.6913133329105449 -0.6949478443393388
Ni 4.193494708565545 4.376343529909283 9.606321769216853 0.8280826513545158 2.5550494502571417 2.5817529276902573
Ni 5.379897355273222 6.32664729942972 8.925271026634833 -0.8384285133652142 0.22745161272189215 0.1367592911416419
Ni 8.848066641731439 1.9745367458430998 4.83722648170367 0.5752923027575189 0.2652751113275689 -1.019621866450515
Ni 2.6483752266956384 0.5478613967680853 3.856696307683654 0.6209934043390595 1.4911747846358383 -0.7879770415828817
Ni 8.853169788644037 4.576212136311249 11.424928096528951 1.2771630994689358 0.7915639876031916 0.4311634586246833
Ni 1.1628296402043106 5.987738854195989 6.4572590448085645 0.9554874978644513 1.7136597973810745 1.1929730977835777
Ni 2.548394446746818 2.283774435257135 1.4494294352814776 0.8434676184510185 0.28729892389682776 -0.3810655135270276
Ni 0.6007872581359353 7.722743737032286 2.792428977084152 -0.44523099246134284 -0.26102250669880206 1.001427454929675
Ni 1.39731412839592 2.9785460433358493 3.436039910677899 -0.09204652161529954 -0.778790232877291 -0.7135631454476808
Ni 5.6413941293082 3.051198495556004 12.844195051998609 0.4506063978406433 -0.4330123389079639 -0.2928728184401795
Ni 8.294528574982436 1.3462268871725362 9.815548004028495 0.05299275014694744 -1.0762907798974688 -0.7827582163861035
Ni 3.768753005424841 2.479590269247639 6.6282293389399 0.7061629963288677 0.3268566315847919 0.7986278364285084
P 5.268176548820556 6.716735939382509 13.469072138073866 -0.5676586974716611 0.8368408571631202 -0.4088658235687474
P 2.7537937861414896 4.694402506062946 11.18657395431236 -0.44726473506192005 0.34986800487830066 0.8621297136368958
P 2.056112733648125 2.394407685810395 5.5059376477347355 -2.346953873464358 -1.0564935426658837 -1.044385703658756
P 6.604587546849734 1.2341993341841402 8.328991083504214 -0.2760953418715245 -0.5805905750419807 -0.5377549679336933
P 8.77393622893004 5.64851436707696 13.39519920645549 0.32388726454382283 -0.9200597531844605 0.21320384455362637
P 4.851875023087208 8.464447565077679 9.503401799734764 -1.9545557085333303 -0.9185867681833599 -1.3693538599715835
P 9.182420365677057 9.085256076647212 4.7543333428649195 0.07343096339664128 -1.1497654520478522 0.8426602920583747
P 5.0171370430490985 3.4713297053111916 1.5134799710117997 0.15445285176666304 -0.7455857211008643 -0.04907027516408969
