# total energy = -340872.21008610155 ev
CRYSTAL
PRIMVEC
9.29116292012324 0.00000000000000 0.00000000000000
0.00000000000000 9.29116292012324 0.00000000000000
0.00000000000000 0.00000000000000 13.59855609873815
PRIMCOORD
 96 1
Ni 1.645483499594865 1.7230461259605636 10.227732359983097 0.2075314767591974 -0.09412782962436048 0.19865834263928367
Ni 8.621214138592888 4.522947302042212 8.754845215493619 -1.9806184670586533 0.7048548190404054 -2.043665259007493
Ni 6.000093515521395 2.800793127702529 2.025409363392471 0.05189591753834288 -0.39754062836391535 0.5272867214125178
Ni 4.459349293240918 2.618481932859724 7.311304208447367 -0.7237760814249407 1.5234364728830214 -2.5638133124927007
Ni 2.5571974235750874 0.8082558980045766 1.8498519147290173 -1.2154352834418358 -0.5896642552084748 -1.1759485382011232
Ni 1.4020736187217735 7.6122589056113 5.308971305896352 -0.261740101591117 0.0378756919998509 -0.14035189358890665
Ni 5.424608187962098 5.211840561731325 1.3598341347754703 -0.5078550950504672 -0.566016790992864 -0.3486480164282705
Ni 0.9601952110401426 4.448172024491764 3.1858830197385215 0.6180109246719679 0.13072362647052324 -0.20350924297368178
Ni 7.464668785843797 0.9876320145449231 4.860776765799365 1.769017962436405 -0.24698968275481978 -0.7863407915310393
Ni 1.7184748739035531 8.719681881072963 7.592454792278947 -0.5749236065641905 -0.6001427861422954 0.5134194765121223
Ni 5.198405540441819 6.75612471700717 10.568443942415218 -0.008756148926075243 -0.10915412782986363 1.0523247560001747
Ni 8.564491590202545 5.9080738399672645 4.344099852660492 0.7976772995897811 -0.124222849237528 -0.5309137766421437
Ni 6.090171338067566 8.709387272781973 0.3899055016724737 1.6846132736370791 -1.005707056141636 -0.32018924686694533
Ni 9.06606571834412 3.327797168201904 10.58837906114189 0.1369572660850609 0.02800111319861629 1.1479685080484294
Ni 6.052737243478755 9.250690412703582 9.338767847916676 -0.4476437156678936 -1.1846386097759534 -0.18348780554643238
Ni 7.990539304491636 0.9985491307379868 7.307795865405238 0.6694039344319632 0.42715099503118054 0.2921354260535227
Ni 3.744738095149762 1.6409122475378544 3.468760830719286 0.8155328397139632 0.6959572594404595 1.3915082845814357
Ni 8.124592200179741 3.4963388598973726 3.966181809126138 -1.6582473820490407 -0.09285436222857556 -0.28186309759323713
Ni 6.470802401115431 4.788312200416759 7.459447152396561 -1.0924532485899443 0.8365017286561465 0.7783775708199047
Ni 8.964290321936613 6.748041405442943 7.192480457569518 0.019521357862379282 -0.5146170963646493 0.07131186017110944
Ni 0.8842566799174633 9.199235953574062 3.2979762523438128 0.2834507537953312 -0.06241867144653767 0.8136168536381728
Ni 8.485711821520853 8.697262305435634 8.844868220179757 1.0371061392782075 -1.0023774775477705 0.8374931460351382
Ni 5.4882154879261105 -0.05597089332649788 5.444861993569979 -1.6740061875451944 -0.4623892494081843 1.3298925686521677
Ni 2.7693704153919407 5.743313651497819 4.288359380169388 -2.1442306167270813 0.2297200970410947 -1.887953852243381
P 0.6856887376678468 2.358673149790243 3.9555610810237627 0.7775980123414028 -1.3110420116045678 -1.2078767543682876
P 8.0606504183579 4.678425618956874 6.1324730728040775 1.1964024351801008 -0.03286358349724018 0.06674738072887859
P 6.142833648350361 1.7579437331274974 8.080710967781256 0.14472945383131203 -0.4005179658246844 2.0431453819482814
P 5.297960348959842 6.750447816586776 13.076534783679499 0.7626349632736672 0.023481628061707945 -0.34658342058975794
P 6.871325843541464 8.965433134950866 11.321137758252867 0.4504076515662759 1.2690062746897566 -0.38615681200700597
P 0.48734842890480906 2.1316993357644107 8.455976384359763 -2.541287877696675 0.6662946993790203 0.8731929134295929
P 2.7005879377942805 3.967029163165974 7.252096274030092 -1.3280264619777062 0.4300211174901239 0.299606023398955
P 0.7971343762317279 7.012235617315085 3.1566465180153616 0.8140236021582883 0.20903120123317548 0.6501080623168288
Ni 7.673729238150288 1.6659890957123897 9.875951286289345 -0.430539194777123 -0.64491186282787 -1.2877498738458466
Ni 2.7077700065749086 3.1195636293772715 5.073974572863959 -1.6136518548268532 -0.06780076169405742 0.26632386430705746
Ni 4.279546712331839 0.722220660356789 13.532629599435177 -0.13987418262153975 0.9354786588426921 -1.5438294347170767
Ni 4.094596827277263 0.2364043441840959 7.845618535772871 0.5468047368407873 0.10934516079474715 -0.8945919479306593
Ni 8.124359921111804 8.062220624857158 2.5170242942171566 -0.19313304194568026 -0.972746542055215 -0.18283423112283353
Ni 0.5249098124228504 0.7369517988453869 5.770982734070536 0.8856216261112491 -3.247348287009407 -1.2616122962185305
Ni 7.3332267068793096 6.533183267600733 0.43666699451338453 -1.0473676691052156 1.1009754271283425 1.7951473125336053
Ni 8.504442805559336 1.1878844445952224 2.4796282933954865 -0.7191601799194841 1.3550775525582277 -0.33221815300702146
Ni 0.2734705087292944 6.2214647584285725 11.078131113841716 1.1093687933983605 0.03328447308474267 -0.8750798460396606
Ni 6.655269145708695 2.7578029178086516 6.280493373405401 0.5597618112220876 0.9494047820054812 -1.7018566340985595
Ni 2.3942490118355546 6.417201683398168 7.457379868691918 -3.2735874232115942 -3.3963408869924474 1.840478432370237
Ni 5.765891176901346 0.426994894124466 3.2244896590622822 1.0722968282467276 -0.8370989959205131 -1.8357249768456516
Ni 2.8099635053047023 6.340781870046722 10.21826745252278 -0.20765386126967467 0.22560453221082438 0.5177224747628503
Ni 8.694744400339191 5.1610086105038775 12.959872157249741 0.5277780592266395 -2.0306655043137156 -0.6772044043129886
Ni 1.403996889404296 4.414621635918868 9.43592925291867 3.3401327152319955 -0.033672452551780724 -0.7630669086047632
Ni 7.051388577006635 7.557199475347389 4.572146795980196 -1.451131138450391 1.3430689581331257 0.34035055230616873
Ni 0.010254656291305873 2.784886657130167 5.916540876551722 -0.47575050120643875 2.551756124217851 1.9889084749815873
Ni 7.216158056638798 6.602504632636007 9.181745339758367 0.16311232721387395 0.3488637319835024 -0.0640297246873994
Ni 3.361561253517303 2.495253241737508 12.576393352828962 -0.889848776818719 2.346957473008784 -2.5778237678391798
Ni 4.3683981013993005 4.026539060371568 3.52331760908018 0.6368555681822967 -0.30961147135109907 0.14890749646840162
Ni 4.179796789396748 4.836849234452984 8.736895618239679 -0.33839060036632046 0.49453369535121283 -0.3835725962195975
Ni 6.245147932195483 5.308951794454646 4.859620945157308 0.6186686128606249 -0.786979967776935 -0.3673934153565737
Ni 3.954718372565285 7.4234067322153745 6.661429186590399 2.5802840564542144 1.8502357688673166 -2.6527428857455733
Ni 2.8675780053159263 7.630646116629235 0.9253264064776331 0.12412900397214106 -0.5264403142518224 1.345509192143502
P 9.214296928339131 2.910085074748493 12.6285576567901 0.38887832470322703 0.3463098552133971 2.064763217328373
P 3.545767845554478 3.9389605605964038 10.68044147604452 -0.46268441205109995 0.9728846102949762 0.6602821746363532
P 8.252150573128313 8.467194534224875 6.007338764208502 0.7386918221945085 0.33183300175346075 0.5892017137497595
P 4.541427424687322 6.659673156836792 4.634985716787471 1.78436024922043 1.5131906267852973 0.35142532206309157
P 7.282719946346974 5.073653098633933 10.623586064027315 1.0291647729439435 -0.4587632226198228 0.9376556118893529
P 4.380662436186402 9.070237450404278 1.672242048221268 0.6464933483823769 -1.595172307965427 3.123192543564389
P 7.392420704552509 5.471770129916133 2.442232292573817 -0.3579826635656351 0.15691314038169749 0.19459265721034227
P 5.464234996952241 2.8256562791345616 13.413098791074528 -0.30514777915279057 0.07876445979441274 0.08152608169994992
Ni 1.1770974046802039 8.518491043588197 10.485166321861984 0.019136720829450917 0.640459226373155 0.6624884382590526
Ni 5.977218672910906 3.5854689838463596 9.81088248642987 -0.40872698399803803 -0.5098716112598639 -0.7939152614441874
Ni 0.46710763092473306 6.655352766173153 1.0323317983788205 -0.5690843741745941 0.8146260116289777 0.09849613389538521
Ni 6.472697798309801 7.507463881320607 7.133965643890968 0.23847933129096346 0.23100873394553118 -0.7715276377776067
Ni 5.544529225156884 7.183453163873193 2.751627081950329 -0.17614730602096115 0.37246954432790047 -0.30430162910241143
Ni 7.020198143763983 3.0973856239705966 11.89524148991607 1.2181321135477086 1.2749840895397462 1.006005304108345
Ni 3.9464492377467093 5.023898922281715 12.902649744305194 -0.12103519553816575 0.0796301502288177 -0.15089521632239172
Ni 1.7749279785750893 4.36089084192356 12.057540449381651 -0.7108778853060338 0.13045674596238177 -1.048852224070542
Ni 3.5941004740109186 9.025565540058533 10.05175309253227 -0.019084270324960684 0.36474775020361055 -0.45550074981846717
Ni 8.736982026052951 0.8383332499536711 11.915231426502775 -0.05408186944606815 0.009560389994925471 -0.15630044649836308
Ni 4.108087595543075 4.908233237611545 5.943438792618887 1.170421694845623 -0.1246833338137143 1.1583071709702761
Ni 1.0353885909128782 8.807604153868676 13.104697226992515 0.781579365586654 -0.49390583195922677 0.3290454117059946
Ni 3.1992910966561476 8.51565723895936 3.672372016091962 0.9260234269670633 -0.9109166532326117 0.18244907986927286
Ni 7.412006475561001 1.640810044747962 0.30616332298336524 -0.2124497399964212 0.13549482260692147 -0.42028177871517297
Ni 5.544761504224822 1.4638784331185901 11.388001610749363 -0.8631866941465004 -1.175884260622091 -0.011167586581045283
Ni 3.9375668861887783 2.2366523098213023 9.406148289060265 -0.2832615206026606 -0.7255871664917503 1.7026192232961967
Ni 1.0305386039743427 2.149231759812335 0.8342386345440683 -0.9074423215307662 0.21467143023808835 -0.658826158916117
Ni 1.0932911169683446 4.973735934769927 5.759355773045856 -0.2281039015939104 0.008168651853721415 1.0265275924314128
Ni 7.450992194323636 6.997945809055569 11.756319095847724 -0.816148104700459 -0.2133743086932196 -0.043398421590293
Ni 3.6545580698136972 2.92753387833196 1.1479194372821635 -0.2953606178590397 1.2617524213408204 1.7407247719186665
Ni 1.436906187749685 4.516285538373764 0.7791373940479285 0.7340532949812325 -0.06496869156190102 0.4452839571864654
Ni 3.5468734939178606 8.128336538754894 12.154933204335311 0.46040152955419417 -3.249539124013139 1.2443185421350893
Ni 2.0773181603788773 1.6949310675774054 7.20474572147289 1.9231604820515007 1.187784868714419 -0.38249581821565093
Ni 8.121349584391334 3.656379137706328 1.4557523822058638 1.4018903991467082 0.6920764363288144 -0.39598408251007283
P 3.2420025716685 5.194168770242638 2.094979731588575 -0.5425845281118526 -0.5708473796122878 -0.9900220413062111
P 5.816351481620094 2.323617592857112 4.289800439506872 -0.6795569637055651 0.5860382284201132 -0.46861697548545106
P 1.8225358963395644 6.610355665132295 12.915731701411437 -0.283096455779706 -1.1583423950835856 -1.667648877868599
P 3.2576488896847713 0.19678961370548678 5.693185041288086 -0.9145959018564119 0.306044322825131 0.5232768289221762
P 4.856648702203979 7.382051766959778 8.58649492175013 -0.1967881221997643 0.14199791383276192 0.5736087444075089
P 8.406578988655896 8.988001369191675 0.5806261278908887 0.1969670709797898 -0.027417729891320526 0.09245944078300206
P 2.647330993097565 0.6439584094384627 11.931753901163306 -1.4379940868478007 0.39195979184202817 -0.9002383475831593
P 0.9407023516588254 6.962880960959719 9.053347045700132 -0.2746529529980431 -0.1702949610052422 -0.4897861533638984
