# total energy = -381166.1994349488 ev
CRYSTAL
PRIMVEC
9.23524273979326 0.00000000000000 0.00000000000000

0.00000000000000 9.23524273979326 0.00000000000000

0.00000000000000 0.00000000000000 13.51671126232823

PRIMCOORD
 96 1
Ni 5.011781370153248 3.944307401641595 11.953665611701629 -1.5083664659237765 0.28993533307841035 0.27297685084720086
Ni 6.531080340053153 5.7977743841780915 12.796918975935112 0.00191392919326122 0.6682369107070556 -0.9185379172232954
Ni 4.093327273737107 6.550178821429796 11.762093436515679 0.24171686439165466 0.4943904849051292 1.72065731174483
Ni 6.744386734809602 1.8560159094513677 11.092191114123795 -0.3100210480846919 -1.118561515641222 0.8676555285511315
Ni 5.789795134705452 2.1189709675931336 3.0153075818772983 0.5551713636379277 2.4978411193669494 -2.098353908799625
Ni 4.982228594328653 7.577479485304892 3.5099785670657453 -0.840029796414063 0.4273836798672769 1.152452511961712
Ni 4.48559419659636 5.853075015939862 5.1326328292667 -0.7095918195047586 -2.7906427182495617 0.198137180028491
Ni 1.5889881093912752 0.3513963574180843 12.619619867948197 0.5344917238013891 -2.151539234573353 0.4745863056950085
Ni 0.5130112531603409 6.106074482725718 7.774041461983975 0.07986257795459795 0.9522864744286502 0.32391940333333896
Ni 0.9199188058679459 5.477948703058874 1.8186196422180783 -0.7754226019566387 -1.584477547255742 1.6826096129434893
Ni 7.983460743195245 6.673450837588132 9.29821294579796 1.7947099678858704 -0.2655944423402007 0.4160674835235093
Ni 7.085730530826101 8.894591292352352 4.624823788175731 0.9832726383975195 -1.8270297630644987 -0.18518010564719076
Ni 1.8940558730830865 7.288019281345444 11.652255927542356 -0.3531045095377274 -0.14728204504983666 0.6875260979539708
Ni 8.991145752116767 8.435101039734594 12.850810309699748 0.620222587611306 -1.4226875383977176 -0.9112385553484048
Ni 6.417828561947843 2.3561966402826124 6.137357019460295 -1.4477241696513712 1.232950923728096 0.5381596595712796
Ni 5.3269894300498715 0.8053112941716833 4.584962634733822 -0.29653381223153447 0.08582419485467155 1.308881513618139
Ni 2.3639727144214584 6.195859509777811 0.3410316448218526 0.6467535440222991 0.8394716099177478 -0.6983465856082425
Ni 3.479765471406321 1.1895731088794492 5.853357614358685 -1.2355891326818915 -0.17055387109358366 0.5558434500042879
Ni 2.2040737267255177 8.384842850347896 6.54181815644417 -0.8983244183898981 -0.18081334403806276 0.6150952936870697
Ni 7.7894190641794525 4.774454109796872 2.416004070357633 -0.5113517953498161 -0.10639224881401033 0.2072324574615399
Ni 4.479692876673887 1.9914692103949028 7.9263610862051515 1.5881141155670648 -0.3577602631421839 -1.243956273699664
Ni 0.08517479402345648 7.147560478996618 5.661730951242309 -0.1331898286228287 -0.2937608774720877 1.8773884180227087
Ni 4.3882639764665505 7.94687071262742 5.814347950270221 0.7519129488704729 1.4272785002025097 0.9065951430391225
Ni 1.8244590860161691 3.036446128310083 5.729044786376777 1.0734805641421834 1.2404148362053091 1.3610085733306818
P 8.812175988771516 9.299981494726213 3.4688882028543815 2.224284484756879 -0.6487700602316956 0.46130090144001196
Ni 2.3940888400352085 4.832017375957712 7.677964464253977 -0.36761144490465075 -0.17518468499737572 0.19476157868803878
P 2.453628448079319 6.639539027329411 5.301794765135162 -0.2840205102558721 -0.8943039843765952 0.21149534650295188
Ni 2.836447717917147 6.403403113248464 3.115521044698495 0.6322836325408981 -1.274652160121624 -0.6338959713333405
P 5.387489503308283 0.6228090505911509 9.606393909718044 0.26615957081505126 0.5170712143320966 0.6849539663514203
P 1.1508866782765672 1.1011456624667983 6.856311408575538 0.23099125044403443 0.1838127929860189 0.3314751041934098
P 6.61884284900975 5.026031349246169 9.021634058001057 -0.9501894826903056 -0.7521479476994143 -1.364971928853804
Ni 7.9506571620299455 1.128463509619657 13.21864078104904 1.5528408941870677 0.7820421641556854 -1.3105051652644915
Ni 6.5898441877318685 2.787463991987883 9.031366156489794 -0.037260427013355184 0.34836930884558714 -1.8513392863441407
Ni 0.5235006415295825 8.233458756186415 9.946393054434525 1.2485685756606948 -1.0668445468829046 3.7821032917745114
Ni 6.8853072992806865 8.234770160613632 0.08738294049210034 -0.2059682460371356 -0.8652188940851808 2.223774120779364
Ni 0.8165127197334487 2.493672459321643 12.789011761353544 0.4906099348167744 0.23156589200058186 0.2780383245305082
Ni 4.1088332458025745 5.209424793722662 9.996108211565447 0.17139282205511128 -1.707056433131944 -0.6229865235096884
Ni 3.1980905768281644 8.488803974553347 1.7318286807667143 0.11224999314636798 -0.37955267642692697 -0.5769090124253355
Ni 8.421802290613527 6.444804705130231 0.5708266414399354 -0.38446939700225397 0.9481315717200122 1.1003555341561564
Ni 8.759137991408817 7.054958702998743 3.541688695525534 -0.8747808267420032 -0.869701869557199 -2.5667317716910762
Ni 0.11167716926840522 3.8970691365344714 8.397607802455632 -0.3749249478469285 0.28261231705443585 -0.4781475406837056
Ni 6.6852996536453055 6.860658437194487 2.1642421260594324 0.7420134303685737 0.9092181824842663 -0.5944745321129246
Ni 6.3108105724930335 4.060726867905603 4.3344576069324114 0.09087512701501768 0.03555989938248069 0.9838105131788606
Ni 5.643601246798165 9.026396672530039 2.0136790449513295 -0.8015645504593292 -0.2835430563988213 -0.771172311320717
Ni 0.25295329057362986 3.1740050645311206 3.245834933221284 -0.4622519524993717 -0.43346613861593086 -0.8481542252934102
Ni 7.825805919413484 2.0351703776455206 4.34040510306711 -0.12673224592294302 -0.3144050360850005 -1.31506913048609
Ni 2.0768582620430878 0.10989014985526183 8.73334950040488 -0.3698285071606276 0.6593969438179225 -0.2521689129629141
Ni 2.1565768748299288 1.7324760712621219 2.7464604390555043 1.3475064250791888 -0.746476865456566 -0.5702380281630631
Ni 8.302843132677094 0.8853965460835981 6.237475359284305 1.8365387309961982 -0.22548420458287619 0.2080328418756482
Ni 8.623721631435062 3.4832286873232654 6.032102961312515 2.4264510976597373 -2.8226370117679713 0.026424512740115782
Ni 2.4040167256637828 4.429490098741859 12.249978365555403 0.4755856934938003 -0.4077494505761171 -1.0246098065834097
Ni 7.512971316825271 0.9085262107875651 2.162497588761537 1.1848908349960754 0.7906026521311869 -1.7552545901037255
Ni 3.6783970659173697 8.853771520744633 10.770534084427696 -0.9385097323595322 0.4930892495952024 -0.60925760395937
Ni 7.085111769582274 3.5233096395353702 12.737391373706181 1.1911874666380646 -1.8076783551210802 4.653831190622804
Ni 7.480684909236904 9.036740144068647 10.066259113179076 -1.0232687191744827 -0.8025351419027146 -0.5874867879411818
Ni 2.8186421704828293 6.915635835470676 9.169533695187969 -1.1549369689464626 0.28140724100274117 -0.0007697882864889969
P 1.857521253969933 3.5089673080179975 1.7894769111580509 0.40504259316791535 1.2026512443032902 -1.1764619875024318
Ni 3.847595942755613 3.3976272250988417 3.5054643805585384 -0.6489870613385081 0.5097669673611995 0.8989869916745614
P 7.344474318412863 7.877467865651852 6.740338004521632 0.35389178132571314 0.8618995999039608 0.1801811097707026
Ni 1.1493536280306664 1.3320451940813254 4.505714095787441 -2.165136513641813 -2.394818558356121 2.3503186761715327
P 3.8457858352363563 8.684397174299932 12.98171987136025 -0.2080179294773127 0.005751557771796546 0.6508958483254468
P 8.497512808179158 6.569720594443809 11.888730775021042 0.19429440924363314 -0.8425188813845039 -1.235592475116001
P 8.979047584513573 0.9857328376293155 10.986004296489051 -0.19223726960428827 0.10523859482554135 1.3188090571444966
Ni 3.248219472820631 1.7032742346504455 12.596655514083999 2.6051260551985584 1.442336937197529 0.4420235412676387
Ni 5.979366956377773 6.795873211441511 10.383483226501484 -0.5073177344897586 -0.5034263698551523 0.5694831522749096
Ni 0.2767792925579638 3.2152404220488737 10.628473891038874 -2.1607067600052337 0.5575190379344979 0.38646842971015377
Ni 4.139706661296829 8.593734799215545 8.349217902615592 1.7126604095822828 0.02191865444996225 -1.1740436078689265
Ni 4.0425519107734775 2.5638603019050525 10.085818433153735 1.0152376213398902 -0.2931484406990693 1.3524586268781418
Ni 5.121671520008509 5.39756515281598 2.84083445807861 -0.17021654235882297 -1.5801254409346335 -0.7177087921849382
Ni 5.9706950637217435 6.746991073179144 7.973304747078274 -0.7874034284675987 1.9521075041031541 -1.2497376562681317
Ni 6.623959173324383 0.6730570812111605 7.692224602113587 -0.908441709329558 -1.6644028601274756 1.2919978504889231
Ni 7.243136003061843 4.930197238392479 6.678390768772061 -1.6887352662252528 1.108612117737994 2.3203956633598555
Ni 1.798110939320055 1.5962747156805266 10.713696708323047 1.5886440199286058 -1.036565179173073 -1.4558046326666605
Ni 4.710684760712866 6.272530492557741 0.7026274039963998 -0.017937815425343298 1.1557766912389387 0.06451412052298568
Ni 2.340524433853133 2.4769751409807474 8.199142442308595 -1.5760674688151761 0.23234827869256114 0.15121891821039762
Ni 1.5942891385548117 8.122774375480867 3.9181430362701404 0.2604298674201257 2.004265931274264 -0.2681953702981575
Ni 0.874436160349652 7.7986358361397485 1.537728819723518 -0.05664757329071534 1.1123456166384973 0.13318622907840288
Ni 8.943150197129137 8.566158365274221 8.09099498270274 -0.8917382805319481 -1.3149220633852645 -4.3615540967850945
Ni 4.6512005641234255 4.909787352588618 7.607380429769669 0.6431311167783633 -1.501327042578492 -0.4964949328426417
Ni 0.6795513036986148 1.0302097652453288 1.2155804751293358 -0.5530041807832798 -1.0016331431825782 0.20029150736733248
Ni 3.7605814884370754 4.062980267062228 0.7138629999552123 -0.0400089362927698 -0.6374083553619733 0.5661312050835411
Ni 8.571967332772243 2.93248500410463 1.0138559979233943 -0.525003838915612 0.8505263250700127 0.9268641777008039
Ni 0.9717783862946403 5.469184457978392 10.362694695757371 -0.7332534247877566 1.2003251672732747 -0.29422264759985456
Ni 6.763632980065368 6.612433590752791 5.127010413666071 -0.06702608831156198 -0.2528643963680419 -0.9004934010167588
Ni 7.165827788553195 4.1348858647404425 10.805501482897903 0.8252405539200304 2.2659463832720395 -2.0374167069946205
Ni 1.1972568305938436 4.826716346794176 4.320103269599859 1.6875258192981841 2.3209957588376997 0.9403956365283354
Ni 9.422994924096082 4.702853275119349 13.177549493313432 -0.0013423729605073658 -0.15452689953770807 -1.6223925771339607
Ni 5.857609519980448 1.2053376677333807 13.574022145582221 -2.1358827589830183 1.0491317029841738 -0.14821021329106088
P 5.91171880546679 3.6309740959613426 1.125758507107462 0.10779967068449822 -0.06044612110119912 0.542429233480911
Ni 4.062869444152886 1.4846113992757892 1.6150850574928803 0.07830114700474902 0.8408530636463067 -1.051855786783556
P 2.2822038778117864 3.7784701530533997 10.033725201093176 0.19625718939695877 0.49050194848400036 -0.5239054636451107
Ni 9.046621853484995 1.43983894390153 8.73989174615305 -0.024863596010899113 1.8319824790840835 0.4056452597489208
P 4.206338935538842 3.2733116265442 6.0228843423037315 0.2572221591161054 0.9116183072853267 -0.2583159064009164
P 8.372449154986457 5.005833874018547 4.684959992881802 -1.2740767472341283 1.263390985385508 -1.377020889598538
P 3.523762166415185 9.463445286005996 3.8306492728686976 -1.3183449730238845 -0.8083324653107821 -1.1174052905495917
Ni 5.802336593946014 8.605796025848957 11.813726753502467 -0.998891832992015 1.024266564311378 -0.7432568158573716
