# total energy = -340861.4895076742 ev
CRYSTAL
PRIMVEC
9.32229554077987 0.00000000000000 0.00000000000000
0.00000000000000 9.32229554077987 0.00000000000000
0.00000000000000 0.00000000000000 13.64412183600690
PRIMCOORD
 96 1
Ni 4.2305508169428885 4.475000043539651 12.038071922754416 -0.858952858570811 0.8807624982467348 0.8615162484226131
Ni 0.056322511338938876 5.401076855763063 1.216243507058797 0.11917243129781412 -1.2555588909355988 0.6408037541967674
Ni 0.6981420316992673 7.3253477564265195 3.2147189458500685 -0.23523074244667877 -2.010459461679486 -1.1668928557567582
Ni 9.335253261449592 6.440335654871964 8.065817669803867 -0.31378411467154993 0.9364831888478066 -0.3576862153711388
Ni 8.768308552247065 0.730510905339313 6.206533421704236 -1.2885448589433164 0.4925547172479711 -0.5607689123303633
Ni 0.21703422066373765 4.202928856054848 8.229315813185174 -1.7203474938138952 -0.5523999715403777 0.044275424878607625
Ni 1.7206999388301303 3.201071105573291 1.958750341952862 0.605264680749893 1.7062298234655904 0.011313882350922452
Ni 7.4401704672797075 7.657985896287157 9.574434458988698 1.7869460076697354 -1.4203943714881668 -3.407856086720899
Ni 4.742745686018698 5.595791637088917 7.576512764536526 -1.6627720093922718 0.9083704897719904 0.41094867423970516
Ni 2.9553820137054836 3.4120160029659967 4.394512278399166 0.5902157568365706 -1.509135739989633 1.3965820995599174
Ni 1.543259370641481 5.984447449233132 11.708703111845326 -1.6806260068545573 -0.5674180422157648 0.7540238245658886
Ni 4.833824510816592 5.665652917849963 10.177122712719381 -0.2762727479896532 -1.583255759033499 -0.944108309493232
Ni 7.74231537930883 1.189804545440649 4.139503687948917 -0.9870992112324612 0.42436854719003686 -1.2173823798658776
Ni 6.822493827212275 2.3081164084478236 0.22539538729231806 0.791244913700876 0.8000702253019899 -1.0716075154891866
Ni 4.094771586320441 5.607584340606761 5.232602471166083 0.48573820854676986 -0.316699488546132 0.36285130451184605
Ni 6.660686748193131 5.6222016995917246 5.7761845761899 0.07209167575992746 3.0957262198233204 -0.03084012530930818
Ni 6.758785261330105 1.28395972767798 11.680459353862707 0.6473688090087947 -1.0551398568514667 0.24122141281247486
Ni 3.2289261238431077 9.139391837805402 0.2782332246589486 -0.3738016328757627 -0.5954242976207036 1.527716588315614
Ni 2.083598249140509 5.297851080227026 9.663980698444036 0.5738293450587473 0.0997955694330991 -1.70830058995169
Ni 3.379518481651211 7.2103199550773684 11.13799685650094 1.004000357863174 1.060739205316115 1.9921069273142273
Ni 5.9651782649079275 3.4302970239924724 10.959190572055086 -0.8911358710612588 -0.043515149673815375 -0.6249035380267431
Ni 8.38748346813051 4.355851787680708 12.59926850469283 2.1112181663568026 1.4418959930053683 0.8551275712874498
Ni 1.3270380541253766 8.855499979916942 12.19327415557404 1.7891520141821187 -0.00024888278601247464 0.12771106489644457
Ni 3.5162858755723874 1.3359967798808297 6.190473903640846 0.49329442362747306 -1.13792423643855 -0.6668462010071161
P 6.824395575447563 7.991416431245833 12.594165480261472 -0.32393071618724856 0.7678489033744389 1.062812800015692
P 4.813884121231873 2.914997830591412 5.6572078505639425 -0.6263225298614568 0.6842008902354797 -1.3431404348010092
P 1.8106600881955013 3.194480242816678 8.995119063961525 0.18936020516680938 -0.5148883477481649 2.250605382039595
P 8.683140062651 5.976001449717584 10.579665015899312 3.0687219233203344 -0.4610517615436834 -1.0738245777451634
P 1.8459449757963227 4.896461012742594 3.472783384690159 -1.2365494397126315 1.3462998063655975 0.6318619716224473
P 0.5550214935508886 3.1738686479724465 13.58528767550892 -1.5055256540408717 0.8472430263330505 1.6461835089059713
P 6.5346586384241725 6.720647751376349 7.74610862125461 0.6655009998331314 0.8401493527110627 -0.653963431507177
P 5.6757023521521255 6.088707999544251 3.6630915170414013 0.2284378878945614 0.009970223838834443 0.711520146875723
Ni 9.151874391173301 8.894318017425482 8.176267291945416 0.9938290737571271 -2.146664422979555 0.2788893596768939
Ni 8.809596998002426 4.3771066208986396 3.598828274590605 1.0783512619709235 0.714223404739499 0.7640508697845874
Ni 1.0117766726499253 8.555051725627147 5.431069476338524 -0.6852537569800263 0.19892959402279933 -0.31456084493657444
Ni 3.107615095481287 7.586399990900973 2.9074122789293813 0.049409146560747165 0.03429388818586352 -0.610243107801091
Ni 8.461894028983814 8.451266612374848 11.303895490914536 1.0511083670945702 1.1057551079051733 0.5824188864999711
Ni 7.387201185549756 7.898202800830875 4.277309585563286 0.69603824919004 -1.0157320444778057 0.15343340936321317
Ni 1.9666966664418817 6.5950018557135035 5.121893689215996 0.36436208472941767 -2.19153171580589 -1.3702108086552403
Ni 6.9257289250435825 4.184424099941867 2.2274160949751596 0.2693747353182393 1.8031501282334235 -1.0554345052737502
Ni 8.39732781193671 8.232901167946409 1.3980991142878025 -0.06624524428147946 0.2803795710691752 0.9473769529421748
Ni 5.639559813386369 7.927111238466316 10.63496487144702 -2.525951504449921 2.0589836345321184 1.2502331078473112
Ni 6.892933090280124 5.084799344103069 9.143512292315194 0.8132574134162252 -0.09214396642511229 -0.7874088277842375
Ni 4.771206653481131 7.289867100625006 13.298720318877676 0.16542580583839897 1.9607559238067718 -2.328292549609429
Ni 8.886226265130235 0.4330075641256329 13.374786519371114 -0.5409703895471974 1.739273898404753 -0.3120666177598109
Ni 2.23991449624502 2.10976593196627 13.309008403938776 1.0286587798418028 -1.1114130775218989 -1.28025433679975
Ni 3.0193795707410556 1.4558535301803706 8.607980921487433 1.390891219822727 0.35260211598001207 -1.7347356442147672
Ni 4.850986856410545 5.361848637262598 0.6996270733359412 0.1066907538910356 -2.917711778686633 0.7880382338381203
Ni 6.706720242241441 3.682409177302015 4.7681153803692595 -0.27611076849049226 -1.7546925469526684 -1.3484734169781485
Ni 1.2231131064440135 1.2895531048405937 3.978803165378443 -0.4467782823438047 0.7844140068219716 0.1482552075963834
Ni 6.778995997477682 8.891968799017183 7.569485618361229 0.7890440493948153 -1.3662237989830341 -1.19236194656214
Ni 7.614450777371481 0.8167151019399884 9.4179914286685 0.5687169635328464 0.734673959284367 1.1287381990639076
Ni 1.1079361483705261 3.2872091138775423 11.370751263680205 0.4371142768914794 0.03699200384331694 -0.39763138830550876
Ni 5.216579310054248 8.056989456182208 5.746958248285716 1.198974309672335 -0.9984794280449449 1.4525614431390144
Ni 6.002551346649458 3.829142104867915 7.114454131657805 0.9758390649376096 -1.2660531055987034 0.7664281117675122
Ni 2.305207852323264 7.384702810417123 7.234413427205327 0.3046394720578044 0.24021482592483145 1.7028287682038414
P 6.818438628769379 1.4153015457514213 2.0505749503724373 1.2491581296155776 -1.6681404727930367 1.2024756379573742
P 1.8797010069726965 0.3214877424869676 7.085187717883955 -1.270882922887179 -0.5617549303927164 0.6138796761124138
P 3.083722052701655 5.912115760225265 13.219666322749875 -0.04252373229482354 0.11915649045821415 -2.039429366549275
P 8.973799906906223 1.4699581629254281 11.116971351746676 -0.8821416379824486 -0.23353869945623648 1.1905500901643817
P 7.518039599678562 2.9835912791955983 8.467391386505136 1.109464181325644 -0.5734987011922058 0.2751270644209843
P 8.757019252673857 6.428617529716287 5.802204034520851 1.2589710019409415 0.22519058460185737 0.5795346229736407
P 1.228501393110665 7.9787194650867 0.8138568862098928 0.25288239409017094 0.39918896260061576 -0.09292583889645932
P 3.5391441435769355 1.9995670795675085 1.3527125875313006 1.21529618676081 -0.4229158739039104 0.7505628626004816
Ni 9.22923079733225 6.878567433267477 13.082638836790636 -0.4851455692680935 1.1311216116944198 -0.4865344791958202
Ni 3.617637869758948 1.1696404207694264 3.587298459799404 -1.1163133430369936 1.4890230284001582 -1.1284273526917081
Ni 1.6942059756698835 8.012382273310363 9.99416893910745 -1.4921829141853784 -0.8159786690021301 -2.02791905191683
Ni 1.305997633698678 0.9598328433997857 9.90934350997736 -0.2251147370585994 -0.3591604859238201 2.5218079145951924
Ni 2.793882570430283 3.666346862550043 7.205842456658695 1.8349035093856205 1.4862503507510274 -0.13250617229224276
Ni 5.497637190180317 9.141880890642765 3.4737249365125327 1.4056876614056113 0.24773118890653464 -1.0055129378529586
Ni 5.566044192879083 0.1721417755565999 0.7396150589009938 0.7295649201925758 0.07281364152761653 -0.11351780411519803
Ni 4.161425997508254 4.696982538533247 3.0128399806084327 0.6981388404728105 1.1094333280877087 -1.3366041763443883
Ni 6.832804285782026 6.0847833132351505 11.331047608120917 -0.8699713211685016 -1.107678807290447 2.981416515934446
Ni 2.502803222887865 5.5243082769507135 1.4826243655101672 -0.6502281328344608 0.7066846731602926 0.9915186804563956
Ni 5.835374625554206 1.4332842533292243 8.138595896755215 -1.8500174822089233 2.25984566969094 -0.006759173100704488
Ni 8.156588858857816 3.5610328928732975 10.560781774598327 0.941503010659901 -0.8218243291496298 -2.1163251485660646
Ni 8.81401576596089 2.4301172866597 2.2802874926047663 -0.4299046465169177 -0.5599759841154227 -1.3376040783638126
Ni 4.490419119917922 1.3319602260284769 10.331601535425975 1.2711107226272689 0.03501199729881067 0.5277546621878717
Ni 4.538997600575223 8.777034220620742 8.540046559158908 -0.2124448549004148 0.37542836984590827 -0.4005925278163617
Ni 0.3520965667798441 1.70912164810352 8.060564556418644 -0.3096608365317957 2.596111510404774 -0.7104891345080473
Ni 1.5784976467659475 0.9698449885208643 1.7494899833156303 -0.6628003130725165 -2.6305912893491983 -0.6881007395105181
Ni 7.046089079287758 6.284243142853955 0.4750734893065965 0.5654280083689295 -0.0795751286211662 -0.9582020685821367
Ni 4.671019946203448 2.322090529059087 12.632764443831142 -0.32606884557617394 -1.6516866981123874 1.1504701914243607
Ni 1.4211093357052684 2.5399898587239753 5.847065716053595 -0.8140804235381528 -3.574409578405838 1.2564775460951263
Ni 0.7020508701064071 4.503796613631841 5.879811210422589 -1.1672540957509188 3.068857420456934 -0.5872983260794595
Ni 6.050896769924983 1.1167736842874558 5.757287351446009 0.048910095437141574 -0.18746684479883843 -0.050806026908273794
Ni 5.336324192810538 7.314515249321591 1.827602427621058 0.135361896573483 0.5668935371708623 2.2334327269150505
Ni 5.37317522601689 2.691402578515929 2.717404324485866 -2.3043542936262766 -0.7638037867707878 0.6477963834645166
P 3.5745781879020937 0.3157144450256231 11.97071088158506 -0.30949397193662825 -0.1538159895136125 -1.3440058681250984
P 3.7323021015925297 8.703882169629026 4.5700026224171175 -1.9983958456467328 -0.5504503040131746 0.8208331688809541
P 4.700608911393675 3.3690588663571233 8.967598716091938 0.11136784765173079 0.14627700082409 0.34088894130814196
P 7.875530978731747 6.448856232749678 2.4918392714196154 -0.10510052658578029 -1.716066607050354 0.7526086893859169
P 9.157961849985279 9.116626792753564 3.507002733941503 0.032507228599085954 1.1298196050535445 -0.11797378300402263
P 3.6616670703239893 6.930800253671019 8.981761147067676 -1.711729156017265 0.16763592611584033 -0.23115425838445997
P 8.601998804612018 2.8120890130945906 5.3624396707827815 0.6082003663394493 0.34658316347944185 -0.11823783529868667
P 6.471183129923777 4.315971008511272 13.214113031456927 -3.213723142755794 0.25008554807132416 0.2611510618568664
