# total energy = -381162.3543949787 ev
CRYSTAL
PRIMVEC
9.32416688073175 0.00000000000000 0.00000000000000

0.00000000000000 9.32416688073175 0.00000000000000

0.00000000000000 0.00000000000000 13.64686073119114

PRIMCOORD
 96 1
Ni 2.6659844686275984 7.527036353022096 5.890926639487667 -1.8880376702064385 1.0212064373288154 1.025746234180698
Ni 8.73546704077286 6.694341621694015 3.7299325270821946 -0.2727562501959625 -0.9111925326018179 -1.5089765887039497
Ni 4.108246615672306 2.1741253367504623 2.841044771087837 -1.3293804049024396 0.7067605207035506 -1.9442982924713808
Ni 0.520520688728705 8.588182499301963 4.550832187192203 -0.3670573721733936 0.45322198108661943 1.8239716929644654
Ni 5.517930123321007 1.7325514373468986 4.909253165550094 -0.6329423491708196 -0.4625160047940357 0.20821693286199627
Ni 1.6927558927154867 3.374005763388995 2.5903654744943387 -0.5769676335774128 -0.24932244465305448 -1.0286904044106864
Ni 2.5457027147041646 3.711326151891946 9.70065259025595 0.3367746620294522 0.46080416430925153 0.7985622732978956
Ni 1.7818389839545938 5.399354691953232 3.892180491707845 -0.6347904581231519 0.47570962066617434 0.5889206921742309
Ni 4.568468849017488 4.381892267931603 8.376880092242889 0.5081821393725829 -0.2084781569431829 0.4640031308625234
Ni 3.667847561307064 8.139913848013359 9.13624584484574 -1.081063518695764 1.1949703307192645 -1.4996928494091786
Ni 6.930867765242521 6.475475450388219 1.5814803516691571 -0.7327669720696413 -0.6937391687432182 0.7841795222136624
Ni 8.409839157651303 5.507682863820089 7.564373114823305 -0.18191480463235768 0.034496748225288976 0.5769079839840711
Ni 4.1202934393985915 6.919716061545435 -0.10581157920143552 -0.7050250260696825 -0.8575953161016521 1.0137972893489378
Ni 1.9225406635440991 8.313017007826426 10.646857865453267 -1.8316459216802712 -0.12883566541919103 -1.0907941157199665
Ni 0.24759299732616022 2.5694606921457854 4.357551530054307 0.6568975744348364 0.9459409918265967 0.8175480703717791
Ni 6.813047591399381 4.191567371723454 1.0758270471754066 1.0793635052855217 0.7154935297011742 1.010804268158885
Ni 0.35622979911975083 6.451745445447512 5.800502733038157 1.7950300702294504 -0.8517761383167137 0.5476413738094698
Ni 0.4503283597724563 6.274511679666377 12.104383673829187 2.3485009062365036 1.0104821089327758 0.3908729865357527
Ni 5.613111219759024 0.6751051205210474 2.8751479117835697 1.1401137878907008 0.012373948184320626 0.07436993027114289
Ni 8.04066741477607 6.569295218448497 10.097776320876276 -0.47719057608707505 -1.045072959533768 -0.1521491433341509
Ni 3.1312976971388418 0.2727057762286396 4.472677019642884 -0.10143284792620595 -1.3683534437315272 -0.9200522969852929
Ni 8.516190606120349 4.120768971914102 3.1280920485342776 0.6119698606842106 1.3169874305547256 -3.561623739495079
Ni 6.563579504095392 8.104444716856403 3.430302286308647 1.0250872604404604 -1.1574057422019293 0.6900095264974568
Ni 1.3406753478977456 4.566921037300333 7.799918356006484 -0.13998448294715893 0.29956180042458086 -0.5740543165853597
P 3.4414008422540014 1.4644163677673494 6.076715328464519 0.980204540995157 1.3779696266650525 2.4932128765663193
Ni 6.465983448411936 5.764144076352186 4.044506610259857 -1.6882961218053052 1.5628815662525213 -2.3946627495045467
P 8.820130476867805 1.3226890298110556 5.7666308316833 -0.3476378299962013 -1.648376145681916 3.251926907519025
Ni 7.791665535820621 0.7083690861894079 4.112058335129973 -0.6757373328491588 -0.5661785133817088 -0.35073318109207335
P 7.452405720587742 9.388783447916522 1.363781566068107 -1.4117675490511044 1.0081616883297155 0.5532561488930859
P 6.347221533704744 5.77688088843431 7.672237875591714 -0.43889913670604414 -0.6059041141061049 -1.4255576608566611
P 3.1671397949746307 0.044366251280502506 2.260479244317214 0.719324216301174 1.2809572764040456 -1.3401780097385758
Ni 2.0100572947321105 7.724391671126235 2.979232655262012 0.8913317891221488 -0.8232587476033112 0.20464592768128625
Ni 5.209290872420266 9.076190750220155 0.8714040105073941 -0.9627084410929226 0.017557292157472988 1.0957805131909644
Ni 8.050019554247791 2.374893299965918 10.585447036950125 -1.316454697979707 0.6854198502442453 -0.20487475586264073
Ni 6.373375822057862 3.2206698375540443 3.3674583333420935 -0.4419458939521679 0.19447824311966508 -0.33848213163886226
Ni 1.3324887292973755 2.1605213771400527 6.868287686201241 0.4181091965438864 0.4463645918451538 -2.609259617750958
Ni 4.598306183324076 8.925931799485571 6.975496958031601 -1.1272965815213745 1.0981508131953541 -0.862227929777657
Ni 5.641885599030941 8.458501985071955 12.563941094069351 0.9291414037707546 -0.029992946817664477 -1.3443951331437167
Ni 0.7784262147245798 2.3544267534649927 9.000459866083247 -0.18664949110386567 0.6786655622395474 2.408421750961852
Ni 9.345332829832552 8.433233492581063 7.210046378182296 -1.8910188643219499 0.8615764122365872 -1.6627822938049168
Ni 8.638691511782834 9.159679341276778 9.622538449041304 1.9033447328771544 -0.5471214967502577 2.1671257761577
Ni 2.138199321411936 1.6295380406534028 0.3504077892631778 0.8053160470819614 0.2678881234703838 1.2031942612909539
Ni 5.578425318627616 0.1619430643657046 8.927448841451723 0.25560107857291464 -0.1965577513565131 -0.1901726737657757
Ni 6.269029069487541 1.9771989303269801 0.8512815257676917 0.8692233872588838 -0.30835548745681085 0.3341719342992826
Ni 4.625467481710042 4.388437833145111 0.5237039593325392 0.09559078732313216 0.0005700135708570828 -0.15041133470743773
Ni 7.977244431040629 3.1848370638852255 12.954937914573156 -0.46271140863429344 -0.010103921203221308 -1.279058773829752
Ni 2.729472721531836 3.015006686678914 11.890864912281152 0.11411815670335829 -1.4995385832195014 1.2857256443269662
Ni 8.404925321657688 1.9629982240304384 2.2814278502505303 -0.45101905989802976 0.14756409506662974 -1.5319758778126003
Ni 5.44324354588483 2.416106117976893 9.425640947535431 0.8859571550737968 0.22395825485665302 2.078940023049387
Ni 1.0478592083464655 0.9159315698764916 2.9835180424017955 2.056115568955704 0.024844055626873342 -0.6532849173829136
Ni 0.5102268083929322 4.102297797144931 11.091281230283109 -0.537330478801765 -1.5390862636051366 0.8524014306055383
Ni 8.411452238537255 7.652045459599729 0.5048262508834397 -0.3643122053280887 -0.7486170517280204 -4.518320684286599
Ni 0.7705062672995748 5.863064163745496 9.746082728987824 1.505964027129871 1.2448708150941334 -1.479007038925053
Ni 7.9888903155871684 4.69887664827122 5.050512430324454 1.2903705992981453 0.6083728873615716 2.762854749503016
Ni 2.6134894085819447 9.054661248684559 12.614271082544382 1.304873678010327 0.8598938823278417 0.7441147929822927
Ni 9.239121243868068 1.3814965508959465 0.020638111173188232 -1.045331355401477 -0.378728894974051 1.1766111114857865
P 6.183451865029458 2.6646044919159184 11.786520956960922 -1.099744640045035 -0.43708162388133115 -0.19874627436739967
Ni 2.8642535550948773 2.905177323929757 4.537458534505972 -0.7577709503131466 -0.1296995560813831 1.4471778102295978
P 8.686655026680675 3.827766349023406 9.023318061412185 -0.5322569209335994 1.1753967794627111 -0.4000070876265369
Ni 3.3536231343908067 2.1390757931071924 8.370875328713689 0.28640417999670026 -1.1363944300575848 -1.888445961388451
P 1.1568493960682498 4.163035420792778 5.605038355995697 0.04445051700389119 0.6481478532666644 0.32517461589667873
P 2.971024591077609 5.896015769820335 2.0573056460232904 -0.5303319359967448 -0.29907791880962686 -1.5153395548075
P 1.4541224874315766 7.311937145172507 8.07630811060529 1.7967444818173959 -1.2518816991943278 0.7887974806016479
Ni 7.803805601216614 5.543021456639454 12.74027228048771 -1.1390717197794318 -0.31606391184466215 0.9406458048659284
Ni 2.3421841222323208 4.19693809189864 0.5262336058317196 -0.6566219521759465 0.7971566511996208 -0.7326301893814609
Ni 4.049970572104751 7.498588319594158 11.314830930658342 -0.008504695036901481 -0.321572243257401 -0.355819080255413
Ni 1.57797539730483 7.669267195994814 0.5439513879096506 0.031096207184172248 -0.4058918285420881 -0.07268482925923611
Ni 4.660190679509334 7.259097090948934 2.343056864260788 -0.7694465868788619 -0.2753114125176484 0.20755024581227483
Ni 7.912879706441136 1.428555621597619 8.396094403119635 -0.3359642503130149 2.205009181467035 0.07346310218615736
Ni 4.401808688581251 1.7424070818350437 13.316961751048568 -0.23700840317239183 0.15902453029774546 -1.7410091359283046
Ni 3.465410572203834 1.135683537044514 10.534571584707301 -0.004654210942559726 -0.6142897670666388 -0.022470670298690334
Ni 1.4023174157417628 0.42308127905035875 8.410682994762162 2.182725173257854 -2.1953024957022325 0.618045120344013
Ni 7.763590469071516 3.1989538526790304 6.631023068628647 0.1023900696331527 -1.31005033711526 0.8980827346927373
Ni 0.2738312031820162 5.659191252928761 1.511744906894478 0.24833796925259813 0.1553733066984034 -0.02756968208815252
Ni 5.560299138036362 6.766902289060849 9.277941480634334 -0.7670827146323758 0.3986300047733522 2.972736471661945
Ni 6.684700433046197 4.595098669886117 9.519763751022262 0.5969589890976752 -0.7043292855542386 0.46088643961041276
Ni 7.378614263180761 7.826332788618088 8.414435971967913 -0.6418612489270042 0.19903218103893464 -2.330971896213805
Ni 7.455044459840481 7.393197260323107 5.630258362818342 0.03134046198449441 0.10840542258929718 0.8362824135564887
Ni 3.994426509459643 6.280152800683716 4.674909809489453 0.927950211676131 0.19653769675185506 0.23423058331693852
Ni 7.014719998811005 0.3060918884843176 6.832163998522933 -0.5486713577358808 -0.5996113391188577 -2.3465175572578874
Ni 3.3505648076243815 4.155464197212482 6.515448154192077 -0.5528092911636544 -0.20830692147264127 -0.6114173306148502
Ni 4.307112448825716 6.4868882307604885 7.31493579727032 -0.27729347594468373 0.026773925659734535 -1.1478414955522618
Ni 5.035926635932016 5.178651659754188 11.5670244719679 -1.4552346190958036 -2.0486477998237493 0.16008459613114365
Ni 3.2779295469217806 5.914272488749178 9.706807472873384 -0.8631285872150555 -0.05290558974977985 0.4314079705353216
Ni 0.6328051046412762 1.4971535180018591 11.325229241664188 1.8214113884364567 -0.4087367541900509 0.037601355292541695
Ni 5.516167855763525 4.292240402507276 5.428994353920039 -0.05540393069160136 -0.6962339101406139 1.252311587642895
Ni 6.664075375706768 0.3378406770199217 10.880096307727866 -0.3332913314665421 1.7722146149968319 0.09182926339817088
Ni 5.515226114899473 2.3523288158965605 7.075992829642979 -0.7003854704151422 -0.08904193046102085 0.9920979499986333
P 5.34181525757637 7.765809620810568 5.4133409424094445 0.32425956028157704 -0.3505547465326801 -0.9421023348067968
Ni 9.217386610659114 8.422314893058246 2.195847848542356 0.6006073844835398 1.1766784743886123 3.256726385790197
P 0.4008496677418593 9.040320679883454 12.490221432748044 1.5816470197854826 -1.5356273585222584 0.030419749942437936
Ni 8.033114839529715 8.006009486145574 11.79043710708866 0.4285463327168103 0.8589636572040884 0.49941056382753996
P 2.4749882323975507 5.045455934576184 11.976881285003559 -0.22419248235464617 1.532960353213057 -0.45153430897155145
P 0.061760484764546354 3.550540216647318 0.8533859902530032 0.7066301657732734 0.04500047597009024 1.1679233539038016
P 6.398998632893646 6.654919043741435 11.568171344505307 -0.6213047649318912 0.7615957233758754 -0.37758732517044
Ni 4.0713508869688155 4.563732172196317 3.3198034483709864 1.1761030615011163 -1.2323356587416001 -1.3724093589684558
