# total energy = -340861.07206341263 ev
CRYSTAL
PRIMVEC
9.28080665270572 0.00000000000000 0.00000000000000
0.00000000000000 9.28080665270572 0.00000000000000
0.00000000000000 0.00000000000000 13.58339865455124
PRIMCOORD
 96 1
Ni 5.824003202322319 8.529284114612588 0.10424109299312873 1.5530851489873898 0.5596414835941393 -0.3400535898910402
Ni 6.717150917783348 0.6742636013035188 2.0810854070772904 -1.0424553194052626 0.5358585222419288 -0.5877205012185427
Ni 1.3741997701546114 5.333911641883913 7.285143713664177 -1.669808604524079 0.34292396946029974 -1.7388848904964505
Ni 3.5499549742551753 6.033851523057693 2.5116517293779537 -0.3787754319412703 0.13978882199658504 -0.5283976950885093
Ni 0.9908838910244372 2.1499731230337003 10.65049880186447 0.33748762893607687 -0.2214483439506057 -1.1480261007592423
Ni 0.50973902826366 2.4964998843276436 12.867512760317393 -0.5798431553529949 -0.27288017736833653 1.673053850934254
Ni 1.2707002136183734 6.945440201470435 3.1443530939493853 -0.6756023499331913 0.00878931615685583 0.5712042487310743
Ni 8.127861381572604 2.164516147163209 5.921954692601621 -0.7058786323192294 -1.3579926693224935 0.04362827821291196
Ni 3.711162586973473 0.218519378453433 10.562790537961519 0.16063224110449753 -1.3535726858779271 1.938701257999577
Ni 4.242739353448195 6.880697293794968 0.07787060878024614 -0.7631530405606662 -3.444546500163397 1.4104025503827773
Ni 7.6010920729786005 1.2031730639270473 8.103353555268333 -0.3357248806086992 0.014831922806509941 0.1330119082840677
Ni 5.357243589976819 4.044863273381021 11.559635491141913 -1.3429838546184871 2.413950908310198 -0.9775035971242262
Ni 6.397055894026637 6.777355510972963 5.4815943349698335 -0.3190865007210698 0.7961567491801966 0.9875985194663832
Ni 7.24876480748495 7.56191778781545 10.609789471269908 0.30476854143650095 0.1404529379431452 0.4992832942210562
Ni 5.858073043789727 2.149889595773224 6.616555325669653 -0.05930892217296239 1.309553085763867 -0.22405158590140767
Ni 3.884741515048909 2.4741702633604454 5.069338116246137 1.544668128568288 0.19121114233261907 -0.8875635803289682
Ni 5.611955330394418 1.856690349889721 11.517499700554557 -0.8918393248861867 -2.282136105658024 -1.0877843823593651
Ni 6.310178262325084 2.765040026757346 3.890108605574815 -0.1972252097371829 -0.4089550408484441 0.646395389351932
Ni 7.723710091357078 5.7818033741686 7.652329550715802 1.5460439258698921 1.881903789394559 0.029496466797220167
Ni 1.5454306541300051 4.732747386626127 1.5229980162082204 -0.44224671302203833 1.1121484130260266 -0.0781201413421945
Ni 0.11290101374312549 6.057471176158906 9.184333661764658 -0.23639648062000576 0.718224298368776 1.1546919428151918
Ni 0.17532371973870806 5.01959856071347 5.002888468214949 -1.6027100111033687 1.308842689960404 0.4762441530134056
Ni 5.221493230090203 1.7519657268665043 0.04918549137151189 -0.24963817612126038 -0.11794884330335816 2.4098839373296754
Ni 4.44100522739759 8.191861824710509 8.541064242581692 -1.2500981249313439 -0.5993400877353421 0.8925826308101144
P 2.428480851880182 7.62140775888766 1.5539272326817382 0.21000076423529637 -1.851865848271572 -3.6958870036877447
P 4.133003094796431 7.263530570975727 4.30631751988036 -0.02949003903931695 0.7626791862480413 0.6866465235624948
P 1.7041417298407482 6.9871481468680186 10.18070343764101 0.35422808161920927 1.600013180997496 0.85244848179339
P 5.783956521327532 9.332500812961339 6.653189454033667 2.659256518494375 -2.0922668220652803 0.273463046455
P 4.473655105436909 4.614305731271441 9.602227042489798 0.8979081567880859 1.6224473416312963 -0.5782750395349266
P 9.097120992940528 5.287414800219048 13.447510279689938 -0.4800822958125733 -0.22628073234224255 0.6791764404376948
P 7.088893630934265 4.622704861352618 3.3020701952604665 -0.8188271941945187 1.2799293493601636 0.6783143495477156
P 4.159360585879906 4.756237108433266 13.56738396352145 0.21371626541367067 -1.0538915862666625 -0.1501691367896446
Ni 2.5883798708510253 2.9958072858385476 0.5728930618287418 2.501694431674769 -0.637096223438193 -0.8551972481831208
Ni 3.7325455656552786 3.182472151388526 7.903609248808516 -0.826153809762919 0.6370926238937673 -0.2304842289006289
Ni 2.489344382346883 2.3627727403058847 3.033567176057642 0.3429522515950739 0.6399797156335753 0.45932398021929927
Ni 2.153815377015587 0.08055461808353524 2.423984301024568 -1.639868879541853 1.7837534688743666 2.6302683587921414
Ni 6.393779769254642 4.0856245764932115 8.390574105463113 0.11235823658945812 -2.929515199079464 2.2342673070012036
Ni 3.692090529164832 2.8150450133621927 10.261891006742818 -0.16603258618446243 0.2140078285121605 -0.38084491287578925
Ni 7.874968679272036 2.7393507537576776 11.42119369730663 1.045721134640728 -0.45798057881752735 3.4724293426165938
Ni 8.42163603747272 7.373619500282834 4.283715043195608 0.5146068119520041 -0.17340985248514007 -0.2606273281429124
Ni 6.910358752070598 4.442629368573509 6.086639823597727 -0.5747989080608682 -1.0658780692045773 -2.76417938185171
Ni 2.310076319752373 3.8166575169544106 11.911798486356629 0.2715126075968486 1.3626620497737045 0.3900222084996831
Ni 5.8819896827059654 0.43419233348598507 4.303316106987263 1.175860092252375 -0.3781956481784003 2.0795542595946186
Ni 6.5078223222242695 8.245616257230047 8.600573703348013 2.623126091320405 0.17480544728108607 -1.6294574544005422
Ni 1.9886448598280486 3.32861701480102 5.940971065569944 -1.7340658718412523 1.4495126290103617 0.04781891925549184
Ni 6.644844152631463 3.9777537599920736 13.279347630416021 0.8457219617028339 -0.09666370867233674 1.3866949223531924
Ni 3.88351644856193 0.7299846367669262 6.9132979835586745 -1.8756215559302731 -0.07862587733401943 -0.29421442006973847
Ni 8.375965187605894 9.007477680836555 6.033772636200576 -0.7207018133749911 -0.17866518734680842 0.5650577695137042
Ni 0.5655046115993211 0.488250248385252 4.109888317580761 0.3986991674483908 0.6700965896236136 0.2591458585013795
Ni 0.7337879113605911 1.8034649233531959 7.578952708549154 0.6043483395832108 -0.08192460268994924 0.29044826815908686
Ni 6.185008022098734 7.605435490523343 3.3187635823068913 -0.4226921879288785 -0.7403059607591638 -0.7147887903246658
Ni 8.770770705454852 5.488121526335681 2.3533239509847275 -0.9056752023280144 0.9614894810841569 0.08460960572128008
Ni 8.95266523635099 0.21299544229396664 1.873259374126104 -0.017818516238659637 -0.24545499127784823 0.8001576428094735
Ni 8.24851186892654 9.005500869005294 13.195144727211039 -0.6415614582983983 1.5046378521192796 -1.6044123385064561
Ni 2.209082581030409 5.903586119942319 5.159558694528067 2.362255536818435 0.5709018869993071 -0.3608484151492044
Ni 7.820211919626788 3.3717170812065342 1.7081120589553647 0.8371560744106938 -0.7809913542936678 0.08389329638054584
P 4.609359061289929 1.710229939048762 2.330286204464829 0.16431380372114285 0.6494166926767589 0.4909392931317351
P 7.383317943304747 7.761130304050237 1.5086127657929436 0.7057603615738103 -0.01879476410899989 -0.5599492446425453
P 7.604915765347049 1.8188710625076214 0.17951957245660916 -0.8473895792132439 0.10896180931339944 -0.9404758549469674
P 2.8219963375951234 1.343006978770259 9.111254733493706 -2.7283361469008565 -0.4131546807520884 -3.508167419448152
P 3.2002356154497127 1.8673818392306234 12.028927835641174 0.0319770671272288 -1.9073841930538509 2.9595312858255807
P 4.681016169971447 4.06099331545957 6.207015599072765 0.8411317712289901 1.3827724473703347 -0.29013742178688745
P 7.906848250353633 1.235646606638695 3.9836851235665276 -0.27807946218108887 -0.6426860588211447 -1.2251759077683673
P 0.13203525295678778 7.3105749802370426 7.110488212009275 0.013624532761970082 0.23526390967745933 0.2786484473106814
Ni 3.7105129305031057 0.39953501695323096 4.048247055510963 -1.810221176147592 -0.9764263048996474 1.8504831089914322
Ni 1.796300140565716 6.206938568376993 12.900805798262375 1.5167798867984523 -1.2427208586306662 1.0833119484103084
Ni 0.10748473494160571 4.604449514535296 11.303696828075992 1.0253541409486018 1.142355532737026 1.7940723343018714
Ni 6.00764252488173 5.954946104328219 1.1022804859983262 1.0766088253585202 -0.6944143404333718 1.7488394306060009
Ni 3.8493166758004493 7.1788339288532645 6.5908688369120005 -0.868258709352769 0.3904276714682179 -1.810618925806643
Ni 5.381021016792264 5.794768661155789 7.527280889057479 -1.8519738346043457 0.845810664761898 0.07302652886937101
Ni 4.271584100732506 8.839829188254901 2.0098951229737647 2.0566722127901227 -1.1051233878584452 -1.4288597286467004
Ni 4.894697463881987 5.203339972146795 4.2003808234995725 1.3564821462152379 0.07363382343606673 2.8915685446323622
Ni -0.002275653807629623 3.0139976670088333 4.151915522729496 0.6345030087897202 -0.8220791254729133 -2.0918243352112236
Ni 1.4895601976784132 3.9488533278674463 9.109367017406953 2.373728827565357 -0.6895901795718511 0.13754502026773086
Ni 2.2893522783476548 8.580449202057379 7.959083414813184 -1.60671527560802 -0.19160837777103773 0.3818005919208392
Ni 2.8655326019164553 5.80668521698367 8.853428354341034 1.8473980423082053 1.2723759624929376 0.14146800947122087
Ni 0.23586149388955335 7.420431889376161 0.5417290409452201 0.18350168950350332 -1.3988112460007522 2.25565374309678
Ni 0.07973233860818457 9.028498708056297 8.920788449511408 -0.13596482026480455 -1.0449405477209617 -0.37103229766074164
Ni 0.2433056289592912 7.252068774677103 11.755086496413274 -2.251173081617607 -1.0542152881546683 -1.1315185900225222
Ni 1.477643641850532 0.22301128890568722 0.3716582578097681 0.14861747603180858 -1.013201821856784 -4.15853387763269
Ni 1.1442677836781678 9.20414725603019 11.321259826712037 1.176942012462644 0.5118081661609444 0.42319175327311637
Ni 7.22090382571291 6.50384085614159 12.73428677985849 0.6280791075412473 -0.3880519721471897 0.11075438243744795
Ni 1.4485947168183921 8.263491090971868 5.522467007762659 0.7033489239188402 -0.8374414668615965 1.056323849857239
Ni 3.5959413715504644 8.692459258355429 13.001703016594456 -2.3392719314390678 4.4824427394430675 -1.4992326219433083
Ni 5.040146266790517 1.2850204983866136 8.876601600639036 2.07020727116208 -0.03571673667531913 0.1552110700889262
Ni 3.4784649200946087 6.662570493465773 11.414700844925646 0.3857336084266582 -0.6699981163725364 -1.661543022081177
Ni 4.975653940896478 4.062255505173427 2.3401888252345713 -0.176216982916632 -1.7431398091180625 -2.7002537868423433
Ni 8.708487211560062 3.552098840607388 9.450214853069214 -2.7828543325533945 -0.5441410739656952 -3.068068863117368
P 8.801146785847886 3.7262810211195934 7.0218973433872955 1.71816951232597 1.7869244104031805 1.328675151305299
P 1.0499469449875485 1.8840965721325034 1.4941059368096405 -1.1954315866263991 1.2096366744821878 0.6601078538420181
P 2.158669238929903 1.2233216953151547 5.73485641337784 -1.2487020159147655 -1.2640962389826487 -0.8585000873041084
P 5.140314013714443 7.992723554929477 11.5517570143177 1.7071153113943376 0.14423580202434516 -0.045937128851746695
P 8.328438176395164 0.35458157344582636 10.70028197718872 -0.039543566620577064 -0.3198881706867588 0.6886134174808786
P 7.501258435096578 5.251507359021173 10.44154515089686 -0.8973144890681448 0.9941121522151848 -0.3154584170501793
P 2.012264512929262 4.405803127510399 3.617599062111168 -0.41061983014537673 0.5598669693413842 0.5215906994690049
P 6.803128311233108 2.2076811792157596 9.851509510976468 -0.7196250353710445 -0.3528728531428955 -3.0684956662421414
