# total energy = -381167.9649556573 ev
CRYSTAL
PRIMVEC
9.28644170959097 0.00000000000000 0.00000000000000

0.00000000000000 9.28644170959097 0.00000000000000

0.00000000000000 0.00000000000000 13.59164612989727

PRIMCOORD
 96 1
Ni 3.4223324435877496 2.7236391258370776 7.059324706909329 -0.7793684739782643 1.4570950693433098 -0.4898015799828662
Ni 3.8705425632245847 0.6216112065304181 2.144612756054171 0.022816483673883284 1.3623658586895249 -1.5918039057138262
Ni 1.177622987284091 6.557091640002726 8.135416238666114 1.2421780987533189 -0.6573495743705904 0.38286014353360515
Ni 3.2840201775176983 0.3171366350493676 11.853845954472003 -0.9605890807570746 -0.5381915412504796 0.17332680585303054
Ni 8.178968722662484 3.7834171650596042 8.977187624484095 -0.4939986487833492 -0.48105802946228116 -0.9730884987756659
Ni 5.656186049278014 9.092931050737437 0.7334868297209056 1.315663055316347 1.8782283974255007 1.0006085585728057
Ni 1.8353816690177909 7.144449805483099 10.462128691767475 -1.0390640343355266 0.451331706042442 0.28950030242352076
Ni 8.99507981214605 8.772994553446892 3.163184066511245 0.8362001382553276 -1.8778057080657855 0.24209044568098953
Ni 5.458700575245134 5.056894805920643 1.525240510672503 0.09920781525042914 -0.8875334984219811 -0.26707334087857226
Ni 4.110699237914902 7.660441664749671 0.6307992121736106 -1.1289811683126492 0.40816005575097447 2.7143367472979705
Ni 6.457540982538584 7.855791257139196 6.768626572027911 0.9412818957880306 -0.38178619374313605 -2.362843805221737
Ni 5.383628978702212 0.44602037663030075 10.910707483148837 1.0190708790430514 -0.7488206830983942 -0.42598859929196314
Ni 0.586322727205442 4.2335217188496745 2.6870273285374147 -0.6293831710646516 -0.8390468636755033 0.5900170105622032
Ni 3.645773522808342 3.8510596080604262 4.8264211042282605 -0.22531014089885715 1.519964712284337 -0.18010089135207047
Ni 0.26447879474296115 7.240759494714501 5.302386541498382 -1.231871317510672 -0.7889957126553832 0.5091941255768649
Ni 4.489288902420331 5.864583092575853 13.097318172820694 3.130304472018822 -0.6080725825123334 -1.5767549818005038
Ni 6.756666563469322 5.715127096192651 8.256096337448183 0.09651612735087893 -0.3408843133224516 0.302939201537246
Ni 1.791633241096748 8.771192983712933 4.894324496247249 0.8363842292416755 1.2519027822402504 0.5726741484083814
Ni 0.9945872168905966 4.148188603976726 9.849241168783868 0.6237586257890225 -0.061496159632268274 0.5494804839007376
Ni 4.099629799137173 3.1610026813024463 0.547522115543438 -0.6546370605354339 1.0394715541865904 0.5558092543322427
Ni 1.2428416689418036 3.6991891367760426 5.184751467024381 -0.03617773547213769 0.6071225598942382 -0.7851768531299251
Ni 2.956877401291315 5.156491895594424 10.937415290132686 0.5326163611555472 -0.2775912096907607 0.3696320748791054
Ni 0.9782895113076142 3.700962847184219 7.529065442155362 -2.6021564310472733 -2.5079141873322355 -0.5054166608123037
Ni 4.363569051604139 5.621807641261945 8.779863734540756 -1.6066042039514525 0.461488849081102 -0.4646852445312126
P 4.85090295108206 4.124526749945137 10.579669973178007 -0.0508016560328996 -0.5685575551368467 0.12227112482779585
Ni 2.2669319118364655 8.000204715555697 2.8504668491752345 0.7358877770868101 1.515719306744422 0.36526505615966126
P 3.985304412566178 2.890191461809037 2.920015798703799 1.3748670764803288 -0.28341990055739574 -1.3461013172015464
Ni 3.635911321481204 1.5065859061282894 4.420207060920726 -0.5482800358347332 -0.7191835769582517 1.9366328055063227
P 7.047174326291223 3.7583994905065814 7.1006568026408035 -0.20859025704101494 1.1605095779382335 0.5079430267785833
P 0.8908214434355043 3.5571530074930138 12.021729966216384 0.2149262265613718 -1.7161398834904509 0.43094080109091587
P 2.189529418369709 6.538221590005793 1.4592399106044847 -0.7268958580008448 -0.9072191497763665 -1.4904430486761364
Ni 6.511160898228692 2.869900586197176 3.366052890929569 0.0558477030972393 -0.9424129240686802 -0.3840425938774805
Ni 7.755804136904454 2.9497825596586087 12.885152691388623 2.3896131028957814 -0.8263888085918607 0.254652084396084
Ni 4.671609616785397 8.815591462568909 3.682656484212291 0.39611906542604036 -2.765883509027011 2.6121266548861075
Ni 3.2096822098870583 8.329232639493389 9.081476224619712 0.842589329611123 -0.8432282487467025 -0.6401362958160975
Ni 3.0763103309225035 2.701964570378 9.720024972581927 -0.5680659602124087 -0.030723654336101924 -1.6487150170785736
Ni 4.602035593863628 1.2104505594982464 8.587473731193564 0.47097519130498244 -1.146885816507212 0.3911871753420618
Ni 1.6399113528832059 5.9233848428615765 3.967347219810729 -0.3337021937517156 -0.12412103355234108 -0.28607019369604925
Ni 8.72021041753027 5.475861919927386 6.730229920589758 -0.5667068750813531 -0.7115090911321295 -0.6069150718691225
Ni 5.8509227365003165 2.0856048467576542 1.2339907611405838 2.0145302893147496 0.1767366028655279 1.4478450114999517
Ni 9.200440188933557 5.97886204693721 1.2565029536615333 1.9365045074585747 0.6471896031184531 -1.975078768187347
Ni 3.151038329114104 2.767471131735469 11.926832744802175 -0.12707240287118116 0.6668287175056192 1.0786896191469488
Ni 2.8349649916654496 1.2933506265861576 0.29483803069275377 -1.2216095305733476 -0.7511048511468805 -0.4633498135492407
Ni 2.448398273544192 7.130074393379135 12.829454469995113 -1.4354618073442502 0.5234220962507887 -0.9876162600781959
Ni 1.1286184332320124 1.5367204101834335 6.05827226914872 1.39599151716377 0.16297065942968708 -0.6034991042090381
Ni 7.927696176984799 7.406503910238757 11.022811552810744 -0.8867102311897374 0.39144839942324844 -1.9996790832345304
Ni 5.474199646822341 7.713922283810865 8.716282252594883 0.08386681401798458 1.14731364807325 1.4533461438238389
Ni 5.809458773293469 4.903482785276274 3.976250131686743 0.22135192758205752 1.2376969230535135 0.7258108524667822
Ni 5.166186940966865 3.468365336222988 8.572998954160974 1.0654607791615005 0.13966720881705622 -1.2214511506186128
Ni 8.790313767641914 1.6257402425016496 3.789255551099502 -0.4989657629806374 1.469937472523617 1.0461296829330564
Ni 3.9264376571869612 6.446796569228321 3.863466294475734 0.07953064853647594 -0.07184073609138594 0.5375024856032549
Ni 6.7171713259511305 1.0905811670964594 7.265564509747381 -0.3148876321483738 -0.06678363328345273 0.17749302141557818
Ni 6.736877155721553 0.30951896673613655 3.1830681959666767 -0.13951139996548234 0.18324895006274894 0.2528507695212871
Ni 5.761772893995113 2.871432849115234 5.697006462059276 -0.5739170196765471 -0.7341692517338066 -0.13942192557546956
Ni 8.041622246552906 0.6600022861034138 1.2963631483474793 -0.11493988127370527 0.6037436161196763 -0.8193043909412534
Ni 1.7312249363575454 1.2735055001868223 2.8246431114628945 0.34514334570912175 -0.49771903505772996 0.32014193856877765
P 2.528939584382486 4.8034863785996045 7.740306922615633 3.3617958020277263 0.9444196700860638 1.1167357752863927
Ni 1.118941960743427 8.67594194886128 0.8667389135845937 0.08816775538618364 0.0031598857852203647 0.4418132250290455
P 0.10249353091100762 2.133467168452635 1.829734583681602 -0.05247647263216123 1.6280921986218992 -1.062996633891724
Ni 7.461266058285964 7.7113963716065514 1.1427421827597377 0.4585107402893845 -0.22212094453759812 0.9483542292537797
P 8.926118694391505 5.922576922413874 9.789207107654349 0.4725793025673087 1.1008111336363362 -2.4708635623368416
P 3.9547055864146525 7.642620982690558 11.134181993560368 0.7561868936554784 -0.5038621718409902 -0.18099460681093346
P 2.2509035130693844 0.8002749200643866 8.668752385520913 -0.8828093534734346 1.9955344649385376 0.04839021837792956
Ni 1.52163922849297 3.3618591337550536 0.6891905017261328 -1.576483216196356 -2.116542921003826 0.18817441238882432
Ni 7.632238740615472 4.8841855589506675 11.017293549017348 -1.57538381248459 -1.4528779459381689 0.77805644003506
Ni 8.35855922310083 0.085383261659358 5.71721747427056 0.16912690883907 -0.5460529462764273 -0.18787462176021835
Ni 8.419710443194242 2.510533856481932 6.026236830430991 -0.6890214515525747 -0.4585999575690812 0.9680985017602424
Ni 4.278105926544203 7.649530095484711 6.061317293456788 0.34052770131398125 1.0788068614511033 -0.265864922392768
Ni 0.4541079389050697 5.6074508020418365 11.776808418173003 0.5184087021965974 0.7678419613959034 1.6905450657404821
Ni 8.766364033910566 1.9733689096203748 10.839963368544186 0.8674071599857512 0.24934481325055768 -0.2177423558539282
Ni 7.480563284611569 0.3163835046090372 12.503608081061826 -0.7226411964895489 0.8493862979282986 -0.37012007025911736
Ni 0.3311990940603706 9.025362899272036 9.754738621151581 0.09035267885264439 -0.24122038437121038 0.6659211180896853
Ni 7.242598210216171 5.781432291555896 13.253160455317522 0.21971439197863454 -1.0025042329336218 0.03213698974386078
Ni 3.2718085063828712 0.46320586606156416 6.695245107915816 0.21003110325259955 -1.1064145958660427 -0.4427887015684374
Ni 5.8827752323120714 7.022639546718438 2.5533267095286223 -0.47078492967104724 0.7822131425159109 0.8238814687889746
Ni 9.012027568663967 1.4864900457969084 8.204896468524414 0.18727915426806455 0.31724301975442787 0.13305535992749343
Ni 8.03413737435924 5.932624852579563 3.0667647972650975 -0.640335042090465 0.24244037282124054 0.7230507732231419
Ni 6.064984509374008 7.621002145883046 12.647149542581321 -0.40383057513768517 0.3021550150730538 -0.895179445003013
Ni 7.648044264776291 4.1256039772087405 1.3742921830715324 0.18167594914867422 -0.8639132878998799 0.6506973591613955
Ni 0.9813818964695133 8.902252538637507 7.2512113851040425 0.2832268107099832 -1.2358994648334587 0.573081154038813
Ni 5.582916022469051 6.187398386863963 10.755925712320142 0.0022630850025638443 0.3288070704429433 0.23539349327678813
Ni 6.586715389751851 2.4380717501206726 10.239525249608755 -0.7010133338071282 0.5756558567445247 0.5596890490026232
Ni 3.0925708907377754 4.733921642119763 2.2327949513105154 -0.23537909509908492 -0.14261369303988988 0.17793987914500967
Ni 5.069533653384141 5.198587336852349 6.436786713474533 0.2638622901404424 -0.04791276452087878 -0.09013362086330283
Ni 8.194439934913907 4.177468755374528 4.65010964643456 -0.4408045812588731 1.2375344293337203 -0.8705307932163976
Ni 8.801420352187353 7.643373184486696 12.988951896034655 0.8616813132455676 -0.503649541609552 0.5990171571782845
Ni 2.7833973796413467 6.064093010948954 6.1058021362226915 -1.3540442261977068 -0.494973868212425 -0.8824098040421706
Ni 2.7300003385575007 4.8273711072374565 13.349307631815192 -2.16957835146325 0.6821576345532058 -0.7164600073795016
P 1.0555248488196738 8.74730825507508 12.10075201515532 0.5356384358113228 0.2704486851087084 -1.3254820982892979
Ni 5.851294194177422 3.7764151878461742 12.485027768053033 -2.1924778817692436 0.44295685171518545 -0.16594568289761097
P 7.37262697008678 6.779241903795379 4.860400195241441 -0.04393989591605981 0.098471708415353 1.1123916393850843
Ni 8.4240657844583 7.477090155330638 8.017821095892403 -0.8176054059722758 0.9025435986775683 0.888079086512806
P 5.299280226673591 0.44025535348163103 5.609164150577483 0.29782861978355807 -0.13016235465041454 0.35799809018460277
P 5.404430608620092 1.4606644507961826 12.887571809510769 -0.5888458730722375 0.00037666661312838357 -1.7261723280257883
P 7.321653690346045 0.5569831425793026 9.4098633840644 0.05695919099386319 -0.633578954313554 0.20492977747029223
Ni 0.3671886997508824 1.2441974894632368 13.041945905538842 0.7192871924156515 1.142771280118206 0.2753893169434354
