# total energy = -381163.89663839125 ev
CRYSTAL
PRIMVEC
9.41523053779347 0.00000000000000 0.00000000000000

0.00000000000000 9.41523053779347 0.00000000000000

0.00000000000000 0.00000000000000 13.78014159815679

PRIMCOORD
 96 1
Ni 0.050473167292941254 5.035001607890759 6.551410147353256 0.9682944198211323 0.9877772111360924 -0.9735700663977749
Ni 3.7775316772566456 3.004880207190997 3.3495388399527215 0.3330483622178006 -0.4851100880444677 0.785842511738382
Ni 0.8863554418851414 6.5414384768040925 11.777817740762057 0.9537676869598671 0.6283565295723501 -0.0848669731477248
Ni 8.555996501601895 5.863843173166876 0.27377983655630933 0.5890865283281338 0.14301195691957308 -1.9599455120903342
Ni 2.786588089655024 7.982693705445633 12.49581850579266 -0.0769456614181191 -1.43535690633527 0.2451739697023197
Ni 4.568825303575097 9.12296284767829 11.249652500813655 -2.1552074274535595 1.7069343057317832 0.05464545525902202
Ni 8.867160452106374 4.451568023791055 8.844948981997291 -0.1068481054045063 0.40260338759880343 0.46360846652726606
Ni 2.4157127477589917 6.34095056001259 4.247397810378103 -1.329751415088613 0.6607606569346685 0.2230095177901385
Ni 7.001268915809458 5.203515402139577 5.085175370856004 -0.39021966922246987 -0.29639625821240567 -1.6035067959730511
Ni -0.06564581113202773 7.551739778171251 1.5566181640629233 0.742587814814805 -1.2913087948416988 2.2774214737911747
Ni 8.284046985841314 8.758536938627293 3.8708554412858267 1.5813752541813344 -0.6814536665076457 -0.3239872804567969
Ni 5.266842242016521 9.098972840540844 0.4417899159770842 0.06603595648415078 0.04594458505091442 -0.14120627116940196
Ni 7.190929317605646 8.59500380127632 7.982560009173517 1.2319903595870396 -0.3324588082629178 -1.4494768906764197
Ni 7.5163573422126495 1.515381337822507 6.242376863495246 0.18591441271005402 -0.5879179619413294 0.810699679991378
Ni 3.0045224284346297 2.185406796193435 8.276780310994894 -0.07204411035144366 0.6223134087020636 0.6257648575857739
Ni 8.59872281729645 1.6582386291476445 3.6272222310456024 -0.5533003718674601 -1.6356327299733184 -1.0845373361769772
Ni 0.9668782586207314 2.8739802585128587 10.428535190582892 0.375695764574682 -1.436850717271977 -0.13958621906747573
Ni 2.0659557677190383 0.825846580476108 12.347957961016643 0.7109231367216724 0.7260713052170205 -0.8724004994352845
Ni 6.496546658110475 5.809611445885996 7.329519626499588 -0.27365227964767064 2.5107418865890176 1.2708302152723725
Ni 7.188349544467632 4.31047138055646 1.0385526417975417 -1.6066093461577748 0.7074238653191623 0.44256552981403774
Ni 7.862235247315151 2.5928132321606157 10.730706654503 1.1030353949811649 2.1381131909754334 -1.7351197670270635
Ni 4.635466304563651 4.906719093272359 6.327261756489383 -0.150609823871489 -0.723702804984844 1.2808333492316715
Ni 5.516374094121584 2.9449240198082456 8.294736096949299 -0.5043169999902217 0.30142507888556475 -0.009568617525041585
Ni 5.709169767651199 2.0932599359680926 1.4770792389073422 0.3263917761332314 -0.14461272574778963 0.30680614069182
P 1.2637310588705346 4.463854899503129 4.415405065229748 -0.4824011737537369 0.8126143805155877 0.26304982154147605
Ni 8.941794983730599 0.8418863670378628 9.201524471915162 -0.46240647579936495 2.601851755322661 -0.7191758636487678
P 8.21551352353619 7.0422063377221775 11.850990087100392 -0.23579998468658744 -0.3556429596888649 -0.008261725788159964
Ni 4.352849332725079 7.33784457324642 5.190235219617063 0.3349813175744554 0.4473220706624167 -0.1852919486347067
P 7.600115232124231 2.470000966422456 8.568974455227583 0.29474715264475687 -0.698379752839023 -0.10631768682233303
P 3.609884084207453 1.5926897948890533 10.871373963229956 -0.282040760821682 1.467514722014737 -0.7957003783690683
P 6.613926335890116 0.8646232070049803 3.553181800461555 -1.1742341266131777 1.4551006646211004 -0.5818691846440882
Ni 4.999967535458094 3.9414884999770003 13.544390835814562 0.7014205965478759 1.7859995845960663 -0.7965403577718604
Ni 1.9575582197702932 8.705322056232928 5.172003567411039 0.7537677426910244 0.5914069489311944 0.3919523356428604
Ni 3.601137335137325 9.32062619534058 8.944138434584803 0.5460030668750984 0.4115374568636397 -0.3179055930390912
Ni 7.474384244952552 3.9100604607992966 7.009544903358051 -0.2117686547689966 -1.894362841093518 -0.6149705951837474
Ni 8.85433690825975 8.247082791170355 9.785815783507104 -1.952131158252238 -1.856472750915964 0.9800055376104736
Ni 1.0940874369700317 4.695968575311383 13.626465282525132 0.48048493056763053 -1.4001716166833886 0.48089862106628145
Ni 7.141885382292087 3.0359410523819035 12.930058348487359 0.31884584546517347 -0.8106585423407974 0.20991848893413523
Ni 6.2473914152226415 7.942001079524112 11.563481903053068 2.1869960327190654 -1.5759437987531182 0.1434109921302046
Ni 0.7105514347138261 1.307069364543085 5.722479137388048 0.3668789376140004 0.4200501223203411 -0.19268669843688105
Ni 1.3410206854762192 9.232283088209245 8.15155962931256 0.19541386756005702 -0.059481700305400786 -0.7400830461150802
Ni 3.3996137429984437 3.279710783463373 1.146965254114976 -2.2372505579992437 -1.6868830435078626 -0.7643776569963867
Ni 0.5623359357505723 2.6261337326548926 7.8400463737591 -0.030447774966895953 -0.1580526533027794 -0.7368650533984148
Ni 7.539594130915638 9.085706780863976 1.592874333405495 -0.5121637497281502 1.9165113521660995 -0.1714108197772403
Ni 4.121498290581713 0.4962325444196121 4.53114460986836 1.1916307248230704 0.25201644654544986 1.254329389403872
Ni 0.819864143060436 6.790697287226666 8.744546847730303 0.38392509446300976 -1.0751150144218131 0.38696490973059805
Ni 4.015831159457874 5.900788537376974 8.386043118620222 0.8796276133113431 -0.019075271463896183 -0.05606239021120667
Ni 9.148205080463018 6.470635943965166 3.9233858364278773 0.04381416897147293 0.8113812794394349 1.720796922646488
Ni 8.762001743425794 2.5570259412934933 1.2690130031421618 0.03524622479680381 -0.3843207872395316 -0.5378115322032415
Ni 4.610478283000551 6.704745648624729 13.503822490934725 -0.1407522143511189 0.48908398509055123 1.2690553827601367
Ni 6.490925765543343 8.842153600082414 5.1850671996336475 -1.1846751194408436 -0.28726549955573105 2.822658609034526
Ni 3.2635919089660006 7.360921303032086 2.040026223112868 -0.025119934996079316 -0.7374705481928977 0.3864332055968442
Ni 2.133886655276599 7.072928234617578 6.805956551185714 1.0290380175580922 -0.4017310122961791 0.43759841561674956
Ni 1.3689556741641309 8.756757460075889 10.675640737805962 1.1586833233627722 0.3030677566953103 -0.45285457044487165
Ni 5.6134357046317565 8.443597480720099 3.0820389620936943 -0.7644349925968835 -0.9901835065847397 -1.3826873438556961
Ni 3.3743056036006998 4.0001265550994525 10.032452452254724 0.027732175807945788 0.04612301961030767 0.15534065368825506
P 1.5118882873327142 1.512509692541141 0.4953409220978241 0.9822079445784311 1.9486514272337536 0.12654815493659494
Ni 5.593710796879423 5.339565481863312 10.392624560197126 -1.794951651583031 -0.519815095625821 -1.8520836207093327
P 1.2446840477092116 4.923384051134711 10.119391748528841 1.222685794356662 1.365403617074584 -0.9801315216653763
Ni 9.159465696058145 4.851875376013481 2.4611610065710643 -0.3141314707086396 -1.9102473735342584 -1.0234828920678178
P 7.50692328132108 0.8615980934675938 13.557523199219313 0.17130720431984045 0.2968893957987403 0.6162736302658871
P 4.365701122262996 7.792835583810399 7.262409747035584 -0.5334892506788037 0.4054280015317921 0.15683549306622668
P 7.834196691092501 7.065584354881627 5.702925586829553 0.18087556473456592 0.5400496775051409 0.6844479732492792
Ni 1.1333301174052242 2.76088451057919 3.1507324833161428 0.29657469277179893 1.2488002320555267 -0.5823594940169454
Ni 0.5016971441615953 0.4571245017795789 1.9015357156614925 -1.0850309879839444 -0.5704845969562304 0.5584364075424447
Ni 2.151992143394851 5.138333761867783 2.204754153205498 0.1678066473657497 -0.34936818242374673 -0.39137795119662916
Ni 5.732180590823851 2.8995426091322316 5.179321084501786 -0.25345986386019576 -0.06314269409675577 -0.074574075862149
Ni 5.454139420974602 7.655175499683013 9.088636800574012 0.10861316772472907 -0.08217091437280043 1.1038689466260538
Ni 3.3177294839425735 7.3935356612440595 10.199096381740002 -0.47248699996381854 -1.6200811553919647 0.4752702191359105
Ni 4.653590623142764 1.7379008938218679 13.07893856271902 -0.6414899816305145 -1.1980409992247882 -0.44781263714559005
Ni 8.90816378063211 4.749550651692544 11.279183371059572 -1.7544045833986044 -0.37211627475353976 1.3242955341803644
Ni 9.345134040151713 8.520858861634492 13.336600466301 0.09066352522484385 0.2146760582237787 -1.218974921163978
Ni 8.7441598817596 3.1668786619817646 5.085478541275872 0.7546239200437327 2.8332186439385594 0.8724658054555814
Ni 0.43397809928872555 2.6810056956050605 12.77926213486305 -0.7591089523982798 0.13809806455772344 -0.11721196513733362
Ni 2.5059671466677615 3.167443575807607 5.757549929219393 0.17457816176162838 0.4494447734323743 0.12573182968288668
Ni 7.44512170877391 6.337532831366243 9.60460743406856 1.042895235156159 0.165097990185335 0.17854923059423444
Ni 6.500877664108601 5.636164070891486 12.360951920534065 1.0918392691550294 -0.6115497424276565 1.5028401367889084
Ni 5.37037211583259 3.0009069799492374 11.18283261044692 -0.013237324625880427 -0.02424884524503566 -0.5562160028523582
Ni 2.8387390510107178 9.113999548308255 0.6772883671251765 -0.23808672383823515 1.236028277101839 0.24905736391712593
Ni 2.817827824224114 3.484802747935493 12.43225063601669 0.42858309949201673 -0.04756797958695033 -0.30346499213372896
Ni 2.504865564707369 0.9999068869716562 3.095295606540132 0.20217664020518727 -1.4011918304177868 -0.6929151301800259
Ni 4.276378831166865 5.025661699303496 4.230544547907134 0.4548183790394619 0.20045580085933865 -1.1471881782389792
Ni 5.318155247863881 0.6491697814438661 7.0221942654417076 -1.0743465116869046 -0.28016616950678846 0.16300176977793862
Ni 2.159260701287358 4.801588630283069 7.990842587383412 -1.2374423838405464 -1.2060355873944908 -0.26634623290456066
Ni 9.115967331468273 0.7697751171690677 11.6488497973683 0.10032058869863368 -0.4086552502198382 -0.035966905012912255
Ni 6.819649120801094 0.9122162553091678 11.533220410925729 -1.5961009904272834 -1.3294112581403752 2.4528031052907044
Ni 6.731588470582679 7.245773034864523 0.498303895114368 0.2075582162320748 -0.6695384031272985 0.7249119948015966
Ni 4.6432903610515694 5.035764241555647 1.9046502738879707 1.0139356146990153 0.6964617098807038 0.190633158341962
P 1.0194529053458066 8.33101957046012 3.3434481273870964 0.631769669018957 -0.6706552903405611 -0.022627764701844903
Ni 7.015937844820501 3.401835737380091 3.120210189305872 -0.2110379472505591 -0.16705254280854456 0.9524793071657467
P 2.875467864920911 1.055277857134652 6.495159794668032 -0.08338987438156606 -0.5232110086812473 -0.6747911668858055
Ni 6.207847447413665 0.5370287378758714 9.490438349865792 -0.6389988397775446 0.7250896580300416 -1.361388325267604
P 7.174838688799566 6.229728442934632 2.6118743661675845 0.08443888447137071 -0.48005658478096036 -0.753823021408992
P 1.5683702546865335 6.619038806013991 0.2722187913508979 0.655601224220916 2.0577351068369985 0.6242023981946605
P 4.028824177452251 5.609839086607225 11.866644790737531 -0.34765814171117543 -1.1101244406174624 -0.9258575908131603
Ni 9.0250067902772 8.789776673196382 6.344955799037813 -0.19727303225598283 -0.8576418530688712 0.1949721520369481
