# total energy = -381167.68776254175 ev
CRYSTAL
PRIMVEC
9.27272336539794 0.00000000000000 0.00000000000000

0.00000000000000 9.27272336539794 0.00000000000000

0.00000000000000 0.00000000000000 13.57156794650944

PRIMCOORD
 96 1
Ni 4.63711285944452 8.251286676383243 -0.14408421469017754 0.42901735881595787 2.020270534232637 0.6022112386355499
Ni 2.5102560797784035 1.7483534775817224 10.621326194459034 0.34120492988666395 -0.6886810374940203 -1.3370098964232393
Ni 8.453487685845806 0.5366811292794853 5.8161090572723415 0.41580394544947746 -0.1291205436494615 0.2610875556087826
Ni 5.251300975686023 1.2386596828862892 7.236210903437397 -0.6382655611559459 -0.998259598724655 0.6466910662154798
Ni 3.617150361194318 6.830473612322849 9.009865934464022 -0.7275268067166245 1.506339665301735 -1.0677714295725482
Ni 3.404517537751871 2.6005816797589048 8.440524418340134 0.15461843081024984 -1.1756513186756785 0.12407321103354114
Ni 6.057406650986805 7.967216790806542 9.241464259358077 -1.1556460791983452 1.4721205962178647 1.70347308665606
Ni 4.895923846104593 4.094751259725855 2.3705726996792067 1.9254906728465744 -1.5147029496647655 -1.372301886856314
Ni 7.626518382585252 0.9627312485756665 7.978480368087757 -0.9883287127641883 0.7294785311263566 1.36328862761411
Ni 1.2477747701238247 4.524699631997275 7.347198913276902 -1.2374428980611785 1.5570631597985314 0.07545133626077974
Ni 1.1421306308590828 0.5628367005622078 12.770384656091409 1.924762022210666 -1.100152417006415 0.5993969091152064
Ni 2.669190561214169 4.515899817360021 1.7146183820793035 -1.1019601596391149 -0.5077350245328354 -0.46395222301993
Ni 6.87180214113027 8.452022595526852 2.7623026146177416 1.0975422330770777 0.13159908709694107 -0.24439543966508231
Ni 1.2645305815564052 7.5633062262289155 8.04977184846247 0.028200887914248206 -0.5856587335935075 -1.1558787640344417
Ni 9.309072613943625 2.7392088966471597 6.492271421277901 -0.6079658817311401 -0.904856563081461 1.3780454742083106
Ni 6.447788311922963 3.8521953574273273 10.497404589829179 4.111817447412757 2.5141989918996828 -0.23392359359948103
Ni 2.5608758775705764 7.4874738931378015 3.9158859863182083 -0.43728859768581463 -0.19108927204277412 0.19137440738336073
Ni 3.681957425999135 4.529753266325308 4.126068956202001 -1.2005437110419839 0.7912968499847339 1.9106939741533737
Ni 1.681469322704466 2.7849790600291287 -0.31519841849268043 -1.4923775466946878 0.3920880898897764 0.6752675923015918
Ni 3.915806240895784 8.913711500467738 10.895675483951191 -0.5654308365824068 -1.9880376423408601 -1.9050689146571127
Ni 1.3356616438139173 6.678716218905244 1.6231596552824983 0.8984527164376463 -0.4858695919183115 -0.2676991473880293
Ni 9.290063530691391 1.279302030151923 10.905610279949459 -0.04326138179179646 1.5036014404349654 -0.9747625440439793
Ni 2.4517637397027436 8.77864500941795 1.6689233277579905 -0.7015833473779852 0.16358386753365375 -1.359297504176846
Ni 3.4776051446758323 3.7553324873527645 12.18665743667117 0.06124342019151388 1.114794335289306 -0.596632716106508
P 8.656717967621049 5.798039300914472 8.285822007926964 0.9301235651783659 0.04467780252334887 -0.4378226158124137
Ni 0.913142577640883 1.2665334898405431 2.142068682629674 0.5395768516337804 0.45450084779904304 0.3407958673737034
P 2.7335618080127153 7.7185408909731485 13.103959758091056 -0.20161973926045276 -0.9033398693266185 0.009901061163795851
Ni 8.456937139001822 8.493824033234695 10.321842260545653 0.15901784542952613 -1.2256263650422248 -1.5664785395751604
P 6.869057414963119 0.34583178797174663 0.7357294127392369 -0.37205559671893346 -0.33981550573830505 0.25842697805748394
P 3.553038750654826 7.859133925251391 7.009280467572208 -0.2826118028338036 -1.6995804364698728 0.4357976149625849
P 7.6730396365737725 7.988859327543477 5.035974426055882 -0.8621402551598571 -0.16032730826956906 -0.47795650771882203
Ni 6.171210786964703 5.955786873737415 7.93480769477001 -0.527643076310672 -0.856765364001189 -1.1296077461530547
Ni 2.40992521110075 6.185537144830412 5.908395838281061 -1.7667957579741056 -0.18267713671967895 0.2772705931265483
Ni 6.254962025956992 0.6355561803617238 4.645520437876131 1.0495284242019602 -2.517965915141283 2.4959349034831724
Ni 1.6608560582802123 5.3651700207286845 13.105520357462446 -0.3090576557301581 -0.5788841338738352 -0.39491733180845534
Ni 2.6430507535614605 4.572899248946114 9.42668876656786 -1.2415142399170749 0.30943792188771224 2.941427120025702
Ni 0.04419472765291728 6.555871177478114 5.147818308277913 -0.5506256532487742 0.6349701782341258 0.7701919496853187
Ni 9.427299839048993 3.8018351958942094 2.0434847950665187 0.8848870619380695 -0.8948326031865557 0.3359418817155117
Ni 5.852090006415585 8.130555815922703 7.011764630207951 -0.24091133777122378 0.9448618998298051 -1.7706614115770989
Ni 5.81281074950999 7.199537281845889 11.59890029160146 -0.31215274971571405 -0.06944626771728041 -1.0396618158205255
Ni 4.601718873701211 2.168389308391367 5.204207594655228 -0.679818702007384 1.3126016427822038 -0.6123454988560745
Ni 7.358091581616609 6.172295695618611 9.939368378242428 0.29230871840659334 -0.11070501725675128 -1.3200383015659072
Ni 3.500193499213611 4.664949575504623 7.47318369889389 2.4321561184643143 0.9646920471818546 -1.8893373628544687
Ni 4.015719837014243 9.079099797485725 5.385482848910317 0.6010203036512423 0.8784006828827776 -1.0190904194270771
Ni 0.2600702225164895 8.853985888161567 3.8643407707169755 -0.6509886651495692 -0.811543516048912 -1.5300030703569458
Ni 9.18141502900044 8.469650042971974 1.2409342819700813 -1.3013324976262877 0.2823870884175072 1.1097266909584114
Ni 7.757764511537517 5.902338895266251 12.023228466136693 0.7186976384607687 -0.35638883671595395 2.497887913444485
Ni 5.934033064318027 6.346353989144325 2.526483345969336 -1.4044175364439362 0.024076581333229506 -0.6103580361124005
Ni 4.581884518054122 6.4964515650486865 5.690069562586482 1.4950458375554705 0.1869999324647489 -0.8112709791138157
Ni 8.508734572683279 3.8393711807747213 13.574282495917869 1.453914100512167 0.3506416498195316 -2.221107629690794
Ni 7.179684380751724 5.638223910742628 4.288764454304648 0.22995329609782333 2.300632878910631 1.8499524332989428
Ni 7.941522073883641 8.712882854088752 12.494121476461075 0.30927285706475766 0.23885574079377572 1.2199660814326538
Ni 4.873252037054975 5.301855864413432 9.983340560530438 1.0136718195146672 -0.739312743607959 -0.5046155050672471
Ni 1.5693806405810393 8.848301708632972 5.730458764499536 0.3705892965860521 -0.0339825275930318 1.4574946187745736
Ni 2.9111159183121345 0.12085511495594556 8.177914396846676 0.39601879240275023 1.0947551572502436 1.1333152769116288
Ni 7.384713570893276 2.141554046473333 12.064092431494878 0.38960131891218064 0.7409209686353434 -0.15121891821039762
P 1.9372110378735683 3.8300520936193574 5.377164288624668 -0.3644973247557013 0.08546269775019474 -0.6638562651408567
Ni 2.900443013520269 2.371072499477888 2.914562589651088 0.6023616481704852 -0.35520972880618823 0.5090660846394329
P 3.642687441817077 6.366281072026791 2.54800719184499 0.735397724824269 -0.866034705118257 0.10109423363986461
Ni 7.890262458167369 4.719009553729274 6.422826140159539 0.5528368019674801 0.9196175234407195 0.13128824072474166
P 5.387387466324955 5.09263540323285 12.378342250369654 0.27200111719749287 -0.35085736537476353 -1.271876140038384
P 6.379745066603496 1.3245251028451683 9.836156474361617 0.9058214980978916 -0.5575444918557947 -0.5184560104947651
P 1.5451973775947805 8.912895500796422 10.861719697628576 -0.3231406161857854 -0.8376253007376284 -1.2186481339521789
Ni 0.8128793998450545 1.9107003212793527 4.506045694056532 1.1515711377980231 -0.937015921422825 -0.9878474022523954
Ni 3.597176914694164 1.0862161079268968 12.477021646985246 0.243775032472264 0.8783744576305323 2.8516454831851794
Ni 0.6386597609297838 0.6234997852180375 7.969536826235668 -0.12049989185998601 0.28407116098814944 -0.09949397903228026
Ni 5.979256137011273 0.37947879260055756 11.849499354296565 -1.1219391738642033 0.18130930983787485 -0.18863618251659126
Ni 0.714032166933429 7.558521500883475 12.854391822253339 -0.9014431665245377 -1.3235144330399657 -1.512748397041556
Ni 8.813056086466265 4.250839015035553 10.652391672854957 -0.8206681040579996 0.707067253310692 0.19279828431408086
Ni 2.378620496437556 1.8844585136677299 6.348792715434734 0.42536382122377064 0.2128850277616269 0.6325499988284073
Ni 8.812369904924477 1.3827763521088487 0.40366854649329276 -1.250384545823511 1.2492568599769711 -0.46220567264246853
Ni 1.106987008651291 6.565162446462864 10.057509367018895 -0.3407524157302777 0.003447849339284385 1.0982857961113215
Ni 8.872438608001541 3.8172557351373646 4.3650502235767545 -1.2139111334878254 0.7187979114840588 -0.1810365157924624
Ni 6.565032628333337 7.118382405444149 0.22110160184940633 1.2099236095949872 0.6358600370382468 1.4336298963418344
Ni 7.07520860465273 2.588443684648087 1.2322763400029533 -0.5080489562288282 -0.5503181493106846 1.4897971875620213
Ni 5.280880963771209 2.6339356663239255 13.445420384187141 0.6789656099784693 0.2894062000478177 -0.9277072424273893
Ni 0.784951811094282 2.952583537972621 8.95393750244653 0.26485884972575674 -1.3533839669058885 -0.3026185849730336
Ni 6.547507180847129 4.792106433376774 0.6761039458472731 -0.6289990482523554 0.4805461228228691 -0.260960286002299
Ni 4.514879817770876 8.69031304499805 2.5810412694479603 0.13859608724006453 -1.3421855270869079 0.620020498902829
Ni 7.808690309206434 3.696803056382954 8.48959938039093 0.7575840311133211 -0.33597839138040203 0.44721305588837823
Ni 8.603761443497381 5.983076499108795 2.6382178100536238 -0.8147782209361258 0.9447986506920374 -0.539457809557413
Ni 5.005267802060868 2.577112416485047 10.877489818549101 -3.7704016870668684 -3.5543444322248465 0.2826292863353003
Ni 7.929625169584804 1.3407801872067144 3.0280069439557233 0.6715878294571594 0.4546594848640944 0.4190628187064073
Ni 5.580306479526304 4.432862578080132 5.865468691935743 -0.8778864622505202 0.33287944074010417 1.3372009293881228
Ni 6.9262793919141155 2.3793437688734946 6.073765589851973 0.35154230725693003 1.2168108236331239 -0.43554024753614023
Ni 5.6059548328315145 3.4454751576177856 7.983108384405411 -0.7140966493536476 0.06086161137206293 0.710300415536009
Ni 1.2615911281949619 5.398885643511674 3.6285075929832633 2.0211241404821836 -1.4479380854343902 0.5740322050981728
Ni 4.237625383994366 5.954757601424733 0.49093229316165354 -0.3484068469517419 -0.04929756068354736 -0.43586394942414614
P 6.3355790843935464 3.859335354551338 4.07212210520451 -0.5678934391902865 -3.1333345170943976 -1.6748104286140446
Ni 7.998113505634078 7.87649246371392 7.893943729411826 1.3507722403146545 -0.5681978578045828 -0.5028447863200695
P 3.484568960052627 2.417074480948298 0.836198444997602 -0.7776820874147767 0.5156290825689314 0.5615726391785812
Ni 3.4549704265203656 6.300101644138398 11.403143824997581 -1.0892388554177046 0.5994231343674515 1.59685766608765
P 2.5513620632209206 0.3460951333202167 3.74263163792321 -0.2627232914399927 1.0406030966878723 0.3337240481285866
P 8.599653626970191 6.090324819545556 0.5197222452014297 0.7184233017534595 -0.0020519974330222724 -0.7020584872421909
P 1.3095032907141335 3.384683182104782 11.004004076680092 1.3742335566613881 0.6723694448181904 1.607826506394328
Ni 5.470461796498994 1.4540094143252753 2.8901873812875998 -0.6615785248502735 2.1718548062022536 -2.2438279541064454
