# total energy = -340866.6785128593 ev
CRYSTAL
PRIMVEC
9.30026352114253 0.00000000000000 0.00000000000000

0.00000000000000 9.30026352114253 0.00000000000000

0.00000000000000 0.00000000000000 13.61187574823330

PRIMCOORD
 96 1
Ni 0.7684658931725635 3.936252827021326 12.20649076013086 1.5437792982054317 -0.705345899744211 0.22314398648547373
Ni 4.081997256441565 1.3956347429339981 6.322199158747921 0.2140366248675669 -1.2499335743290216 -0.16996945934502342
Ni 7.619594288229751 2.3242009522764064 11.775457027523997 0.4099919667533906 1.77475435069955 -0.3885219698050728
Ni 5.454855654046601 2.786247343574146 11.287824681291792 -1.2292883872748441 0.16412097098404638 0.2966114595470053
Ni 2.1213715054494022 7.208606343586157 0.4664723867007826 1.4923808891287975 0.270607836394392 1.7313721270591729
Ni 6.521409873044301 2.1799538652808157 6.774875534562227 0.27991265873508564 -0.05171568320673674 -0.10184885241770202
Ni 2.0247324673468117 3.387304773512961 2.5983978311780764 -0.6069793494481547 -2.3223980385018645 -0.5074442327652938
Ni 5.72112219825574 9.066557185459603 1.7192206711902833 0.6653570180560993 -1.508105498952906 0.14335699896381765
Ni 8.986909728784537 2.9610457961906596 5.445376825480134 0.8392558943625159 -0.5473791212870185 1.8236155951766269
Ni 5.975986619405139 8.639554187056728 6.301713468320765 0.5801745705504847 1.425699328640848 0.12024920930176064
Ni 9.02138580560547 6.908914652332391 11.30273021361467 -0.37043117374163304 -1.4712767601603307 -0.45080694388722364
Ni 6.721374838711109 5.995526473033619 7.295420583319816 -0.5641841086594993 -0.03850741204657884 -0.32329128283103675
Ni 2.9625617391423216 4.888320802246254 4.943261178888274 0.5073776411934164 0.4857106977429442 -0.5470448778760515
Ni 5.753487115260554 3.6198020609277113 0.037320097401412386 -0.06792083221168947 1.324434887971706 -0.1918192082302632
Ni 8.955363234968353 2.3339011271143435 9.805205503801956 -1.9950942920773251 1.4233832789131615 -2.014035351956202
Ni 2.984101149424835 5.957823204775713 6.902799729076453 -0.2662117642092254 1.0563616450737097 1.9607880625962875
Ni 0.10762729943626514 6.980545281864309 1.7235769146170232 -0.47977582031574784 0.509812218776838 1.0729663435099261
Ni 6.831750366013732 7.670727136991954 10.339784650191804 -0.5009732803289695 0.28355925434873747 -0.7452555914549552
Ni 9.285392385782377 4.475705311488911 1.1571192550037843 0.0842347388803646 -0.36629658274796917 1.1205703185411346
Ni 2.681377572267745 5.01951961954134 0.36867081565980064 -1.6431128404004478 -2.4491220568946916 -1.5872857061284986
Ni 4.418136680379774 7.810751904355307 0.2426968864030196 0.6055117637636926 -0.17935424299403305 -0.9793920723961906
Ni 2.0169481467913437 2.354008296816759 0.23237080383105288 -2.661903469198919 0.1869755069847167 0.1681627451535878
Ni 5.35413380026438 1.92453142832099 2.12726415240752 0.6482596962541803 1.3506663108644092 0.7939165469957682
Ni 3.899051772992805 2.7932132409409864 4.214032167425942 4.456319817103771 0.9902662961065332 -0.5913588693020783
P 7.715945018163621 4.968582076312787 2.8272410450608745 0.8589353750693144 -0.5830387794721572 -0.057587054385849205
P 4.059760326396016 3.6796213558055735 1.8334241869524404 0.19559153078850186 -0.0708644882210457 0.20794902391259026
P 5.605222314429883 4.210666402062712 7.922615473819071 -1.2092957462030012 -0.939265379578634 0.6750585616145793
P 0.4787310640295311 6.004640731270608 13.37193933113163 0.17957844318969718 -0.17709732863905628 -1.8131198378516258
P 5.960882991469559 5.743684637524039 13.338100322360937 0.511257692974113 0.19065501271883292 -0.02794480603938413
P 6.103372328662302 1.1163757306053972 4.504836526872295 -0.534863248208195 -0.20651743367238626 0.09789141043185076
P 7.868515840998094 8.497381058823228 0.7375852982234882 0.19780910726511094 1.07441721702384 1.2837615786220602
P 2.585966168948095 7.952906432061793 11.370952296571224 -0.6538811562060157 -3.1398622909105858 -3.019488383105503
Ni 6.762742410790825 8.016231926281844 3.987448917575377 0.5800025637489947 0.4228649660613169 -0.21841727043376577
Ni 5.479361848387889 4.7275192462079705 3.2868461171879924 -0.29708017165330775 0.18429693171128902 0.42654447179543314
Ni 5.146431015359639 4.047232871451912 5.830170577955895 1.1465713705905867 0.6443680745092579 -0.9699831203774649
Ni 1.6652958833232405 1.405260515663878 7.134242366609494 -0.04089673821436182 1.1420624269766395 -0.27785680464732143
Ni 2.0668626610341114 7.805952968385628 3.183844768820174 0.3299450407021285 1.5655159185515748 -1.5233745092968345
Ni 2.2528586309132104 5.751273652545858 11.307085527015058 -1.853115918628589 0.07037546439976912 -0.07997287828021711
Ni 0.43078541557122235 4.607908557242768 9.940208128871458 0.6482154732798062 0.8582882284036185 -0.42083585144643004
Ni 2.119232444842762 2.867038732660587 9.458238713088743 -1.1160246081519811 0.23837288762008624 -1.648334493810703
Ni 6.309345264554717 1.6267276905591714 9.324039630786258 1.1917327976185734 2.32470020427248 0.9677254346915399
Ni 3.17049703063474 1.228016093744989 2.976181975048514 -1.9263867022982821 -2.081732755303176 -1.2622345031835616
Ni 8.2548673876113 0.19120783754849424 11.112490533497267 0.7394320427946427 -0.9595593539409797 -0.12113855388524944
Ni 2.2891482591180323 5.515288766315933 2.6810223022017725 0.9739529036584904 2.7538144936776185 -0.20867870298976318
Ni 3.96080552268015 4.230457362805885 9.837316523613024 0.26322748476992086 -0.9540132273117699 -0.35706426551642373
Ni 3.659551387157186 6.524106949461369 9.486130203346628 1.0295563519554076 1.0225485531790066 -0.41272736340668276
Ni 8.064100382553043 0.6008370136936967 5.37564251967732 0.15358510444972903 -0.24428282534661802 -0.2600110347151522
Ni 5.130211355803204 0.0585312083821244 8.511178929762407 1.7811150028102551 -1.2763532019731307 -1.982786164133934
Ni 1.1700289507780317 8.071187183345476 7.717660916780686 0.022695898935618974 -1.744298348202538 -0.760057175244162
Ni 7.713247941746554 0.7373155905817813 2.6598009609312028 1.0627356669208536 0.0866340923504766 0.1423856361894838
Ni 6.894703849693497 6.5732030405155095 1.7402234562684356 -0.38521681669123986 0.9380883285513972 -0.8498796926249491
Ni 7.9465822528769445 4.556980314277722 12.561488328382477 -1.525638879850979 1.4136380266009396 1.059857316931794
Ni 0.7851310353509903 8.303396162591506 12.757853162045675 -3.7210984699563654 0.7553821383659958 -0.43617068203128756
Ni 3.287150235804676 8.956711773176886 9.53398935935432 -2.4888324881104364 -2.4927495637766555 2.354080200096494
Ni 8.208189365069012 7.566815292826788 6.40587083944252 0.7054371739064367 0.82729537956653 -1.39003298558749
Ni 4.318902868758694 8.90831320188578 4.15804644116572 0.4431010906025337 -0.0640898885013735 0.6856098547678644
P 8.9250350756716 2.3062142426536165 7.653154289095231 1.101152319025839 1.3640152213674896 -1.8562547213678868
P 3.605135545376967 0.43145503454373574 1.0542871714317956 -0.12346951601127125 -1.8185299531236034 1.8652273571801423
P 2.422262930695588 8.911252085154032 6.185576427775476 0.3643924237467208 -0.17505355873615014 -1.521480377597915
P 5.089094890838181 7.266472583127522 7.825603495149844 -1.182402264246267 0.2268090940418868 1.677216724062692
P 9.170552731996333 8.200535248202645 3.8211397454881717 -0.16520571940779288 0.6595571235448705 0.6340558939499725
P 0.5671793600613921 1.7630323525196725 11.472034070551171 1.9760812413099325 -1.2849903088228387 2.4347953558593747
P 8.628933286131586 8.039454684259148 9.358423634998468 1.686195787632851 0.3936070976374641 -1.2283180529417748
P 4.093892293467184 6.769931514481837 3.7681208032867235 -0.6052726511696931 -0.8464611538617035 -0.5294973559105912
Ni 1.2154793385373774 0.8693746822512778 4.670002696574474 0.13076784944489736 -0.6749994262418698 -0.5103207829821405
Ni 7.349365831766574 3.0484217718401485 3.862465466382105 -1.0033115593262656 -0.6178168063832908 -0.513877132874831
Ni 4.757419593383394 8.002820946304562 11.408384927161073 -0.34309109116578335 0.09895353314777797 0.27354532175616114
Ni 6.5033766621039755 1.1540882991268104 13.324923709024034 -1.8765816058506972 -1.754983852940842 -0.09638680086186625
Ni 0.9812336015832872 0.41605751828133086 9.17112376817567 -0.6069628943879224 0.9369009931115154 2.2809233162968456
Ni 7.74206945835515 4.110669968834047 8.173850002121636 0.47968634592573517 -1.8832029678219564 0.7403794943095765
Ni 3.5031023544402404 3.5570345825180887 7.306636701109415 -0.5657095441650902 -0.639647271994821 0.8935637637764611
Ni 1.5484380723561486 6.939419516635779 5.135026102220845 -0.9693334026086081 0.13027445474824662 1.644782771903703
Ni 2.9568513773489435 1.8943799740308735 11.270796828836588 -0.2980731316941963 -1.8710185099406227 0.27615267747202116
Ni 2.7089993548839217 -0.05480087268941445 12.77952277601729 1.7232381850981289 4.0565765246615815 2.337196794077594
Ni 7.618152747386146 2.659047639587125 0.978903885574751 -0.40529584682930203 1.706984699353744 1.2379298649999262
Ni 8.002476836554798 0.5790836973505189 8.015094504054922 -0.7508899069225972 -3.180417586625129 -0.11200779522857483
Ni 1.2033424946605724 0.2661967922328364 1.4423964678478491 0.2897437858928945 0.11763002651135869 0.49391405948934286
Ni 7.018648461453021 7.462029223891951 12.711899630030594 -0.43788097985417485 0.33526825268725485 -0.204409386190448
Ni 4.539393515985739 5.773780290233113 1.3055514605775835 0.6448653258606507 0.37559703421328866 1.4264907141938916
Ni 4.963866842714673 6.610301791645452 5.852643734694524 0.014814953525645451 -0.979424725406339 -2.7538242638696317
Ni 1.1452995501125725 4.229843545414415 7.207556343836202 0.1868955456764007 -0.5091918115840198 0.36002257681379934
Ni 0.5994773151689542 4.666695522871339 4.106049597923705 -1.1646385125049425 0.6396889238660338 0.37269451585451296
Ni 8.861560777235436 1.1964789001923102 13.447920623932184 1.9304935253778044 -1.2794778636450415 -0.23229685662933544
Ni 4.149424166868259 2.065039809386714 13.579397519106132 2.018645082814072 -0.1522692138517829 -1.2202866979968663
Ni 5.96570982822976 5.578567759218447 9.857747342485487 0.29101082553077623 -0.7529192786478001 -0.8269189700637178
Ni 4.436151290793086 5.607575281097187 11.766241396414781 1.2717529841969581 -0.39390457427322484 1.2337574787897914
Ni 8.941096630748415 6.091774900068911 8.071066279919885 1.5148690429289846 1.5898622086064234 2.1565513430759635
Ni 7.162467736327285 5.762824579821713 4.770295808209016 0.5208113981008192 -0.565217177909704 0.6882334084336404
P 1.7872688392192542 5.9164742332230125 8.72668277569693 -0.6291792825839616 -0.5937929326648677 -0.27096341996159784
P 2.126495950641831 2.895497538992405 4.971274502598101 -3.9183866717209996 -0.12042790097147002 1.9369837610878382
P 3.5181873818488056 1.4330404027596761 8.687915557293808 -0.4380689274952648 3.240754950062606 -1.7441219705256736
P 0.09748536208173958 2.3695676376641877 2.060484540320922 0.7569669663546125 -1.0320819465907385 -0.2603733031505774
P 6.041060563164529 0.387434097285436 11.08668230226498 0.21558674296350613 1.0734502251248803 0.4219182858773314
P 8.773868592626705 5.176247660163499 6.212841080272979 -0.481345478795713 0.3210850192083373 -2.0723348590280444
P 7.6784649562298855 4.258088445685569 10.444338212538963 -0.8063491163321661 -0.3552518948980334 0.38101563412569867
P 3.240974427491774 3.6192626456442976 12.292517267545463 0.45061282559854654 2.277554142714297 -0.4735239258687651
