# total energy = -340887.669596282 ev
CRYSTAL
PRIMVEC
9.12720881854643 0.00000000000000 0.00000000000000

0.00000000000000 9.12720881854643 0.00000000000000

0.00000000000000 0.00000000000000 13.35859269835225

PRIMCOORD
 96 1
Ni 6.464619449849397 1.9087457950085487 11.745208999775674 0.24063237307822427 0.9012536762215511 -0.5152079358711128
Ni 4.876457736780915 0.543878507103463 5.869538214091009 -1.2884289021907425 -1.8432292556424967 0.7674562959217105
Ni 2.802317791082355 1.648273510234445 4.811684674080082 0.8776437501120948 0.09857378121085603 -0.28184664253300495
Ni 3.410135134002204 3.8250671733222523 4.102464041376775 -0.31589344770506883 1.2437079051342839 0.03010119026075461
Ni 3.987476726734208 2.406196929101975 2.0289301423426283 -1.3794811782135727 0.5107948944050816 0.6688673452022029
Ni 4.857235835045184 4.780092666255826 2.297931803741632 0.9516688954493094 -0.8781466578904424 -0.19118903084543204
Ni 5.549890583773966 4.556320888072117 11.789412072000811 -1.1579361607841026 -0.4059213962284428 -1.0446281586868653
Ni 6.026878515734673 8.528892882833652 11.990485394616341 -0.7766395050828753 -0.5812983997422827 0.969771261476975
Ni 1.8861194443898996 6.5169822467429785 0.3557074068495802 0.7202009624791725 0.5894493109841913 -1.7076231042686916
Ni 2.5727045992657556 1.7655763977499255 0.08316530115651682 -0.09849227724064327 -0.03583577875168667 0.6459387614304875
Ni 8.30765846869673 -0.11278765732143213 6.672777311936566 -0.08859147318716355 0.8513642475902756 -1.1233977606876007
Ni 9.117497451226573 2.6334553010478157 1.4282603166351486 -1.23401921709161 -0.4852332438858934 -0.49075185971127744
Ni 6.8689639269598315 0.8992390800185903 4.784286618700065 1.0146562949151234 0.11108939717936353 -1.3617287393261581
Ni 0.7641007137843112 7.423222808633116 2.3182772648808134 1.4478547816919647 1.2449569470500366 -0.5008146432639182
Ni 7.836064717137646 4.1655120616141454 3.795670259214731 0.10368024919948597 -0.6482707519977738 -0.3847519612396793
Ni 7.677808043730322 4.233883982745367 12.915261492140344 1.239897530249258 -1.361658805320171 -0.5812379788179926
Ni 8.278360128444264 7.712719617395644 8.479713656369995 -0.4129412791897017 -2.714140572126764 0.11449765152996409
Ni 7.1679165240406 0.7404192578282216 0.6121491162169894 0.503587835133681 0.23147847449309814 -0.13736967103213116
Ni 2.311000141303464 6.636411773909184 9.10481610731792 -0.3622157278103762 0.23590360014398726 0.6963982036326201
Ni 0.329372671294926 5.016396102123846 1.1869004070911584 -0.16927320460894718 -0.361547498098758 0.0776588854350598
Ni 6.355604067925579 2.143269425160297 6.959612626612609 0.7800806695539404 0.06515406809982974 1.4871911173977421
Ni 3.4333182443577384 4.4643825138157025 0.18043213991118315 -0.1945669461787294 -0.4223687431511887 0.39664202780904595
Ni 6.17158128407193 5.805142105113673 4.5112233493844425 0.4066821856538673 0.9907715178777259 -1.0467359490584875
Ni 5.483818719260695 2.973626373075667 9.287962679126638 0.4111497345069177 -0.7019412449380362 -0.03627466606131816
P 0.18605723869548058 5.957785545108141 12.343032049057998 0.14252781819430294 -2.5094823031503037 -0.5085953156506015
P 4.12604601075693 6.406771200466179 12.723618401658412 0.39053848601446933 -0.6117716286304755 -1.2116385354035648
P 2.4245791276279767 8.497997281040943 1.1803425075673586 -0.5079893066354865 1.1685167645134262 0.8658855811349023
P 6.787896058385874 7.9529751346746655 5.356034145157697 -0.11049624368005487 -0.357342715988791 1.0109760178500589
P 4.6191891022961 1.3007185262862675 12.769879659468263 0.45286279797498785 0.2615755509887947 -0.9711275183945534
P 4.342579912361136 6.30417224632974 8.163502420166676 -0.38848443169891805 -0.5613638656018848 0.25665420242777737
P 4.687013390899238 1.2425325701773984 3.678074388296726 0.6191488949311531 -1.2607301507238933 -0.8154058272177956
P 0.4137099060615415 5.661388566491762 3.3897157424717315 0.3085601472684492 -1.3368659146462074 1.4548417545327588
Ni 0.7665249004419608 0.5660411955150012 4.7427678585834165 -1.6386483768711908 -1.2170537928818652 0.3543352966210349
Ni 1.929793138504557 6.35186191231701 4.735661413810653 1.3202966974336166 0.021791127733162472 0.5664906453054889
Ni 6.441527611581877 5.75657622708147 8.867073310621922 -0.386620896127618 -0.253882296109595 0.12840294875714658
Ni 8.895952711990402 2.404690939649745 10.210467014379974 -0.12817103525199863 0.8604047605259892 0.4059334804133009
Ni 2.6562003053808825 5.327725194339301 7.060216372905064 -1.6055279401681384 -0.4899599599376013 -0.22180598440034058
Ni 0.5382342411806826 9.249239583065854 9.19292926836567 1.0955326588462164 0.8413107200090156 0.35952943922746466
Ni 1.3819963206626567 0.9523603479635676 11.421489721612328 0.8861389320672998 0.7163381370896567 0.09654518081660148
Ni 4.011034052650599 6.958173265784629 1.5230263001782338 1.6898691227193803 1.1751964905264471 -0.5106995064777979
Ni 5.672980121669529 7.98803274368081 7.954587912469872 0.9265137363399205 0.9631020769869154 0.07466149336963271
Ni 5.22563736389574 2.747262467592363 5.091640811482515 -0.14724245006115286 1.4460292984474516 -0.950540438271821
Ni 1.1892114163596705 7.440254180256512 6.832078138030768 -0.2649925470901436 0.354915337494221 0.0661151464615184
Ni 4.870059563411139 5.078780574281355 6.305402594076168 0.15608807337724087 -1.7648023816931604 0.9800600449974929
Ni 1.1385371530943464 7.570672866819592 11.372022988071429 0.012478849193301089 0.6288540380340589 -0.49117532040194123
Ni 4.872888998139571 0.6463058697144358 10.208917214325497 -0.3598181741124771 -0.7832302709265156 0.21670491572834938
Ni 8.81320543699699 7.182684347881251 4.855180387623111 -0.5350074870955431 0.8257128655707585 -0.5740735998590694
Ni 7.437014021132018 6.234741568977556 6.6167919258697125 -1.1170466216585924 0.4598258595563822 1.0604658970500704
Ni 2.508366904424748 5.514194070151725 2.545667068633394 -1.4784627363858085 -1.2212377490562258 -0.6286416649129367
Ni 2.477891154236903 5.355033803073064 11.392996401176147 -0.013383106175125338 0.2816856914751084 -0.07628437368503636
Ni 1.0052707773852327 3.2433171387391764 3.58362968250345 -0.1926771853551843 1.1886143065942496 0.3572936079184105
Ni 1.6991668265110027 1.1866466706864796 2.6420357900420037 0.3628474478571041 -0.8509639268280634 -1.617704427629672
Ni 1.2782473382172423 3.448852753737706 8.065263533674662 0.09896047512631342 0.31034269309016876 -0.046169556577526936
Ni 3.5037620418868753 2.962646340887594 6.883415949375953 0.4396694392131654 0.04370155465300861 0.42360647221303177
Ni 3.991784769288465 7.11366439492513 6.001855360084778 0.49974455012819097 0.9890517069731417 -1.348058440927917
Ni 0.5218846720547505 0.3556581199220527 0.5202007020308937 0.12925064146942256 -0.8416750453269698 -0.29726554819123646
P 0.3218564148469803 5.750123290458887 7.986808784980543 0.1886886330210815 0.027542685504959016 -0.6318182628687055
P 8.897668627245064 1.6869454939259396 7.846183140814867 0.046008348409314316 0.8493788417291307 -0.37131229079500566
P 1.8622244117478572 3.3897814583751016 10.324896656564777 -0.32664220158114066 0.14539639799134962 0.11010903554396521
P 4.164252506799554 6.096646899812507 3.7891780755943016 -0.7592575621610022 1.2037845865767849 1.283925357893434
P 7.121395140779908 4.017715169493218 10.22204852962806 0.11822703666540928 0.3119984835260369 0.580251446535007
P 6.964270241263958 8.149483940168619 10.034239779563592 -1.611191566211819 -0.3413903064245927 0.4810485163805845
P 2.6134667137727687 8.669068555605419 5.422011999420313 -1.0413841978282712 -0.0694113007142869 1.7639264068461105
P 6.9334020210976535 4.322536561833281 1.7234187330171793 0.6914624568938994 -0.30648500990697536 -0.08396503015874572
Ni 5.509749119465447 3.1627147578140904 0.533028081280369 0.6428830053232993 -0.4266797118217168 -1.7237976571460247
Ni 1.8180395939403224 1.1830049143747245 7.042850032718656 -1.490346118086956 -0.020344882204939158 -0.48388315761590217
Ni 7.218097918030649 1.02650979226607 9.027135345930159 -0.9040512935713462 -0.5927817177915339 0.38231044167772227
Ni 2.9620987083595107 1.7809101085362626 9.167000693602679 -0.493662348489853 -0.36304542280052315 0.09766335358144469
Ni 6.432446038824493 2.305259126967389 2.620087591037298 0.6111198539790894 -0.3015603189118484 0.3783162329166646
Ni 4.730513668046669 6.7553940678441196 10.475233650895133 -0.48457581280755246 0.26048488902777717 0.18167620625899034
Ni 8.16253584875461 7.368057958637507 0.006551510477638641 0.3065112351592205 1.4386633450006836 0.28798258022741374
Ni 7.9965210478661035 3.868439669546463 8.106595186010882 -0.698227543531875 -0.20165007827775594 -0.5969643884143139
Ni 3.3322070252559257 8.552331555035625 12.556662585542481 0.3134100191615828 -0.25068281533569087 -0.47275696579575355
Ni 0.15909363845441052 5.020603745381286 10.022270357941446 0.2136339901125095 -0.019001480803167277 1.036773695639453
Ni 8.436461639301964 2.5041136251233 5.665058617150801 0.7840699932189916 -0.12135915453648777 0.20301739093892776
Ni 3.6832029669222277 2.840661195257 11.407410089315302 0.29145896881178834 0.12775323098828964 0.1848062672475398
Ni 0.9439633158662876 3.614758028120595 12.420084858480225 0.09981408137586037 -0.26665630794581174 -0.10431325479779455
Ni 3.222297176869572 8.570576845429606 7.745338436210056 0.45529686133777714 -0.1532521465903425 0.8923700005786761
Ni 5.7609664145149395 8.119774875520092 3.448240318027133 -1.7829039763898777 0.1204970636465086 0.6366316250969488
Ni 3.1390935414360897 8.396137630817417 3.381660980704504 0.5753622367635058 -0.1485701677336409 -0.40913398962846964
Ni 3.653603428779316 4.3321475127011455 9.317832382650069 -0.5083616023732406 1.0617578763886166 -0.31391112716771746
Ni 7.139932501855534 6.233856229723822 11.236633623595111 1.1269481970430204 0.3880843680470219 0.07441363902488474
Ni 8.05908806419964 8.623432511598462 2.794630855829823 0.12063770298943094 2.531464206738034 1.0003604471177416
Ni 4.969044142862228 0.34012269782120463 1.2838906914191424 -1.2448355909808237 -0.6004122377535982 0.9008980926543452
Ni 6.314449483440106 5.876005754247675 0.29520587786779795 -2.1162647276417745 1.696656835065175 0.7794016412090448
Ni 8.237844448574888 9.277716474526194 11.478851490766433 0.4772839071318296 -0.5757319613980988 -0.1289485368479715
Ni -0.04718949494495306 4.850901552137019 5.84796423064716 1.5946436891554665 -0.3233010530230496 0.0014354468949459148
Ni 7.775825139048463 6.25975924830217 2.4499126083771183 -2.1351556510090064 -0.0411816164446323 -0.32731557349908147
P 8.53858597858073 1.751292315975748 3.4025002238398407 -0.852750329304525 -0.7882400654362812 0.09479168846060448
P 2.0235204456860436 3.3842412426326574 1.6423992386498696 0.6498753774807324 0.3418633894062693 -0.9373756187550889
P 4.74134766489392 1.0363397961451686 8.06105589041722 0.935222319857512 0.9579755543936275 -0.30430291465399206
P 8.507526087029596 1.9159471627528462 12.71430773596011 0.7326936956295446 1.1350582277446646 -0.8663841180378757
P 6.528135695898278 7.956443474019194 1.4812939633756326 -0.08997986889425794 -1.3853949725948465 -1.7149839155091366
P 1.6960453211009268 3.4556342698771396 5.587311227138789 1.0875594108327529 0.08294635908624425 1.8765656650110971
P 6.730869257794781 4.14973111759654 5.8654373591765445 1.8991165537284198 -0.4251679031628806 0.5841975756669487
P 2.507280766577383 8.733625303457659 9.963452798983521 0.7019476726959394 -0.07051687507363985 0.7980125714420128
