# total energy = -340898.1050187265 ev
CRYSTAL
PRIMVEC
9.00855399392169 0.00000000000000 0.00000000000000

0.00000000000000 9.00855399392169 0.00000000000000

0.00000000000000 0.00000000000000 13.18492936870093

PRIMCOORD
 96 1
Ni 6.369417058302381 2.053743124798423 11.428894868247191 0.4755895501485422 -0.23133449271606613 0.5123990056674079
Ni 4.407894501230357 0.3879173455960246 6.017324930419978 0.1462785434859868 -0.5407014521565269 -0.10739523615722794
Ni 2.6269754355893067 1.5476335501733502 4.690169434433033 0.422487271006924 0.04292765260146155 0.538208253421028
Ni 3.246394602952746 4.243137056358996 4.71084316510367 0.12084493390423061 -0.8731263218577155 0.5184428978686426
Ni 5.04619559786551 4.3243131368300896 2.826058173926322 0.9336079241825406 0.815580148012131 -0.5342330708233638
Ni 7.254813783751387 6.182408484947653 2.5392195072460466 -0.15067641544336632 -1.1137507245161398 0.08273707128891558
Ni 5.162180731154305 4.654918061611877 11.480593158182549 -0.14628137169946417 0.1731871949513727 -0.05423510719448079
Ni 5.764015201028057 7.926320410584792 12.357350680305425 -0.6991058323717702 0.05675041741716678 0.0750921531491481
Ni 1.7874592758754326 6.4440979713093025 0.30366304220883106 0.9430868102072533 0.7499409127457665 0.00375303928452902
Ni 2.573671821323691 1.5748033491635642 0.31365082607502814 0.16364428845794396 -0.15662594815858186 0.2038691974162618
Ni 0.48374764092699296 0.0010954401714887388 4.5371717560079 0.22616837513409438 -0.20666192967005056 0.5459529303634534
Ni 8.7240819223147 2.4548940362819227 1.4597956439883097 0.1287230511007267 0.16202243658380483 -0.7346603324376122
Ni 6.773396655755021 0.6221649746353944 4.894931165238029 -0.4041447639439943 0.23610286063898694 -1.2127050289948664
Ni 0.717401606255005 7.3170809092886415 2.431393421352953 0.41197840105580014 0.19197244597867583 0.1115550239618724
Ni 7.542592042618227 3.795988467937819 3.843499581954527 0.608007790712669 0.49292547032382855 0.5496334645388341
Ni 7.579455045757471 3.882281407104683 12.531220277590116 0.5314339108116718 0.10101272966965184 0.18657415778123998
Ni 7.99991128855265 8.938530551280897 6.810200202437588 0.034683667425114466 -0.9506959900130788 0.48401017011206965
Ni 6.782810594728751 0.8736702906527328 0.453186121340023 0.0956154699134805 -0.4974848075597368 0.09509919239869428
Ni 2.0387618994268295 6.5043832149573495 9.13896277101338 -0.562621906378702 -0.5619531624464515 0.6458765407339844
Ni 0.07744113396534372 5.006035463946951 1.334407381990633 -0.26654420784797966 -1.0293462928271304 -0.5014034258878526
Ni 6.392091588825712 1.8530775835162547 7.0342654628434556 -0.5607007780965892 0.28631676248921656 0.27482264580668797
Ni 3.3835408296858422 4.422695555521114 0.5577871448861348 0.5995483470914061 0.5915596724589747 -0.47155883172259433
Ni 6.0803235505454305 5.643760013123425 4.692911638283371 0.025820046386897468 -1.0362126809296606 1.2645173856804672
Ni 5.53610779232334 2.7582931278573275 9.308705549691501 -1.2110096435703144 -0.08094655504739608 -0.9794293533920293
P 0.268324286413469 5.545692893823866 12.215692068852764 -0.2742513466842502 -1.1451176688631957 0.8850112462207597
P 4.061083187727286 6.28898868781676 12.47908777534994 -0.5784863842147844 -0.5166187001757103 0.7600204084689557
P 2.2873709653197136 8.449573263551502 1.2627830713701107 0.7867611668979095 -0.12952317840451888 0.37100890062197395
P 6.356579868792747 7.695034794114382 5.9291041606881585 -0.3691839315980932 -1.6712170548358315e-05 -1.103393806761848
P 4.527708269986938 1.3592376594961793 12.511337497964353 0.8566275528717441 -1.5608282832679183 0.844704576181913
P 4.036336689774329 6.055090590674213 8.101361119894925 -0.37430608331600695 0.4674921178523884 0.41515577034251727
P 4.702708440803881 1.0631985565729642 3.672754151211549 0.2866486919073386 -0.9317243340065825 0.5572953519594661
P 0.16382505952803011 5.4482293476451105 3.5146405149460507 -0.07930619123049566 -0.1377807904276208 0.6876353698383254
Ni 1.5265445251613836 1.0377764170668686 2.5090660751571723 -0.019123865313644482 0.05051497803041623 -0.006330313093402002
Ni 1.724066081082947 6.336716007130471 4.772825620333202 0.9028441606371226 1.1952798915398835 -0.06697389491738788
Ni 5.977058495563726 5.632535354787283 9.011318767083624 0.4338317494854657 -0.08565090250160089 0.6493295322795913
Ni 8.496156496501898 2.5230077133923365 10.120672650289999 0.6190789609251661 -0.36380878332910893 0.6664690201733554
Ni 2.380978850368558 5.252482476869791 6.8921447125684505 -0.6169374891021311 -0.9798980654983318 0.41496782270142724
Ni 0.49495788557666887 9.148907313820176 9.302785127975199 -0.14508478028820174 -0.306584254489001 -1.2674754398675268
Ni 1.2803047089815054 1.086125326609468 11.327463054013002 0.5433666576935158 0.46991898212632616 0.5967329891297981
Ni 3.925783714572768 6.86576136034609 1.7440893941517628 0.47648660804151494 -0.08060511254757731 -0.781297829790493
Ni 5.484092401285708 7.885944071369229 7.912302199640273 0.5200822332442785 0.0028876059604401884 0.6859590105771671
Ni 5.214853746636992 2.7473117004803145 4.953657028181433 -0.07928639373615379 0.36131841280708743 -0.02056779684902264
Ni 0.8250051808632649 7.376915725234598 6.978783580210521 -0.34244960092704246 -0.03580441129311898 -0.16696743929390598
Ni 5.01953027790164 4.412452829575533 6.935931690344257 0.20308346829017282 0.40104889862748994 0.02603370505960033
Ni 8.215981457246379 7.083182812146096 9.043358590388863 -0.29922627146203307 0.42147657035422254 0.30278262135472367
Ni 4.743769430126624 0.522356501839546 10.481939990464024 -0.3076510051906185 -0.8609629470223044 -0.4600294909267561
Ni 8.137336780461045 7.074030121239578 4.670471330165127 -0.04757800688927935 0.29235474115318033 0.4691983019102178
Ni 7.322026605457617 6.042631760434338 6.971992932173776 -0.31302975300402863 -0.15125517076497175 -0.03189093517132573
Ni 2.23714827653641 5.269508644008885 2.630498681075073 0.14318087839726953 -0.4497774741814447 -0.2720746507479056
Ni 2.3384134325208255 5.182143686911041 11.357393073961639 0.2505941122766265 0.35161686924860736 0.21465703206038514
Ni 1.0581267406474038 3.187992147099444 3.718571657068389 -0.15282714323778196 0.8828121816869119 0.06226749058065405
Ni 3.622033289389731 2.5861396601176088 2.5531161027110016 -0.656616809969624 -0.20739855072575897 -0.4092414617406113
Ni 1.2685305288488098 3.1536515390919186 8.181459777302614 -1.0858753382621105 0.6801843128769188 -0.1987334188515932
Ni 3.51411081196839 2.710745979624453 7.24365488785975 0.1653764406577023 -0.8819261795375328 -0.427825909611018
Ni 4.153501943642607 6.66411388667336 5.9795241368049785 0.18286482725045283 1.1962098595533206 -0.6622025315875176
Ni 0.6169967671815861 7.333854836914563 11.1764959036689 1.4672812658476924 0.04205553440915337 -0.34126997879664456
P 0.3948386176663765 5.488452541441964 7.927834748519228 -0.45874368223579703 -0.20095356643136358 0.1646562746622261
P 8.473193692249227 1.7323269251393216 7.978478136776285 0.3572894941533524 -0.610257248868478 0.3621177687799312
P 1.8131336548947 3.210666677622776 10.305644389575864 -0.11354531491902381 -0.0564871364534511 0.6931048775933288
P 4.025625519018572 6.01734474923887 3.8214799733100375 -0.11460306675957681 0.7816225601197635 -0.4484271308011374
P 6.85308632480921 4.066362200395809 10.344948710860447 1.3518161081981364 0.3612906448929455 -0.06382763597892234
P 6.351589129853562 7.82277609042779 10.150668432683142 0.23814997297600274 -0.9671914165649408 -0.0271117686151275
P 2.293361653757543 8.336768149839479 5.6461689004742155 0.6332894480975931 0.251604812929328 0.7021333063441842
P 7.00122298747336 3.916279690058618 1.6455186966812643 -0.5152447026463192 1.1953243716245736 -0.5340636351250351
Ni 5.390736755750035 3.042206717040215 0.43590321041073726 -0.4627024097732289 -0.007876317424283208 0.2231334449625125
Ni 1.2876827147417793 0.8609745354415563 6.868306276862912 0.8844954829266057 0.8552437851503399 0.5773790100832185
Ni 7.008456856368965 0.6497482662561295 9.188629632012303 -0.7481239141416858 -0.21203939193187998 0.1592173630348419
Ni 2.7278081809797134 1.4835917394898515 9.234170575260057 0.0775760959132664 -0.3484179026953354 0.2721924072726925
Ni 6.5107072198947264 2.0170873184021425 2.670660616704441 -0.9939609713493011 -0.9032532231500832 -0.2887279430338705
Ni 4.245037861261826 6.869526935935582 10.29811594096309 -0.21146063661027456 0.7614077757347855 0.21010052303795426
Ni 8.159470797741864 7.058679545152269 0.24435883009594028 -0.49487590918198 0.04470531332717462 0.2908385616189701
Ni 7.69931385728426 3.8270139280579443 8.181328252413602 0.1381201760449105 0.45991584816702724 -0.26853604146702786
Ni 3.1716956728377403 8.369748466186685 12.32573335818475 0.2500613797016081 -0.05072195183489974 0.30066248968792736
Ni 0.23170451423335617 4.902932562937998 10.062989077049236 -0.4687105636405218 -0.3623327130042147 0.03657008581454992
Ni 8.586016823069336 2.2422741437862217 5.765808804137789 0.19156209791413462 0.7649913793209857 -0.4941925099617102
Ni 3.575386996561041 3.019892528678557 11.623728271642667 -0.6837568607195257 -0.5686511432919173 -0.47078055879567304
Ni 0.9983910187959084 3.263105470700374 12.555322663929081 0.16464264781547128 0.8586852067317212 -0.40911316369286316
Ni 3.0443957956723837 8.231503195860483 7.958159343134897 0.22995612431130072 0.8426379234608714 -0.4532188957628259
Ni 5.569097117224588 7.713033885089995 3.71234854793628 -0.1422776498567098 1.0086882502571468 -0.5524079419601777
Ni 3.176749471655217 8.368289080431905 3.6584746921998152 -0.21585850856765404 -0.47140765085671077 -0.4756682259052776
Ni 3.5628380807807467 4.274829149478218 9.32444799787963 0.15461817369993372 -0.03347679160120686 -0.25495496034848353
Ni 7.265479911736936 6.106421331604665 11.407152723067192 -0.2836217321555567 -0.11537054105322067 -1.1813522257151978
Ni 0.3324030321685393 9.010986351439481 0.46526208803312047 0.3835168032809975 0.4842618811115595 -0.1080215568873172
Ni 4.540680587807199 0.3001830377824651 1.5014863312385787 0.001913157862312834 0.07296919326887434 -0.2545836930519938
Ni 5.941609835409053 5.624067313987946 0.45028356522773955 -0.28360244888184705 0.17493425954946648 0.22816123719440706
Ni 7.967282305813076 8.791240692696679 11.420021442515973 -1.0414885846166193 0.7488379094895748 0.019729102997811183
Ni 0.05476119830958673 4.910742979292281 5.746150337507668 -0.2421863478289055 -1.5200346462903243 0.08354825433630128
Ni 7.807416505786438 8.653851235004451 2.657092833462013 -0.3016785896572675 0.795493918785217 -0.06065463756757941
P 8.5409109929818 1.5960635367023261 3.440791992332596 -0.7130067587235785 -0.22243590467485563 1.2423971567426604
P 1.7982785492796922 3.3605239741089203 1.5167675414597659 -0.2894635356483144 -0.6314410820349446 0.20383860128864253
P 4.626784347339185 0.949708792753761 8.229031248631399 0.4078885472571427 0.5578000595100264 -0.5644558742636473
P 8.48406701697774 1.6291429471439927 12.444714736547864 -0.853968260872026 0.8735374412532052 -0.09638217287617594
P 6.312618125068528 7.747788886583446 1.3590367687410458 -0.9066668768173224 0.4381584018852776 0.014958678192361336
P 1.7455785081348802 3.120734282623005 6.013830512307145 0.006002497440338049 0.13345130981433145 -0.9238446741481896
P 6.866968506587697 3.8247077382232315 6.070684397720653 0.6799117759418226 0.7000525125557556 -1.0659292341574869
P 2.3776366768190327 8.487454233297473 10.260630446739556 0.4254149861766802 -0.4946128853285804 -0.6783614007355673
