# total energy = -381181.07364758244 ev
CRYSTAL
PRIMVEC
9.12573481721440 0.00000000000000 0.00000000000000
0.00000000000000 9.12573481721440 0.00000000000000
0.00000000000000 0.00000000000000 13.35643534841604
PRIMCOORD
 96 1
Ni 5.459525427221396 8.753112522025841 3.1362512186273888 0.24622915043971144 -0.624769326441724 0.6329279509931165
Ni 7.030575378160002 7.730281946262576 6.66420633978584 0.31658867399988055 -0.020000354381326847 0.5453057836977576
Ni 8.184424124336298 5.327147522365826 1.2138185105330017 -0.5852614981550888 -0.6410724344771218 0.5504701015075164
Ni 2.103317542184018 5.236063566184699 6.127478089510138 -1.576805118312149 -0.05795009415222278 1.186819419477356
Ni 4.275132847627783 8.739287034237602 9.141504695501887 -0.365540421308235 0.8409672206266678 -0.6962215688454396
Ni 2.830218799137384 3.025418260385187 5.71913158494646 0.23246063590070934 -0.5308376719885697 0.42014396758572803
Ni 2.9389154229299312 8.62441228817929 11.669824120310517 0.08036137196788741 1.1188847033085956 -0.15675604597854292
Ni 4.185609392048497 1.2041862977538031 4.5997562134690755 -1.0591906298820724 -1.6196080724102881 -0.3542198540890932
Ni 0.5634803410025816 1.4274108896931446 1.4112145360782498 0.29883983465689173 0.5721308743104018 1.3225063034904256
Ni 1.5353227003175143 1.8257492012156598 12.570448334907171 -0.8773624714262503 -2.2250031080904584 1.6165919112917837
Ni 0.5916031170534163 6.742923100554017 7.601988720175333 -2.1236620485471103 -0.6500502124956998 0.5156630211306603
Ni 4.193475775199296 3.969904405348435 7.4739939056066875 -0.5320406911577353 -0.16001311946325988 -0.963754880079566
Ni 8.475827078827407 7.542830233616894 1.5142322152829282 0.02143914371038243 1.5062190805634703 0.7162607468845019
Ni 4.177715631694156 0.7612048929903223 0.1295972935492485 -0.6615013917554349 -1.024722420901874 -0.7758972276002121
Ni 3.2416251624835013 1.2163326503915228 7.185828761721035 1.0992656435260875 0.085015325800131 0.4249282763482488
Ni 5.568267679686512 5.050135851202803 8.99368878556951 -0.05483391712074427 1.164638769615259 1.7280446053478369
Ni 7.786487345132385 3.5585619221439133 3.2344614608902558 0.16090040716421966 0.16629843825133941 0.2732804981305487
Ni 6.297286107047053 7.4250352525142 9.212414390393603 0.9646714783565643 -0.05326605841299214 0.42877156135373895
Ni 3.610706369155131 7.182673995299653 0.30811399953257707 0.8457150197242983 0.09695064378513625 -0.26651078350688295
Ni 3.3829645386315135 4.637588771042474 1.5143262103484192 0.27197437772461547 -0.030313049161244568 -0.9287518816418199
Ni 7.402512939734415 9.01630783113514 10.918831836814464 -0.5992508704556453 0.1938984593567951 -0.495009863656683
Ni 7.89146979497786 5.496512029205376 4.859377884942813 -0.13068248881994265 0.5039105085804224 -0.7991361435234946
Ni 2.071833758111792 6.376114201776297 11.669036569421985 0.8237457145420588 -0.7880310347492686 -0.40713315714835685
Ni 3.3488342915503178 4.217905366492442 10.354722732703888 0.4993486002413529 1.2233609660468157 -0.8167965369177352
P 2.4478322715447964 2.029818876410768 3.470843536851434 -0.887023134444466 -0.3529942092121082 -0.36288704284578793
Ni 5.71724529562248 4.283583277787459 1.9756841067021151 1.2679904318307325 -1.4371762189321957 0.09513750183579744
P 6.904768002154288 6.504558915056467 2.6769237982029885 -0.770448288670499 -0.3240680130960612 1.0219188900148077
Ni 7.618290932310586 0.8399389926540751 6.186941375601334 -1.3592149717653688 0.5709836480798359 1.689611241072303
P 5.830596044017009 3.897765474017725 5.226747103819673 0.6083469192196426 0.04610990698418511 -0.6567764754759399
P 4.9445693543484515 3.141570609275418 0.18965740267763986 -0.16855766659916133 -0.6489541512180436 -0.13461807642892298
P 2.5816520424535288 7.197074404362254 2.276177205342311 -0.3756844517207723 -1.1673834222399313 0.7832359273534705
Ni 1.5515665077518803 5.863430436797261 0.7501317267314124 -0.7315860643876626 0.8192658243938343 0.0517503930994141
Ni 7.8018733335224635 7.913097785775302 4.306422253554868 0.3837458885726681 0.9690829771606989 -1.126549418942705
Ni 2.32117620222931 3.966162854197823 12.504414519966119 -1.5269902516725509 1.0551146600404862 1.142589246014387
Ni 0.0015614131752921506 7.146955870413075 10.04088689763123 -1.536511818009741 -0.7729486864948495 1.0082059113040893
Ni 6.18313229401532 0.7705615085872074 8.069103129860263 -0.27137273958487457 -0.9811108548595104 0.7295299531895822
Ni 6.210682886512147 8.601442814408335 0.9416608175578098 -0.3289399964763819 0.5706823147893333 -0.48871991688291316
Ni 8.190200714283462 2.147413091354162 11.777423830814518 0.9899184258488113 0.7379060930684195 -0.5883203395860707
Ni 5.906841555878879 6.148929041058015 0.6325055717172209 -0.9152222225865012 0.3965844350982331 0.44998676197877335
Ni 0.5266005101124112 2.1178730887333517 6.611261565857773 1.8907267870028275 -1.0377867102849998 0.188553650105114
Ni 8.252073194286272 4.18955170935841 10.245614538284775 -0.889290333212088 0.24458467285775295 -0.6717423527571529
Ni 0.9566598748045086 3.9191926986558663 2.139380619835213 0.5351424700115106 -1.643147807403441 -0.9490180880900236
Ni 1.0338362115867747 8.747710087193738 3.010860888688951 -0.5620362090785611 -0.5074907697325131 1.2802275973268726
Ni 2.8711112154932232 2.4220794487471666 1.1524506836487989 -0.3090489139794097 -0.3079834488293728 0.8585355685277344
Ni 8.26601731662319 8.774548872398496 8.577422056021401 0.00986686549175075 0.02013045220128791 -0.6269460223780686
Ni 8.770643058026637 1.299641480766988 4.454210786283704 1.430300317747969 0.4323327963424361 -2.9266759298584564
Ni 5.861258511983004 3.5062075832388806 10.934539051059424 -0.6578439975085058 -1.8672688130902035 0.027088371576359797
Ni 6.330476403473339 5.58627275388202 11.409560909700467 0.6306684655349785 1.8538602529937815 -1.28199831607405
Ni 3.1651880101968444 7.434717656833223 4.639304409131048 1.0506761646531582 0.6151503152947212 -1.2941971721330872
Ni 0.8199070928230768 7.047421484072271 5.030500920823151 0.7211666688265516 -0.5250737729215988 -0.03294585879840133
Ni 1.496921609483912 8.541431984246318 0.7299264379446541 0.0651808075727071 -0.5210772501676961 -2.037872563585116
Ni 3.625946345792991 2.190614318541965 11.501947108196697 0.4608846398381998 -0.9142472602677416 0.390129937722141
Ni 7.008573232247499 4.077296049105525 13.018570265922213 -1.6373815943436252 0.6657234002565825 -1.6542917398354025
Ni 4.559965273269038 2.2737406342271558 9.240956950232068 0.14192746560614267 -0.19381155606994363 -0.46513158804001187
Ni 5.716980649321584 7.0017745600348 4.8344682800142476 -0.3946720485668687 0.0791894631469733 0.07781083763189181
Ni 2.2203550873220763 7.478831457472395 9.346472342973142 0.7785593478134075 -0.7790889950646325 0.25623254150932645
P 4.589724293518177 8.80449040733791 6.411222727597361 0.288930803073296 -0.5364102809803406 -0.40033541750023316
Ni 1.2705942678099165 2.9416166403459827 10.693843240393626 -0.5730248468795809 0.1132987461258565 -1.3049868065494235
P 7.7811944191144455 5.834885139238442 8.567939505288228 0.5534410112103824 -0.14355034592154634 0.6979722329879592
Ni 3.227334262235065 0.07660415322825774 2.134264733066839 1.1709551987515896 1.4623735441334298 1.4577262751694058
P 0.04162886313109412 8.557429396848812 6.192243427353787 0.010704273791381566 0.34567530695319176 1.0019015663526163
P 6.896281069056558 1.9108192983522665 9.833007228276655 -0.7408248093771113 -0.18786048069283132 0.8744725514729649
P 3.385592750171456 5.606303741139566 8.592234948284021 -1.0472213733353384 0.8619037136690189 0.4049963133110122
Ni 4.1287834432317565 5.3266912356401415 5.267965308897652 1.7401046218361644 -0.2589856787744314 0.6823558666069409
Ni 7.986249673637032 3.3223787871951336 5.75691760127384 -2.1355135485690577 -0.27387827961554767 -1.1523537816003186
Ni 6.587238069750487 3.3392066416383757 8.024893509008699 1.1840092037220706 -1.9251425454785362 0.21764388260285097
Ni 1.8846193145634662 0.443268865400662 5.27521753011568 -0.3954107265051061 0.1627911964290293 -0.1858182534518219
Ni 4.319319654143065 5.041466403414799 12.508888867598179 0.10847947036034222 -0.325845159601142 0.05436700478665475
Ni 5.355720197128186 1.805663459551031 2.027854105769971 -0.1647598901196259 0.043479668450189635 -0.2292616693474374
Ni 2.4824096796171635 7.538732778820249 6.841873439885945 2.1596968306834805 0.6621058581086533 -0.20195886776742636
Ni 8.351525449016453 0.2180639890718503 13.160349502473784 0.2843095022512007 0.06383586350903846 -0.1174474781869074
Ni 6.100224995958457 1.373240529619888 12.420883021668521 -0.09707585650909088 0.4180855423948026 -0.01611516039430773
Ni 6.684408890852245 5.320522239108888 6.760520254416764 -0.6227643801965532 0.04223422607886275 0.11492805419916335
Ni 5.448373779645667 2.1075518829983695 6.321707485179136 -0.44079223996369893 0.19844699795942597 0.54595447302535
Ni 4.371555358499419 6.871814974825358 10.629197449672107 -0.4505776014852369 -0.6800488157403192 0.05720910222114018
Ni 4.860639974026056 6.797239472379494 7.381727254232587 -0.8488944458935446 0.3166593793368159 -0.32533710961647194
Ni 7.376121315520828 7.162004206626148 12.6387006159085 2.150738850159244 1.0858532267749235 -0.4407732138003055
Ni 0.7251445530594812 0.24265145557208198 10.62276015654615 0.44575575461656136 0.5659759104525995 -0.0425620417319267
Ni 9.072175577827942 4.098130101000276 7.571976917080164 0.16935496568947606 1.8497572865690015 1.0539028991205721
Ni 8.782862416540466 2.011905059560397 8.915166402946475 0.6499712796286483 0.007965020483347572 0.0564259441982125
Ni 0.98964027933698 3.5075308147433653 4.492663893804035 -1.0119080427460252 -0.08118643897234405 -0.3378144161478763
Ni 0.2819167534641307 5.810747571449736 3.146548697452635 -0.6597738675413669 1.0337729611399162 -0.025623871215691357
Ni 1.3863815873195997 0.14131291151792216 7.989431817261955 -0.9591315223749417 0.60838959953212 0.4892940442188283
Ni 2.4485532045713785 5.300600760665506 3.623694114515013 -0.34512560509730883 0.32735928225282335 0.12975894856440875
Ni 1.1577910634862096 5.131929809648996 9.525929912184832 1.1400950188376238 -0.1451508576394468 -0.21660207160189793
Ni 8.968890514602013 5.515867712108911 12.190671767385497 0.36844448232890736 -0.7655058570635591 -0.6653338781276477
Ni 4.583892949163929 6.0912361474624745 2.834008716680919 0.5616819110629359 1.8004453277077508 0.5509421560479286
Ni 6.396692733104665 1.6443204733490133 4.2129135897134535 1.0319593049699454 0.613418420205279 -0.6748492738172507
P 9.144351012096708 3.717888121018406 0.14368468991802985 1.8600506980752096 -1.0950153528901658 -0.91515588812494
Ni 7.610169028593404 2.451135787438752 0.9768952785151622 -0.30717252289230323 -1.9027654633349167 1.538773617460724
P 0.5389001750899609 7.7128517933414305 12.310452508318372 -0.48785576911040496 0.41999895736743154 -0.4083626586800838
Ni 4.123262373850975 3.52006044823066 3.761506394273484 0.8431382601360576 -0.38206567265676783 -1.1656561551361795
P 2.6444188444386802 1.095142896049736 9.619264274497038 0.058824012116743846 0.15436312026633414 0.6117101792649207
P 5.407691255183644 7.827589653382039 12.259684222071819 -0.9690960897868213 0.7978763029744645 0.14275278972091543
P 7.620462857124845 0.522822456023744 2.424833595423398 0.27829209241252717 0.6182199553589804 0.3394236696165251
Ni 2.0237411372246514 2.9694592563472475 8.4467561389606 0.2593006389116889 -0.012601233703778298 -0.6495424196213458
