# total energy = -381164.6671687262 ev
CRYSTAL
PRIMVEC
9.20073923363066 0.00000000000000 0.00000000000000

0.00000000000000 9.20073923363066 0.00000000000000

0.00000000000000 0.00000000000000 13.46621189339238

PRIMCOORD
 96 1
Ni -0.10584806205557477 8.093310480635903 1.666942054128139 0.25816832507945864 -0.20806755176832556 0.023475200303804733
Ni 4.727661740942628 2.2535922157492645 4.060884183232249 -0.2360756069454773 -0.40047759950505224 1.4732444254096626
Ni 2.1795446680129165 7.3337710719963685 2.5822941381411217 -0.11562045228049764 1.5476025286062636 -1.3147276879862713
Ni 3.518905449763399 8.997881138650198 4.692826822890368 -1.088889442498086 -0.16296088923767418 -0.059311493276123665
Ni 0.47735458264994324 5.128767959079566 10.841539027160506 1.9073340565422054 1.0098362478186607 -1.274272151074386
Ni 8.47688929091527 8.184959042142086 12.494772900203607 -1.42645163342584 0.9203196917140666 1.9679151605593723
Ni 8.654803981593421 3.610498806835385 12.089856656033167 -1.5117225268802028 -1.1164257002451419 -2.4296156114306484
Ni 6.442504682623571 7.045143888535978 13.071274646671503 -0.2695621687386971 0.9658516147075947 1.0451999720299354
Ni 0.667782278412765 3.231106332815964 9.450223512239347 1.0407355085006784 0.7483694544935886 -0.6051890903169513
Ni 4.046190602996793 6.499549264627219 12.756784185789781 0.46237382278921657 -0.34590850600992046 0.17791982454035163
Ni 8.43115241718299 3.6771581611283572 0.6642252727026666 -0.7558513646929306 0.2762390665382404 4.093426089389763
Ni 4.71205728754292 8.999058833246401 2.850756981937127 0.910847233447257 0.40734013095284044 -1.0279265296614684
Ni 6.269217963678942 -0.17060654366436082 5.044106438794926 -1.0144467500074787 -0.3558867002685548 -1.4864802073736465
Ni 4.8826021862557605 4.580937555585826 5.672049517195466 2.3337306899058645 -0.0037057309863613593 1.0664748222483118
Ni 3.8196408057910163 8.46738492749434 8.864106993482126 -0.37187716215954014 -2.8277131407392977 1.2863933598179522
Ni 7.984447336399266 2.221628848349156 8.675310588749829 -2.4228273848642212 0.5036395143072229 -0.03914607407184226
Ni 3.773894731319704 1.3572102154742045 8.42254972618728 -0.7439970364575058 0.39355953222898027 -0.5279984027675617
Ni 2.1731409536460555 0.9314368159902048 10.270073765239191 -0.05829796440994476 -0.5474649961326055 -0.5637807025734936
Ni 2.1279561242557468 7.520242449975066 0.16218326707978994 -1.0630529410509564 0.6139079582471878 0.2635211047509397
Ni 1.8897673921734195 4.268489658769394 7.236041742063377 -1.2259415822897983 0.3341071424996181 -0.3247444703377956
Ni 7.609250399378823 1.6658582070700696 4.835648974823339 1.8253665164294626 -0.6308343016888813 -0.5929547530342885
Ni 6.188775902314766 0.3852303429357621 12.668553698834302 -0.26829615754207986 0.08566478645867183 -0.43910739606210825
Ni 1.727595165980469 7.241294443977229 4.726317512969929 -0.14171972047071077 -1.0990121327543847 1.4517294341560225
Ni 2.9163398497632564 3.7947528067071667 4.74271875036988 -1.4499348041494446 -2.8428348268720844 -2.066940170375034
P 5.147187838623324 0.5811803222660984 10.28685223293949 -0.1357825290506694 1.2803949761426723 -0.26053991063542875
Ni 1.1754864188364555 4.234465325825929 2.5358892907550574 0.07116993527660646 -0.08849017172260888 -0.3665133267444656
P 2.4340003067053164 0.6267736644694654 1.3276270792618934 0.8218053029862362 -1.3622542728123248 -1.3839194164905844
Ni 6.959273391142421 8.699703588073712 10.727210643938358 -1.0707163711334848 0.6116531007747402 0.18208809698542835
P 6.539020435078129 3.394934692034827 5.10525639055503 -1.784937718990455 -0.06898706869267474 0.4587187425351326
P 8.004412940100542 6.976865204173224 7.083496249120494 -0.7717261269416581 -0.99567846826104 0.8975222342035767
P 4.138455614018176 6.7981868521553475 10.419898599650061 -1.5500057387311177 0.8234572367673625 -1.8702008991353338
Ni 2.8921051031507385 7.540447272891197 6.824918679341379 0.8520666729739391 -0.950936131048343 0.292899815023373
Ni 8.597833005502036 5.894941100561784 12.787043576321006 -1.8297057672347647 0.23181194657311688 0.8641038066441311
Ni 0.723819379492316 2.4382326466604263 4.190334901128785 -0.6355764443595571 1.258818021302845 1.010352268223131
Ni 5.991328042669882 4.741545656143193 13.49745287867295 -0.3122779624396687 -0.6309484586692424 0.15812490130161153
Ni 6.967793275486837 8.986048988253957 1.2025181901149582 -0.08306231583881823 0.6749570030397085 1.058263747192429
Ni 7.066508004570246 5.435189371829482 4.825428793905653 -0.4185773944295566 1.0494844583379022 0.5268336930354991
Ni 0.9651851267626853 0.22267076562952876 4.81439986802698 -2.2831779166589774 -0.6962318532580848 -2.4528509278095045
Ni 7.445698062330945 5.486888324455046 2.041612708875903 0.8989934194324647 -0.4344107619173873 -1.6692663588673637
Ni 7.044472234586579 4.885482017573041 8.024838580753462 -2.6835094775044688 -0.8787824917022286 -0.3350839045905906
Ni 0.9892174571164801 7.746415016880496 9.279499199115367 0.11348026600904326 0.73354010279024 -0.3477782122288075
Ni 4.76639685227091 4.790309573017278 8.594391929103752 -0.6794500058140557 2.4627779571152297 -0.48082611595713326
Ni 3.406297604740392 2.27232492042014 11.665281192771245 -0.2597904340639139 -2.541177063150424 -1.5210828850491804
Ni 2.89711950592364 4.974701583974553 11.339385495784406 0.8854722450175783 -2.1275117613105032 -2.5090537002533178
Ni 0.6446856632186108 8.101213915465118 6.83237863854921 0.6321939010405693 -0.8191652942602279 0.590576482610099
Ni 6.496761440700266 2.025662307688561 6.823127295451683 -1.2596402600938241 1.0645143560878312 -0.3327128332552528
Ni 2.1699574979406906 6.989415012214027 11.259288462133963 -0.9286120136298458 2.0083632412720895 0.10331386699900272
Ni 3.5519729058474487 3.5490102678788724 2.1260184486154294 0.5706555753164559 -1.2083102423612804 0.2931715806275209
Ni 3.552442143538124 3.7044843560559113 -0.3155963897134707 1.0418408257497154 2.429783247356764 2.843746540053077
Ni 6.783024034229216 7.377005344711714 2.9663366656677437 0.6582448324913502 1.7250536410403132 -0.2725947849174338
Ni 0.9563616180301856 0.41297977185882684 13.165201311162221 2.7254737377513965 -1.0209125602374804 0.2382355907112736
Ni 7.956946327430088 9.197454369011668 6.569100411198214 -0.5053032751628911 1.5868930986757703 0.43698135085804096
Ni 0.6099556335913254 1.070266767256824 8.431855353645101 1.2154743642098873 -1.0853688309393374 -1.5585289457107805
Ni 5.14972724259639 7.003547347368479 4.401000542468255 -0.8150965235074931 -0.22120666025344485 1.376564775897726
Ni 6.586477847009551 2.3871777457671612 11.315307161735447 0.402580504780668 -0.10368924806055045 -1.4106758586488222
Ni 2.891240233681651 5.525743045390756 1.2721070597159885 1.0542955065733002 0.6771519538084982 -0.003635025649425998
P 3.2281160926302888 5.666495951115241 5.520904376733383 -2.9919901776852345 3.515580681193087 3.3509043519262027
Ni 3.971434598354916 9.031519040554285 11.939278281095506 -1.2761613976772992 -0.3894259696765809 -2.004453107584406
P 4.683268175109143 0.3974930879187398 6.274998788013279 -0.7267300218469419 0.706859251064944 2.3475192590495246
Ni 2.190852376284285 0.7398673085134067 6.457573653011567 2.1523748431007705 0.7593688909278857 2.340775255457472
P 5.146184958068744 6.450895756621526 1.8794791257868908 -0.7005322804056515 -0.10017223604622748 -1.1753813528437433
P 0.31371299843344713 5.98918427047523 1.268911643049881 1.055256584934989 -0.5599924391756549 0.04473693789605843
P 0.7877442741447261 2.3861564637345154 6.387010425146958 0.5258631015921137 0.1593052947629579 0.7913896668088565
Ni 0.36323045583432306 1.2551464173828395 1.9140472224071978 -1.1739914144747523 0.4086434231452962 0.9877283601760279
Ni 3.048775287402047 3.450102323275774 9.153778460822746 -0.7414063929121941 -0.5507673210329611 0.838826263024265
Ni 5.4075595525138445 7.410183209664158 6.918198531878086 -0.19103039378038067 0.23024511630662928 -2.085023767349622
Ni 2.4656048452831443 1.6371242990704904 3.110304309610304 1.6027426641135172 -0.19651507104403573 0.5721982372132274
Ni 4.450940313790739 1.464214810426208 0.3749880802443975 -0.38730403823757165 3.077648793496319 0.878839570192409
Ni 7.977896410207879 3.690287615728229 3.7079751164449726 1.8096779020496123 0.6349994888101643 -2.9214272798650076
Ni 3.5030617771488375 5.670544276289693 3.5377080800509244 0.23099484998846026 -0.10952462379540492 -2.557376298618105
Ni 8.066803151482274 7.420423632207715 4.91535589713879 1.1657433155333472 1.9887896900155364 1.3311349256997012
Ni 8.33705645909407 1.4941264130219918 13.096739532092714 -1.9410450756414057 0.239350163931691 0.7832125303147027
Ni 5.972116899569299 0.3055740246849912 8.186891197338985 -0.10463849934769721 -0.49392048724724613 0.6570610965958942
Ni 3.570006354351828 2.851713858796543 6.679281101264357 1.1421117921573363 -1.0982426015782119 0.7470890451192681
Ni 0.92686404869088 4.848237425968079 5.031017467446799 -0.4771676932689395 0.4417839144530069 -0.23313915002497268
Ni 1.4991040128387616 5.101018530156501 13.007485002882877 -0.5567320232568282 -0.6529828127614625 1.3244305170963317
Ni 5.455835830219189 2.7550048908222946 8.906350346603634 1.4931079971028092 -0.8116885262672086 0.6980524514065913
Ni 2.3185862362772913 5.948507803211015 8.92735747396343 1.1434356531750824 -0.6119966001570879 0.3620072113439959
Ni 6.021506466697619 6.950210663195068 8.938171102548734 0.4352286298329924 0.007024253836633065 1.9179989924552194
Ni 9.203591261946578 6.252104589077847 3.4354188638532546 0.35743630414386185 -0.5780595810900109 -0.8046195352355691
Ni 5.651498746491701 4.492141223179825 2.9138326483768053 -1.2960509375123745 -0.09432169080272143 0.8458646579282851
Ni 6.252270202380439 2.2954555783487156 2.4036378678969235 1.0202831541835977 -0.8872578761630913 -1.7577362188749988
Ni 8.303574969753543 6.893810132923719 10.630483274486044 -0.7651371608702306 -0.7991119751537785 -1.3499551437299977
Ni 4.335369830799156 8.562778189786892 0.5665520672777759 0.32706926181623025 -3.3656226319729843 2.227871430777189
Ni 4.794514310755289 3.8512085414127126 10.954574706548541 1.1176122643540751 -0.14820224287126088 -0.5240309334793813
Ni 8.384854298369708 3.868772752226416 6.3050014779254875 0.3895668661298194 -0.7323357980694937 0.5238036479599237
Ni 5.715811912331296 5.871617227113518 11.178908045721306 3.452880731060705 -0.8355686753189158 0.30099776154015906
Ni 9.052827952154356 1.4672694557851131 10.808991412831812 -0.3791137891172955 -0.7573883701627473 0.08644485915780596
P 7.575962125557984 4.6333081621607874 10.315427888227704 -0.6513751019547104 0.04338865139828011 -0.5986497465365367
Ni -0.2023362122930349 5.375044140771765 8.537039122342502 3.0295043725806083 1.3172286000312539 -0.2119828276623317
P 6.446433398190597 2.5248392031766094 -0.0031687345229122984 -0.31989974065098453 0.4971950442334599 1.2836060268808025
Ni 1.424872450321757 2.6154204789549818 0.26770286275189215 0.7812487217201126 0.8645195540253111 -0.15665808694809796
P 8.104756199992766 0.19026852297755356 3.396205314095263 0.05205455460339422 -1.193919263746931 -1.1075291690864604
P 1.4054956939185825 3.144122545999434 11.508049763438931 1.4039868766644208 -0.5799105182558206 -0.1367693184439709
P 0.8362450498824726 8.671963359889679 11.241202569417094 0.43045383415216837 0.2539170060022724 -1.28182168128687
Ni 8.005885058345797 8.53313340862306 8.803401437417309 1.0508808244647965 -0.24865858581681047 -0.9892771927203865
