# total energy = -340888.84847683395 ev
CRYSTAL
PRIMVEC
9.06524684952902 0.00000000000000 0.00000000000000
0.00000000000000 9.06524684952902 0.00000000000000
0.00000000000000 0.00000000000000 13.26790509347891
PRIMCOORD
 96 1
Ni 6.3762771125994595 2.1641554607606484 11.158321772604623 1.0402176883239955 0.32312853200092734 1.2639594562944683
Ni 4.7809930913632686 0.15811603665459126 6.084780472016783 -0.547659885752231 0.04916206354694759 -0.8769099572698639
Ni 3.140083682414511 1.6706162230822907 4.635567493862029 0.5837666587771172 -0.2649323832761695 -0.2898790259191782
Ni 3.745062000393 4.405864108861052 4.442943688308838 -0.40861874055494785 -0.713489869007584 1.0945253006276248
Ni 4.286764894919531 2.851147067560034 2.347463818586155 -1.5577622427480848 -1.1058396971991793 0.6041390517858821
Ni 5.106698347696419 4.936797490055072 2.303481053614205 0.7483604556325241 0.2281599516428264 0.5644533031604859
Ni 5.549626311860123 4.641850616497351 11.439004480144916 -1.362214677823641 -0.28563053505546937 -0.7198680046197861
Ni 5.857110421898368 7.8633674119303345 11.995844523966586 -0.4715675734733427 0.3856307643002069 0.5163140244510979
Ni 1.8737140149186318 6.57384510381894 0.46617216377304016 -0.42440762795808845 0.994046331974256 -1.5717292464511383
Ni 2.945797310577497 1.6400210147512937 13.494255503642275 -1.0050118298468238 1.3849337166877116 0.21591353017530554
Ni 8.209324429866877 8.779782287601089 6.648799284868771 -0.4913740666763086 2.1112978705548024 -0.07137150976445128
Ni 8.689338319151204 2.3102419147618374 1.2013491840131905 0.9295062433093413 1.2670697197886758 1.0543178751708036
Ni 6.960051818048704 0.4860567828764598 4.67660496011198 0.7848924891202869 1.6499874560330938 -0.14783226112635184
Ni 0.6835005802132328 7.482917129490255 2.5060947612653983 0.42359747335196724 -0.7150957800421233 -0.14053341347209347
Ni 8.128924754996474 3.7637726700212 3.6656168960225237 -0.015407849914637981 0.24765457003232835 -0.7280446268933074
Ni 7.751021806938914 4.035802599383142 12.47334371375728 0.544110992058708 0.0028570098328208862 -0.006758658880072231
Ni 8.605357871750211 7.458876094677275 8.4921891423391 -0.430503199332865 -0.23627229633731564 1.953717014682119
Ni 6.921234430767718 0.758997769553146 0.37090185786673574 -0.7168364168823138 0.743959498351351 -1.269626938992891
Ni 1.8363833281313593 6.718372335351112 9.131702424956929 0.6953646201617831 -0.08000681684194608 -0.08271470269141239
Ni 0.27944530133668327 4.885243430861479 1.396964521047634 -1.0043734249318768 -0.05078314409013835 -0.6143625292861031
Ni 6.409655351732713 1.9577941800356673 6.827119943842806 0.013782912716705297 -0.09907180389319713 0.8396017077377088
Ni 3.5697491903446603 4.420749244292015 13.576516273703895 -1.0098753285867124 -0.9448624140504372 0.5638699198531902
Ni 5.783409964496589 5.5389383857498276 4.783650115233435 0.6104657653348584 1.962742615219497 -1.514949518457933
Ni 5.441160632547419 2.974262185883965 9.11850070587769 -0.5536248450864142 0.45397762830572136 -0.5228533682315125
P 0.14707547243938507 5.9083743931907495 12.451822817586084 -0.032921176208052974 -0.6695090925512598 -0.3667686372883812
P 3.960959920870339 6.0337558232429025 12.36796928364187 0.8291676568885784 2.260096866469798 -1.3553331202124594
P 2.4011754065450157 8.54445754298943 1.3656921387722445 -0.2410522342244623 0.6955667088702601 -0.898332645920014
P 6.392105033709362 7.759080811444472 5.81460619869791 -1.7562568061159947 1.435159188502167 -1.7840440035315919
P 5.053449087330114 1.2393914926831249 12.737308292940824 -1.342999795458087 0.11559448413856865 -1.1491424737518725
P 4.089459795860526 6.0587668394755605 8.233981901469932 1.412740711597651 1.613747242754137 -0.33513506954350025
P 5.094596243067714 1.0687472847949224 3.6856646895703755 -0.8419671226460919 0.45837987113847506 -0.3148030428543675
P 0.3332883353757812 5.481491916062857 3.535511565804065 -0.24605842918980206 1.5748263973192231 -0.9729023509067889
Ni 0.8743865779332225 -0.04887165263207011 4.4286677374704215 -1.9369549647324318 0.4819782272837055 0.7458490020645799
Ni 1.9683008012077046 6.312167686431517 4.551965973781994 0.3196719409108946 0.9717001030685717 1.7339362882419234
Ni 6.143617550580191 5.779094906966054 9.080342362047269 -0.42889934518085493 -0.3748033346673997 -0.1615912625836572
Ni 8.728346076617362 2.5842208722100493 10.054286201151902 0.7851233741841704 -0.7663445509147705 0.1317140154082506
Ni 2.477604503267574 5.396858770884135 7.139910849423856 -1.7020988320163521 -1.5614867427875236 -1.537157936234172
Ni 0.6158983144097536 9.453692743105178 9.264713166810967 -0.3957894500007635 0.5569996750959181 -0.8209097877551604
Ni 1.6594297083917868 1.4019041740904667 11.39309716325336 0.14402882821986165 -0.9228329450542235 -0.7144596891200211
Ni 4.172569979557882 6.8338907767620425 1.1649866655962144 0.1869153431707426 1.9285132617229817 0.5869363147543505
Ni 5.530480510380103 7.86793629637443 8.038546056324362 -0.0014927824954425906 0.34763757288588515 -0.08041099425890023
Ni 5.73456641412995 3.0539910324828146 4.814352293478004 -2.146849028186535 -1.9187600389909598 -1.6695250118453893
Ni 0.8984856303264439 7.376101325115695 6.507151175756132 1.1370690875271061 -0.6963179852139879 0.10793645337267863
Ni 5.229459921390746 4.420468221637715 6.961537612017726 -0.30648963789266576 0.1546549404751401 0.3362784391193241
Ni 0.7401420559743391 7.671256699352413 11.047666836162456 -0.8923021234552181 -0.6476737418437233 1.0755652145853543
Ni 4.595717574957664 0.5308472613483478 10.674414359771209 -0.4259430907660084 -0.2023293637329677 -1.4574257132098514
Ni 8.102980018331788 7.224838615127247 4.479364224306057 0.8921725398558893 0.1824287681542987 0.5040416348416481
Ni 7.333295229193039 6.388914066796025 6.809381068683668 1.1608854732204137 -3.2000633858805148 0.8065856578230045
Ni 2.413676382037888 5.427082304091703 2.4123573886120635 -0.908239620621081 -1.348822058566819 -1.2207230142033363
Ni 2.055245584349213 5.225317103551557 11.626068569766431 1.903684118494444 2.0045145569499607 -1.349250147243173
Ni 1.7391857507313748 3.426654267824724 3.71746829531486 -1.7951198017297791 0.6334133752699672 0.09118545916658488
Ni 1.8290676738726588 1.4239145935949584 2.5853975412593417 -0.581946831959559 -0.6384293404273199 -1.5897786477536815
Ni 0.9866977349863737 3.317807848141679 7.810271354236859 -0.4883414504975719 0.7779109155961312 0.17920923277573653
Ni 3.8762270579755755 2.33875211630287 6.737349523238552 -0.07494714293085158 0.9399078982586394 0.7323280847600098
Ni 4.238564977083706 6.642804437085278 6.094015239046942 -0.3601670728114636 1.53277086291007 -0.2186206446938235
Ni 0.5932632993929637 0.16614965846879254 -0.10507255739321013 1.1468557346002248 -0.4798030740092575 1.2448183645896431
P 0.3439218700045987 5.519420909146381 7.915526123093018 0.22597142863193986 0.512846891838104 -0.28055286342224584
P 8.45333368102108 1.7449603130148845 7.80304091329914 0.7640534408877486 -0.35132299215727236 -0.06608789276800876
P 1.9638135039858249 3.3072559007350772 10.502103959500417 -0.8175233877814307 0.8810000681788377 -0.6112795194854054
P 3.8405734418671873 6.327089082850129 3.5118947845466097 2.929276343595781 1.738924485485134 1.0418711647670185
P 7.22186521413982 4.074402420738219 10.098680528333697 -1.5386247505876856 0.6079764232541014 0.4892647336427896
P 6.8257229892935305 7.797997916441499 9.81291584337404 -0.00650720499089847 0.31978095568493314 0.8967403617322299
P 2.6027139759123403 8.706000242977092 5.798804566804056 0.1106523096419449 -0.8816806391856298 -0.020508918586629198
P 7.22776668988011 4.185805240050698 1.3851697282892754 -1.1699828075359915 -0.06326842104134266 0.8639891354431379
Ni 5.561701220748089 3.2927696361682823 0.1889632588497663 0.7239668572795079 -1.101456223419503 0.43692838613291857
Ni 1.4552894131604637 1.268264304100673 6.54997993479607 -0.19143971340365737 0.3782912932160001 0.9458304343906614
Ni 6.920681450706032 0.9456502969648173 9.11568775976062 0.08056603177952576 -1.1969701347581128 0.13445121183375555
Ni 2.828112275154386 2.2104698072385927 8.943217811144162 0.6946187431346941 -1.833653181918287 0.060990166530127225
Ni 6.699870166401907 2.283073369763912 2.613843379547293 -0.8620428103500445 -0.7304568358792259 -0.9318575171503372
Ni 4.134722573696575 7.053034055634195 10.201678957233238 -0.18354514114692905 0.11845406507455084 0.8113167447500865
Ni 8.152539723204546 7.509496433438841 13.413984555278036 -0.4984338017365673 -0.6528606853613014 -0.0659289985926413
Ni 7.535758453745478 4.166242437212686 7.903585379859361 1.298843412655847 -1.1522141706986606 -0.4144764848873056
Ni 3.19404003204002 8.54769383613733 12.406738625114219 0.026961359080192277 -1.0307339172032763 0.09932788576806119
Ni 0.19349678883090154 5.025627844554461 10.157762368563752 -0.0014020225538491982 -0.3296290521236065 -0.4912321417818056
Ni 8.484137390031075 2.337192893833853 5.659385601907296 0.37641233102573235 0.010060469559795577 -0.7363644596129124
Ni 3.9664081342649844 2.8098729983656554 11.427898646151936 -0.6993506013927246 0.3865278221931795 -0.09230980257901522
Ni 1.037163964550421 3.460268203377713 12.458589117881864 -0.33827798604785614 -0.7610043696487797 2.1433615838585665
Ni 3.062113493716762 8.724892217543552 8.088632452042761 0.18702178684161985 0.11173268719031725 -0.21026584497122497
Ni 5.836423528443158 7.918620091864386 3.500006619745048 -1.776348177549231 -0.7179031675839314 -0.6788095440165793
Ni 2.9025560828030215 8.5236165403367 3.5402354659703708 2.263026124301451 -1.1233375968736268 -0.40102524447840615
Ni 3.443987019922166 4.486209392249978 9.388568915807681 0.3218051852038135 -0.22735699612555682 0.9651124225487249
Ni 7.285956509813937 6.152601210270864 11.19966473767554 1.5964588879873345 0.6460184656284874 0.4133251448916817
Ni 8.121464056787167 0.005735581721784193 2.1128869568448105 0.24308340572187812 -0.6191316685399724 1.4658273070099852
Ni 4.527846071320872 0.5694017564688602 1.4896140640714226 0.7907484336804318 -1.9172639140614076 1.4069205053714477
Ni 6.0874674112017635 5.803779574309848 0.2297070110997411 0.7136053115395259 0.47627937712671525 -0.07155431519921872
Ni 7.861545297300844 9.225792435715173 11.303220679260225 0.32920867675673626 -0.22114546799820622 -0.24053569959935994
Ni 9.251809694355163 4.824053014199485 5.572745411062061 0.12492038952518487 0.184776699561185 1.688351400523273
Ni 7.296916393331619 6.156463005455753 2.5534615829099288 0.5314526798647492 -0.5878742531875876 -1.0453534668886642
P 8.720033245198243 1.5899808517921525 3.3934654923519503 0.843036958671503 0.14758774921571358 1.3834597032453464
P 1.9468433617648988 3.445999504736827 1.4590714341725204 0.7848878611345966 -1.549770739902176 -0.6206648173550472
P 4.895623138576736 0.9770976385056255 8.244769545296268 -0.44775632998635784 0.9915554472316019 -0.05445776472824815
P 8.597371389219957 1.8856348146090793 12.442442100080626 -0.5796935171490081 -0.4839024408896118 -2.1550266789013204
P 6.327796172109335 7.935318276677926 1.2950638935492433 -0.5524876461581775 -1.2253954799783413 0.016070937419933613
P 2.0501599808310824 3.5218393604100475 5.8252868726106755 1.0127927593438237 -0.999231475719621 0.7646764191837282
P 7.1046878325438305 4.224948976220548 5.617233110287058 1.9960962509792783 0.3388829666217067 2.4583284059843082
P 2.4046202003719137 8.746222743529577 10.213301510300251 1.3076442987769286 -0.6403805506164197 0.3087005295010554
