# total energy = -340896.20278122264 ev
CRYSTAL
PRIMVEC
9.01605225178162 0.00000000000000 0.00000000000000

0.00000000000000 9.01605225178162 0.00000000000000

0.00000000000000 0.00000000000000 13.19590382701679

PRIMCOORD
 96 1
Ni 6.454961251793485 1.9080851070682618 11.359112880867722 0.30279290576736884 0.8535419719678848 0.8621312562987926
Ni 4.681584976965653 0.3257733988227427 6.049345303289438 -0.41851491662273727 -0.20681285342561803 -0.3603987292062954
Ni 2.660276289462659 1.5604982721487053 4.720055569046952 0.3923138327473373 -0.580755125644303 0.2074844255713459
Ni 3.245733623077035 4.180698210677108 4.7010803861051675 0.25319375468300265 1.1982898820108008 0.004636470330746854
Ni 5.050422646340111 4.743939992277535 2.605544346077642 0.2701990309917476 -0.678156998034245 -0.7498046442782184
Ni 7.3063380217306815 6.175247255981481 2.4166977282759436 -0.2861051606990428 -1.1215581363757008 1.153797970246013
Ni 5.014989562162018 4.403737303908069 11.547589840539318 0.4514859722321192 -0.2193122714442094 -0.15515399159874568
Ni 5.538578747270013 7.93774115610118 12.341561407687223 -0.05877284716383426 0.06047286057407649 0.46429032308563917
Ni 2.061168653190361 6.558618801105326 0.32158183626946135 -0.29867348428235657 0.08025107164226825 -0.015474441486515285
Ni 2.7835888320335958 1.7692920032927988 0.25641651756360745 -0.44951059367330326 -0.8939409446102217 0.9602136996955268
Ni 0.39111362893649865 8.906633147203078 4.68448003124799 1.18136533834132 0.889506562987952 -0.18794069911146344
Ni 8.698245138396901 2.476592263009657 1.4607861471718078 -0.6427863318444349 1.0421143911260762 -0.3835299159071201
Ni 7.035910559431002 0.649163855114119 4.964035344545608 -1.3665125338680466 -0.618341311428193 -0.3196452014380172
Ni 0.7171286579516009 7.349398685861616 2.3999386909043814 0.8440831405478302 0.20982747188222572 0.1488815283264726
Ni 7.5542524023019375 3.825772309467229 3.9686018997023695 -0.17846978350655068 -0.052552063065103044 -1.1857783798073513
Ni 7.9057341716654985 3.978756679017837 12.552326047788398 -2.157112872006388 0.04974416130266271 -0.023737195715939765
Ni 7.736656149377512 8.518293757452735 7.247428039870314 0.14513517391016295 0.924207456804247 -0.36156343893835796
Ni 7.077285221846593 0.6456385788002171 0.5361927241340908 -0.45489628346524885 0.36761967243476684 -0.8713879990103703
Ni 1.9058040459239727 6.221598779075521 9.26019852617314 -0.4084480193050385 0.7373725891624526 -0.6528020642092242
Ni 9.385710083815589 5.091445682729508 1.3911254249618326 -0.9907679183333001 -1.056400211621129 -0.32473624280767943
Ni 6.290310111014771 1.9816921552183777 6.989157822025023 0.906386369462426 0.46780939198249105 -0.3758086360034624
Ni 3.7466113733136255 4.007995735503729 0.5782408856306237 -0.6584181248444209 1.2030657061328895 -0.7256915532800985
Ni 5.891971919647762 5.685720715154615 4.569833717814962 0.39408352305325034 -0.3182665759229358 1.7207580989887525
Ni 5.214568888209417 2.831869790245731 9.302174559254043 0.4279907173236565 0.051944254277775055 0.37141539203177326
P 0.23370418108700816 5.715022884004184 12.42370575543231 0.6395503414056405 -0.015052523457748268 0.2344658392561962
P 4.114574485648575 6.043847314808063 12.692769990676586 -0.4497342796483352 0.34933244408980485 -0.41203316555313557
P 2.3941945642046707 8.603829042337614 1.4934729419248 0.2823734615707524 -0.20740857802808796 -0.8665964911589977
P 6.205919864728014 7.64213186069478 5.8408364793870815 -0.34902056927634084 0.42155164656653205 0.6932231483387481
P 4.744769469057276 1.2272920400953211 12.647230813863576 -0.0770032541289319 -0.6723519613166936 -0.8016897631832838
P 3.942403957540465 6.083508927352447 8.154659251660764 -0.5649294714659561 1.1614513730262128 -0.35297698282092754
P 4.749448800021254 0.9402299619410421 3.7802700984672284 -0.35061131080222846 1.0991944239685199 0.30792251368445034
P -0.0055953618424745 5.644508341674192 3.594788271254656 0.7646555932481217 -0.5777914150302889 0.2876776473924852
Ni 1.420100311125481 1.2600563728951155 2.5484853596833714 0.8984897403231689 -0.19540486869899248 1.1111536532129251
Ni 1.6771209041699875 6.436829971314566 4.723209384020361 1.1186389058463766 0.26512573023389824 -0.04783665986730472
Ni 5.677588236292365 5.2064814896069365 9.217127042779861 1.0773428753110672 1.911100208452857 -0.2997086104150903
Ni 8.606723195014757 2.344020235082256 10.140075036336025 0.7522986143446656 0.618494806286922 -0.4237723083669347
Ni 2.335058279440265 5.1032116305291035 6.932270140617873 -0.6257959679340255 0.4849681631499647 0.05607601705796149
Ni 0.5327035120280037 -0.0698933363503812 9.051545445439524 0.2978000805384678 0.8709473119285259 0.4036395421728016
Ni 1.3374411468138372 0.9977253252498721 11.274091510944206 0.013673640832350644 0.22882715291318012 0.5501857374978782
Ni 4.084992819188441 7.113791216207179 1.5688345137851087 0.5319159926544129 -0.7205832855192558 -0.30437490554250807
Ni 5.544186731585223 7.7627305716276505 8.198324892877794 -0.610544955312226 0.16829541407671017 -0.36388437376205074
Ni 5.1734015949887615 2.872568248764793 4.767864987741907 0.4772525396732619 -0.3383039541897851 0.16642905029193272
Ni 0.7545741249257631 7.234633360542799 6.932309811246469 -0.04839330370172311 -0.09837066406111444 0.18088327804404977
Ni 4.755110880648186 4.49636822168052 6.917754296972394 1.497286296850215 0.1671960103649443 -0.5130901181971614
Ni 8.374136102764814 7.036767084366606 9.204169172911984 -1.469963954886178 -0.9443294243651028 0.18957129273635093
Ni 4.736655022298934 0.5276202619365001 10.346274849333037 -1.1748041401840348 -1.2148673267535077 0.39141934595752587
Ni 8.021301925608196 7.1227892360569856 4.917836192729585 0.28200270849489495 -0.3897602130875481 -0.4956919773253721
Ni 7.1932857462830695 5.964136399485284 6.990437199797254 -0.4084783583223417 -0.30648346724507863 0.33213562059554413
Ni 2.4730669866957546 5.280043457497284 2.52704158171666 0.13980399150523667 0.21675736623283962 0.06275831417414354
Ni 2.4072768555895085 5.057833841046064 11.503383236205066 0.11079114921265436 0.45830916580153974 0.06985095935486679
Ni 1.0736314666481848 3.5023394777316703 3.6884794767368634 -0.9319282224872725 0.07125915255630308 0.44301161621252094
Ni 3.6100722825265907 2.770569653012434 2.6282810258945157 0.8510557152109214 -0.980568094982163 0.6298539400534829
Ni 1.1640264035361148 3.169322582769314 7.964651366367429 -1.568531822559763 0.227907212202072 1.0666123762674404
Ni 3.389936358024726 2.6710594875993 7.0223846782900425 0.8310412197622075 -0.9442252946870705 0.2248673969344837
Ni 4.0904565466723914 6.869627513248668 5.957383376571952 -0.4194122316260261 0.08468416771295738 0.1873470313915225
Ni 0.7954159386708892 7.4468531914293035 11.241668886513459 0.2962795301288833 -0.3405482701392716 0.2163148793787823
P 0.14583013232533645 5.330812846048643 7.980909111250364 0.7127653321367337 0.7656752927618878 0.25145337495312825
P 8.449816842864283 1.6247286262669591 7.927294256702413 -0.35391980635017106 -0.7606595847148512 -0.17664481448266997
P 1.7092991935927904 3.353195946313344 10.16919868735691 0.13936279020276 -0.6812302376429301 0.4223178353085953
P 3.922694867969647 6.295782854550675 3.7932676389637012 -0.1411785032552601 -1.5149171225581004 -0.27850986485028806
P 6.9560553872769635 3.9367779411213473 10.39965168010941 -0.15786059189663135 -0.0362767229438472 0.8369169618166941
P 6.3708595191692465 7.749458943151785 10.19482501182495 0.2066161640337796 0.4436392224941908 0.12213151392613805
P 2.3126984705950555 8.37667862941576 5.661926452443571 -0.09521257804810698 0.32625345078315426 0.8141871243193461
P 7.0458101844761805 3.9869162060359473 1.667922727966809 -0.24119390200864915 0.7958798413697261 0.32532091166655586
Ni 5.830644734258604 2.9153674473890705 0.2697494551927587 -0.36226277899822773 0.04233424199183677 0.5681415506453505
Ni 1.4015813404125539 0.8532494039279834 6.953621053249461 -0.6878233174794154 0.8702852528644947 -0.5553325718061404
Ni 6.803981638973681 0.9180955543946759 9.277894331342694 0.683785657074932 -1.2879074824696335 -1.3700452296116534
Ni 2.5918444551339745 1.4148349367845126 9.123792872955022 0.4346653011303546 0.14816599031668676 0.018871640093522338
Ni 6.4078253321794705 1.8845171472612554 2.6545799478383025 0.3157929175714626 0.8974335311445125 -0.010243532104879133
Ni 4.036080737339546 6.834834568759288 10.34141790214557 1.0298779969608844 0.2871731969522409 0.538496474085408
Ni 8.274914451014197 7.376104231748514 0.32725293294834706 -0.35133481923181425 -0.8266757437046601 -0.4704375736339575
Ni 7.469681834976106 3.8295590512877884 8.221469999848171 0.9775552762977681 -0.6415352330461532 -0.23525491081639485
Ni 3.037534951361886 8.497791255309991 12.357857921593562 0.6804823037333119 0.07819187512039437 0.3155869722082436
Ni 0.07528223060311566 4.864800168717062 10.374091172820632 -0.30213830290250543 -0.29321348960904986 -0.4717418942676779
Ni 8.644698805843797 2.272802440699874 5.690298164731516 0.3605324265706823 0.5217817324338885 0.6307893073835589
Ni 3.4196622813161186 2.527172314469989 11.201975717787235 0.45189812006887337 0.15793052590261833 0.5743353381608883
Ni 1.0224473397069542 3.3298083075454112 12.561035553975685 1.9496166193605002 -0.2893421795791017 0.0010574947302368883
Ni 2.9566609653370772 8.311519621946275 7.884090237345413 0.9088001211102413 -0.8413552000937058 0.2603887297695451
Ni 5.574507714305561 7.890451963603954 3.5392728329548615 0.42580090876118926 0.39941753367165406 0.3374197518126189
Ni 3.147575865456957 8.308219746931215 3.642465153985892 -0.5584335793289673 0.7203336314022949 -0.31001462032678867
Ni 3.514736549168026 4.352562193018792 9.34168380052041 -1.594132553847003 -0.8435614637164053 -0.049543872366398546
Ni 7.107543092203256 6.096122384035692 11.402355669248124 0.361731589085106 -0.06545642983159695 -0.6171714594898081
Ni 0.504497695096007 9.30231160324374 0.6368524361713234 0.4834712668894641 -0.19315258232970603 -1.438498280177729
Ni 4.833568564749399 0.41665520251617316 1.5663406738147114 -1.0493661875924831 0.19678297999344171 -0.47681596635647555
Ni 6.182279776505378 5.62500662129831 0.34469719026839163 -0.9893504691604831 0.24683310257229746 0.2142978489487535
Ni 7.934324072410723 8.86677318151571 11.42007762096834 -0.20700080106670804 -0.304692693893243 -0.46032388223872334
Ni 0.0863773841373553 4.844937806263031 5.6968032462161196 -0.2641641376515773 -0.3542489075548157 0.5815395692188113
Ni 7.851385410488514 8.721136894307378 2.692518592854333 0.07072641998128465 0.17464526755413795 0.3796362372796688
P 8.444335083276425 1.6528316602066837 3.5108100585421838 0.25378073753472424 -0.11350314882717871 0.9694007655114337
P 1.7965655604527817 3.322613498086348 1.6424415619352244 0.4495237062994258 -0.05477581018929921 -1.7165728572628114
P 4.667222406203388 1.165658308939737 8.13479959402232 -0.7562712258391684 -1.5138151477431736 0.05058928291177739
P 8.532304702188807 1.7363383334019766 12.364917490273319 -0.37215972639696554 -0.44493351582558216 0.5776854855800438
P 6.350429145442131 7.7655345637852555 1.4037406848554683 -0.5381036095223636 0.05645216945045762 -1.067057177114343
P 1.6924932727510686 3.182188488907263 5.865446694799937 -0.3011872518431458 -0.006664813614685296 -0.9811643338052651
P 6.739237369894066 3.969533257869188 5.996944009334455 0.03125021626353327 0.19603556030445593 0.12368831689029665
P 2.5038297559618248 8.392537864802343 10.183067178472113 -0.6180829155604839 0.49364923586373044 -0.3527800363187731
