# total energy = -340871.2577928382 ev
CRYSTAL
PRIMVEC
9.15333504711147 0.00000000000000 0.00000000000000

0.00000000000000 9.15333504711147 0.00000000000000

0.00000000000000 0.00000000000000 13.39683107473433

PRIMCOORD
 96 1
Ni 1.7200489106980426 0.3328857343458117 13.293782652341847 1.365382019808029 0.6692452973669119 0.33763675291943146
Ni 0.5572632611942445 8.368518729456838 3.239393564365061 -0.25480455081354825 2.0883361195523067 -0.6574161659424678
Ni 6.817943812753816 1.014052196853272 13.055988167329877 -0.39707165914729675 0.20087000557862178 0.9635304227735857
Ni 1.29100464817962 7.974925332655008 11.573039918865257 -0.3263699217563605 0.9439892674168645 -2.9928586963331165
Ni 0.6587398768910846 6.80391175049109 9.210146812506036 -1.0587324592987315 -2.22208619155398 0.3064618699785238
Ni 8.884263379289374 0.8902972795639675 12.033221080404626 0.9233782760347323 0.814046999197056 0.12047160972521188
Ni 3.3123996474709148 0.47309560162187553 9.645718318077005 0.669655388321137 0.4019760384274496 0.5303231942459963
Ni 0.5758893821977803 1.76032358385916 3.3779439320401905 0.2830738300718867 -0.5448255016272293 0.27024942461370877
Ni 7.530961134397353 6.250162454530153 1.6564780851136613 1.2010286210982024 -3.132152323860838 0.5457415856835955
Ni 8.370623996462987 8.202550462693797 5.626695868660359 0.12348211441676153 -1.0192706537586833 -1.601778500428035
Ni 6.210876341528444 3.142751740114517 6.803634404446367 1.4065374110004163 0.08006852331781694 0.36629683985828526
Ni 4.501527679222526 6.508533636193531 12.966658942258519 1.5939672319137324 -0.001817512824712999 -0.0785852539040711
Ni 6.545531415492903 7.820160747698604 0.419046074906175 -0.685091263260233 1.01227828160125 -1.33189674356639
Ni 9.054835773461516 2.7878403362169784 0.6148551284811615 0.6284812280756724 -1.6245942127709698 -0.28770207287251737
Ni 8.568821155089731 6.931509237733358 11.860991017298513 -1.1586313870789142 1.2972403298347852 -0.026285673169406342
Ni 4.039888391448026 0.6722831510749914 5.685453870801988 -0.710816435940479 -2.6105382273530657 2.042894699390056
Ni 1.0159927038328533 1.9047449004810033 9.971824177329532 0.41820509869180233 -0.5620655196545998 -0.45516547796623547
Ni 4.9909564914781965 3.464326698636421 8.953396686437396 -0.9664668796940904 -0.24091699419817864 0.2047505715799506
Ni 3.904473956278579 8.38970869954047 0.8367704082658806 1.143191141264444 1.7098018570875653 -0.13528707747148958
Ni 6.541558868185646 4.4641729198655895 3.1935637323081516 -1.7889180437944416 0.4254766926525511 -1.1658543871899147
Ni 5.24254505204785 6.4969455143249 2.100046859307552 -0.407629380058485 0.5898282915901649 0.6963696643875297
Ni 3.0764175227511945 1.7466118883147612 11.643171854840977 -0.8421334730206271 -1.4056377820042825 1.9338616705190887
Ni 6.961184349185253 4.979102922900094 8.312760275132232 0.20938858457259424 0.1802423020259412 -0.1508111412490177
Ni 0.7633853770989198 5.432961876086652 6.949338103274999 0.7891026705468925 -0.20024419906916482 -0.35334645034520434
P 6.639408017297544 5.969393062588308 12.395900004221375 0.073670333100957 0.3929008155990588 0.8781186328659843
P 2.0950427311672835 0.06900241446024635 4.8800235655898225 -0.587881195166123 -0.41900291200274936 -0.8020162932847671
P 1.9526626082079237 3.5310453560617354 3.2999209061253345 -1.4732961045832045 0.9526754823369529 -0.5646674760538211
P 3.258797718827391 8.278989961686635 11.996258999111012 3.110101771818702 1.2989146322134146 0.39069635174857226
P 2.2418896815136033 2.6268972502642676 0.34411413015643505 0.6382951288423008 -0.22499852319570926 -1.961803905455312
P 3.340491232000794 5.876111427546274 1.2986119847396667 0.6463025725278095 -0.2992967196886523 0.6007266836702234
P 6.4644420224169155 6.520551964798201 4.005478259899256 -0.39469750248816543 0.4609612587124061 -2.1716465468461887
P 2.8993462608644176 6.476341357669065 6.500986711643225 1.0164645517684558 -2.2715393039787846 -1.3665199900672145
Ni 5.676687722055077 1.7940719293012146 4.90165930307867 1.7412829584149816 0.6803555483474606 -0.3322808879241568
Ni 2.748856283263979 4.591413427050293 8.49659127477571 0.06209394111726726 0.8195692145668659 -1.020913331568429
Ni 5.190865323714289 0.5034709431866865 11.268221970378818 0.17212172980133583 0.021270993563634336 -0.044324018728355924
Ni 1.3311145613141693 7.769359739506741 6.774589957762834 -0.6987399643919192 -0.5345500878431504 -0.3270803175598238
Ni 6.228047997630776 8.602487120518502 4.618275718715277 -0.7392718630676945 1.1576767364751288 -0.5868938915521892
Ni 0.41693623123262097 4.3463786542041305 9.63455857227745 2.3864143934528257 -0.8115831110375958 -1.9383202205110748
Ni 2.645039159856389 1.4285518103596457 2.022238021427235 -1.031410888665643 0.4593964853284475 -0.660787653517862
Ni 8.391008473083398 5.494215992630788 4.549335546931735 1.5015437865749883 0.3324536660565952 -0.3403824339853686
Ni 7.739144581301093 3.2558686516884006 4.582292128912781 0.6008071591991717 -2.3571968913486048 1.4417705231710976
Ni 2.823712255334801 7.659245121750322 2.7306228403237633 -0.5709468813046297 -1.0116072236761544 0.097372047593271
Ni 2.613670681464764 4.308648608120011 5.516024728147532 -0.40258796097983574 2.6073713995893097 -0.9559456684477923
Ni 0.5556934642744418 3.384994745843829 11.90688858403301 1.184853554000237 -0.4487343776289111 -0.775853004625838
Ni 4.044126385464753 0.44224703264742143 3.3029881886199464 2.109294981192161 -1.840902921502165 1.0539952017240621
Ni 7.920289077178028 5.074920031684317 10.785453124530429 -2.3465365834212815 0.05998846473849023 -0.2295015532723854
Ni 4.269948308546101 7.067079279594564 4.762024265228634 -0.33265935430949806 -0.5385648654294983 -0.39940699214869274
Ni 8.635988325920703 8.970094199796602 9.862505899701526 0.2486555004930169 0.9447240887003601 0.7666160594086022
Ni 6.38098191562531 1.6364972705583425 9.203355038077504 0.8770804214094572 0.35194211379851 1.5846266712390966
Ni 8.823915442891364 9.107650515311436 7.616071587455085 -0.10732015994491839 0.14820121442999637 2.4439690519388426
Ni 5.42933715550215 8.074074255309831 6.5571323520302665 -0.7121397827375929 -1.3633210235139424 2.369318357202487
Ni 3.8870368534667765 2.8771402706169473 6.795462307128584 -0.4095397097073205 -1.3040853777810766 0.3554694102254781
Ni 3.1659920571954436 4.567376769840953 12.892171849580512 -0.4483039749597118 -1.1013397524462967 -0.5848724902467863
Ni 3.374010744072615 6.374290827879678 10.816869200263062 -4.177046848835212 -1.885123067662805 -0.5072485718147199
Ni 4.647880349489141 1.7863465147221274 0.34956768703584273 -1.7097285806474685 0.40975465393160404 -0.3276516166822615
Ni 2.9281151921701887 3.6951554958584802 10.693162795648247 -0.1279553196967667 1.280262564329866 -1.477476204102823
P 8.265351492820711 4.0316870034588534 6.492399052925099 0.21508949161211346 -0.3274222742802748 0.7683386985266638
P 4.998224239316817 2.739739561793871 11.718770162364835 -0.21284980364831727 -0.3400916422178272 -0.26767215080483575
P 1.2488352347129683 5.450710192281972 11.45096829984739 0.2663683443917477 0.46443996128962595 -0.33382637803440574
P 0.6590025776001128 6.456258941097362 2.0768971602412383 0.2185193432292688 -1.2787705531653717 1.5944511135286863
P 4.74529013853019 5.612120098309958 9.193427331143289 0.3078782907100762 0.7467871976081332 -1.2120080029278417
P 7.9575797631912994 2.886028158716821 10.499458093745927 0.670159067430433 -0.9791560451259848 -0.9924573902205811
P 5.704715233241291 0.5940917037996436 1.7779474147010725 0.22662680282775163 -1.111219216343538 0.2747856219211654
P 4.833226226043566 3.7963822255150252 4.955299675728394 0.24530972394923561 0.2499027426365567 -0.7351123323733663
Ni 7.597176358408154 1.730392179032602 2.3530194041003782 -0.805427118738529 -0.05423819251827433 0.10962952480438538
Ni 2.053230297758196 0.6955133994876277 7.185175605304732 1.9390437289406608 1.067905126936935 1.8390144462302005
Ni 5.171103273860914 4.067668762594389 0.9400319242505429 0.5181809024565075 1.0264116356788389 -0.3788042282966767
Ni 2.063317272718094 6.946365100128924 0.022668233655342585 -0.8259296095672549 -1.1471565536700952 0.9065750884344644
Ni 1.3258330871291775 6.709961922007974 4.4344447190717995 1.068593154142895 -1.3183812255784586 1.4409048327366927
Ni 6.709046588527039 0.7040086095241807 7.017621980952712 0.2440923066023667 0.9529120238277912 -0.5166742360039941
Ni 6.913751768203229 6.295562995184503 6.003789464134864 -1.9380394560458623 -0.7073184500895496 2.241252222959469
Ni 3.539832557478707 7.931254772279623 7.942324815398044 -0.28912003626596655 -0.2455660629344158 0.8246152616312056
Ni 7.161358628130817 7.284654048012691 9.265877806826214 -0.3820034519602647 -0.09433686031137302 -0.6191144421487917
Ni 1.4825656390695896 4.492410957752418 1.1600515483962466 0.8214438058817595 0.9749800593714242 1.2601048584350687
Ni 4.979670429658274 2.543208310102427 2.7890723750823163 0.2775017353007479 -0.1372909952753958 -0.5471528642088254
Ni 5.29956117457526 7.250429729160552 10.761660861360498 2.664114875027941 1.914375536770019 -0.2827249313729002
Ni 4.768621988959209 5.141858369145056 6.764796804850317 -0.2794280057891833 1.2697629503501229 0.3477324465925366
Ni 0.3977828781440669 1.2574393694337525 5.930589330331052 -0.6141946362496712 0.8911204444422911 -2.16669408793692
Ni 2.874687176888042 2.2348233070407892 4.5967608052459115 -0.39578970711107964 -0.8797821366113364 -0.5398049084841865
Ni 9.028455862540985 7.81393648002825 0.749998624940253 -0.49539295802771455 1.3937901386370768 -1.3344845588982244
Ni 7.349203365088193 8.244591729473116 2.7140241829804976 0.06630746497798258 1.3619418837782287 -0.7310204216921797
Ni 6.959042468839867 3.462532645013789 12.40972520111741 -0.09422553154448933 -0.2503220895621624 -0.13734987353778927
Ni 8.27962154178848 2.4585308097811778 8.299296634961166 0.5507719490186513 0.5507025292332968 -0.6672943442881282
Ni 5.340970861252735 4.839258273682924 11.09706376277888 -0.49549914458827565 -1.1281265336218378 0.47500102463492394
Ni 1.173695509263056 3.1172963160097282 7.069668758012128 0.22120228937807065 -0.43315992022942174 0.9105577272312962
Ni 8.945764635873363 4.06569164227557 2.769808266642569 0.639553426729434 0.6394958340186212 -0.718076459937002
Ni 3.7977735324060453 4.657225904329482 2.9745518903249573 -0.19723755103235707 -0.07637513362662975 1.1502339070438385
Ni 8.765681926834311 5.123688999548507 13.205805374821828 -0.3720633100284173 0.27490826354195885 0.8797278863346333
P 7.83251774969122 1.0283039391514222 4.775756098109612 -1.3673067476345677 -0.03724757149754876 -1.4353335092965023
P 1.5678197994838277 8.566633508070298 9.286080132083919 0.3037041047277286 1.777773854252164 -0.8946729376802398
P 5.289281979584365 9.160199810451886 8.670670311513312 -0.3140890475064784 -2.0874323767911145 -0.42368489085945094
P 9.278369362840527 0.7576672888435222 1.1704479060727004 -0.7456268587514449 -0.6443570187656644 1.8885562617140699
P 7.335683889574789 3.7407116432045893 1.0958116140373024 -1.5772427200701997 1.5255766591544757 2.128858248036069
P 8.35938370131711 6.772854485482982 7.436916111232221 -0.04880468020752885 1.5606961285654282 1.2199280291058667
P 7.292443535935445 8.648519241274698 11.501299741963535 -1.7662244588516678 0.1383027243693618 0.002642065608537385
P 2.8376802442538613 2.2706219994801367 8.54759365633338 -0.505092958924298 1.6801418681292868 0.982367610084747
