# total energy = -340869.79575130605 ev
CRYSTAL
PRIMVEC
9.25457532704064 0.00000000000000 0.00000000000000
0.00000000000000 9.25457532704064 0.00000000000000
0.00000000000000 0.00000000000000 13.54500645793028
PRIMCOORD
 96 1
Ni 1.2320431145588353 8.518670078235578 13.815094122796447 -1.1527258202277568 -0.7504623324668753 0.6469859717480793
Ni 3.7752559633919534 8.455276236709167 8.583525217218487 1.4816904992944868 -0.982509792089566 0.459399313541925
Ni 4.65734656357419 4.122311795666688 4.842935967837306 1.4316478329147988 0.2421621794591894 1.1718687117047948
Ni 6.0335296900708135 0.21657372272011113 9.30245302571731 -1.4441346525279 0.11636992885201249 0.0862653961571482
Ni 6.758690455105116 7.1135478944465325 8.53171532772691 -1.7345824064663546 -0.3295233797836777 -2.483102784715511
Ni 0.4782921897248915 9.205711247175387 2.5232858970703926 0.7693290874643912 0.14942840196887813 -0.7331726921484922
Ni 1.9937131795671077 5.3835623502046985 12.40841809579685 0.6240489033359317 -1.220086409060602 -2.542275438420925
Ni 2.3711610374728984 7.680881130518586 10.404244469649115 0.3674692628998316 -2.4380544862266205 -0.24603246104787307
Ni 5.6646793327165605 1.2810368367545752 2.8690359087554373 0.8690655215247807 0.5292240476445467 1.241208792861514
Ni 4.8351917391381365 6.432337108012073 12.04122615835523 -1.7527392798810393 3.185250746347714 0.7648108878790635
Ni 2.353531071325772 3.8961022090345625 4.842570412108795 -1.4246654880596947 0.6892078565317679 0.9100792449329811
Ni 8.11312532939925 7.569085859622375 2.995776393473692 -0.9854907290947608 -0.012420742261856028 -0.9989440263861892
Ni 0.40262770666857295 2.4193588661837815 11.437810258235393 -1.0063308057685638 0.38902076381836226 -0.25591526737922377
Ni 4.039011362443444 8.675951587248914 4.897210350759319 0.7687603594451147 -0.7036224892952011 -0.6496162102820748
Ni 5.371235255764819 7.300527335935525 0.6036778046038079 0.344827871351232 0.8154197111748666 1.8490638600464027
Ni 8.788598279082413 6.330194359263606 8.932417157253637 3.2360374899822784 -0.5621184843797221 -0.047427340244028
Ni 5.200793740525124 4.819542252127748 0.7972807457103857 -0.6695288900456018 -0.3896866795371353 0.14813359441685456
Ni 1.6034292255741445 2.3880043647105724 2.991794149676785 -0.4850962040873968 0.9076971178540497 -1.04464512796773
Ni 4.029145985061377 -0.10586864080664664 11.018469713842359 -0.5093054543437487 -1.4849563145299522 -0.13671558238790005
Ni 6.915851654638184 1.4142749588649022 5.294892412331291 0.42533219665488686 -0.4700807045151711 -0.2734216516941033
Ni 2.740770270010387 7.813480686925946 2.4389406222838885 -0.10818739304122013 0.5024164405333993 1.023581108208579
Ni 7.292475855332901 9.355357731479337 1.5011254472136253 0.18599514534931838 -1.000738913503083 -1.1597439034168024
Ni 7.728643994185418 4.241066507267695 0.9588832159804636 -0.7799145762897214 -0.5049669748693949 -1.3816185362715494
Ni 8.696691090732227 0.37618831019312726 6.717348415854491 -0.308911617070597 0.7866212988859356 1.6258651090635934
P 6.934980862000971 4.769234380224454 8.618024423414424 -0.4097302284515718 0.2614657648838078 -0.6678134500163918
P 3.8712906923729116 3.7129819254895855 2.9589468851906986 0.49542663947912735 -0.9283898703167107 -1.5529115995240028
P 3.7064574498288385 1.2310251112642507 9.21759412199581 0.28647668510584856 1.1907850889933234 -0.4381725429526647
P 6.7251518738362535 5.939725313762537 2.0984462839715223 -0.878999492809041 0.04041311370972395 0.2926331916255477
P 4.7856797607197 1.8043830759251642 5.0372117165758485 -0.25455695357911645 0.7681553788712642 -0.5215937847927984
P 7.188880138245801 1.0045841602469923 11.121926612298381 -0.4447337411099502 0.6276952418392674 1.613523299668789
P 6.9295761899642665 1.407352536461726 7.683743570691449 -0.7285758168064291 -0.20264920896623162 -1.3243179027778678
P 5.724806309124896 7.433358256728018 10.309659932634169 -1.8570589624367373 0.027729090484152247 0.8810612604340762
Ni 0.5742167892585267 7.251246721902221 11.634049827874946 -0.35737896854336515 -1.8509986151752704 -0.5107342163704752
Ni 1.6575870008460505 0.4494179144603074 9.863324717241372 -0.49355050550233714 1.2786437977795204 -0.14032823943982284
Ni 0.5726296295765152 6.808211688098959 4.334862554458108 -0.12173453559803553 0.3010962347912363 -0.07823686942571687
Ni 3.291084341912065 2.708804966560427 7.398011331424957 -2.699073907601629 -3.2499487007467316 -4.418849845182771
Ni 2.9834344917131634 6.114127787275707 0.7156359560271521 1.0809491046050868 1.4222450515436604 -0.8280042327080966
Ni 8.720697459333614 5.1513002712574965 2.817984894447096 0.3324415818717371 -0.42530597140264176 1.2968230397917084
Ni 5.564313462445915 0.2164089912778965 12.636746054739252 2.682274319545787 0.1127701273158961 0.09385272158610289
Ni 2.3524112677017293 3.1796222357304456 10.312924021379624 0.05885846489910509 0.42366046537941876 -0.3910884449806684
Ni 8.204782644213493 3.3395412987342965 7.579433400383058 0.2376511789627133 -0.6087626666008226 -0.30941323929736386
Ni 3.3834820227587343 1.0066016576853511 2.6935330662265757 0.08706732323315328 -0.3698822432166985 -0.05665862903430887
Ni 4.521322814266863 0.6423711843734319 6.816511191322446 0.9445644231940442 0.7693298587953395 1.243178514993375
Ni 7.2160515716358065 5.606958545913609 10.581386297482258 0.4482525528964861 1.7667296806228603 0.6442932554072646
Ni 2.725028237245945 6.472946184890597 5.1120886352651755 1.3812881495153242 -0.00494705959263019 0.610511273860813
Ni 7.459261813287496 3.9398670961262994 5.2874961556673625 0.9380461624595522 -0.7418918171890448 -1.1315988084411543
Ni 6.373774154847236 3.7695366357914684 2.886847264580507 -0.8417987153890277 0.3638962008365927 0.6250115243595171
Ni 2.881800744611989 3.636474350613843 0.5122934997640205 1.0206004283137005 -0.662305375713969 0.06600638879779601
Ni 8.662865617625798 7.083923998574117 6.566849585155711 0.2699421777859351 -0.053421610154249934 0.2693037728709878
Ni 8.760075677683231 4.063221331703749 9.846542470201372 1.8699003371757796 -0.5430694381680713 0.04507580929271592
Ni 1.9689109174808623 0.3489548711479055 7.278206225515445 -0.21190569456749314 0.22823168542102631 0.07491731813418065
Ni 8.797288325388005 2.1699110407089086 13.592143072164534 0.6708362960031156 -0.9662519354698069 1.0940571027419546
Ni 4.804836731808702 2.1354284927487033 0.5488907182043405 -0.08432344193942898 0.24486492310233313 0.07527161614980585
Ni 2.240819597464436 1.1884818281260157 12.370600198860568 0.21434464302628894 0.2680403327775319 0.44243671754565733
Ni 3.7841218466302453 5.0674538180853395 7.099899246638773 -0.49723901009751786 0.1327987638319971 -0.5267624734779315
Ni 4.922119965920266 1.9616183120614739 11.02921149951531 -0.15212780317791216 1.4220661027636348 -0.02273909346872858
P 1.8154885664115428 1.1485205715258635 1.0662547998329335 0.0919130813612288 1.4596548596506862 0.25782868235185274
P 0.9502968209194118 6.607914912601717 2.0238136860728964 -0.5919515085807547 1.2591463511765413 0.05069829768581591
P 0.9586074296333851 5.481697867802665 6.043416352976312 0.31967682600690106 0.27490132156342334 0.42146422905904835
P 1.9402494974506004 8.583850052815215 4.724999360702127 0.2430127003849428 -0.5807378992531225 -0.3539797130538291
P 2.791494597806921 7.910977638820944 12.590936831940482 1.1875064182420516 -1.3104647989448592 -1.4586462158805136
P 3.713000434640396 3.522087798604144 12.060975422270173 -0.21351469092582584 0.1514552025909198 0.6928853053833551
P 4.923230514968902 8.522325635520676 2.8231452456930994 -0.28919716936080514 -0.950744326752511 -1.3426393267948749
P 8.005133688994622 8.615297100042476 4.9735772560889 0.2948091162309439 -0.9827987840848945 -1.6533358036800363
Ni 6.9969494989149625 5.995632203786047 13.039493145430555 0.42734511331985753 0.41696505563711417 -0.47871704003393045
Ni 2.3123389561967134 5.025650900979529 2.5643003243516698 -0.7107313324258405 0.0720345972697469 1.899237395577
Ni 0.7425899068951334 4.018484714194454 1.0738185643116978 -0.005012879833559109 -0.002389326167782982 -0.34247428351739084
Ni 0.4713975310479316 0.7957083933490225 4.644650211575638 -1.9919773437148984 0.9543621260107562 0.14362902167828165
Ni 6.644997996250816 2.7949095361314824 12.686266362275555 0.4797441957468641 0.25364781150128574 -1.0990131611956493
Ni 5.864180214728947 3.056036635767863 6.780346161553554 -1.3309233239095273 0.1667949182717837 0.6054999366891508
Ni 7.293299512543974 6.136338768248463 4.733763443610961 -0.4897043922833695 0.9414369333086561 -0.8545503586277411
Ni 1.0012154947994574 2.394121639053486 6.631539992696407 -0.899132259003174 0.37821441723147764 -0.9891514657757996
Ni 6.73357353745509 2.7159402441979257 9.592884738374622 -0.6390600320327833 0.8862790571895898 0.002813301079079026
Ni 4.254578187359456 3.594079140682093 8.824598577409091 3.7173958242937974 2.2140892893914317 5.085180540006048
Ni 2.0932739017774913 7.349558076432888 7.582805767660755 -1.5453805812542805 -2.6230412449160827 -0.16440584921431686
Ni 8.33861305914976 1.0302193341197161 9.291914840703278 1.4287954510676684 -0.060251488591889786 -0.22994738256055236
Ni 7.815951658559165 8.142434569707884 10.314752725479714 0.4381987682049099 -0.2815139417839345 0.9881916729656918
Ni 2.546498223102005 1.4945028730535816 5.102580484493755 2.3150271999590903 -0.02812941124636446 0.21378259987523185
Ni 8.318891558961033 2.0911546040096742 2.9527703815651916 -0.5356034688083292 -0.7649024191516053 -0.8148666668848741
Ni 3.819252214868823 9.222064081916578 0.44318033063712475 -1.3289847121259175 -0.6020705992926277 1.1853443775937262
Ni 6.323373737189889 8.28537148684298 6.187995957245852 -0.9526947656106626 -0.7649363577133342 0.8166070466147484
Ni 4.543802177926375 6.318940795570743 3.3018122457219063 1.0428569257190556 -0.2005383332708159 -0.4399833709091584
Ni 6.126871337608826 5.495385384827126 6.600034641644091 -0.2735234673792902 0.3464150133326937 1.1513875610323072
Ni 4.020511466208219 6.0201105557331065 9.623023188639573 -0.1297715469698991 -0.12736113775619357 -0.521874806368327
Ni 9.145834144302995 0.00928974279185565 11.882749883657068 -0.7112838624952009 2.948607182713909 0.6574616744684225
Ni 1.492457611889007 4.349335784934482 7.788135181263408 -0.08640860660323182 1.10736847513888 1.650307558376674
Ni 5.458283792027216 4.605206285740643 11.309078188889915 -0.99719799022936 -4.13558035416031 -0.3301741259937991
Ni 0.19909368069455133 6.202064762777014 0.07531466010599767 -1.574318347334553 -0.6128116398592156 0.6199173976660614
P 0.0906032186755788 3.307159539391098 4.2739776283240785 0.5068037709678175 0.6881763299434599 1.3062965264997826
P 1.6190602034337223 5.540871622944252 10.009041708828226 -0.20405945905019696 -0.33617816609603396 -0.15912788864482919
P 0.053755201241774804 8.479791606957848 8.468405702836687 1.0842203191571909 -1.4731840044853726 -0.2904775787351256
P 8.455220709256736 4.489607384352848 12.203089607651737 0.43569811327024316 -0.9026158466764003 0.08169448895701414
P 0.8451639188574878 2.2015987068967084 8.80995691366034 0.13773116813660793 1.8823491044620937 -0.22058085374398786
P 7.967578621999853 8.019543062900699 13.272548341489992 -0.061032075511656174 -0.11573023838548456 0.47930376577533584
P 4.3385727137381 7.08520112998005 6.80575644924393 0.6362613862417235 1.3734442279908734 -0.477374667073423
P 6.898490071177812 2.2062259945993663 1.287448406595378 -0.35425584953335115 0.5742540913009916 -0.5115749671042158
