# total energy = -340856.37048635876 ev
CRYSTAL
PRIMVEC
9.44267072096650 0.00000000000000 0.00000000000000
0.00000000000000 9.44267072096650 0.00000000000000
0.00000000000000 0.00000000000000 13.82030307991865
PRIMCOORD
 96 1
Ni 5.634564489611402 6.70413582413618 6.159184177366865 0.2748475855073525 0.1017984587957408 1.2871518352505318
Ni 2.8072966203132497 0.7452373067428696 6.407922070338687 -0.17176100402780742 2.2407174335019215 2.3898748411976003
Ni 8.140913745197548 6.25455137653846 11.427814952480999 -2.5524261537016817 -1.6819719793594903 0.06893333263660387
Ni 4.337481442064289 3.952163812713021 10.794002106800422 -0.7567705340730903 -1.8323038669792444 -0.7311906287214568
Ni 8.048045076750022 5.058977041325957 2.3861856025921613 -1.7352987158070892 -1.3257991153090845 -1.7373635687559177
Ni 3.763943053367366 5.211476176600745 2.796441325829541 -0.08561182173354934 -0.5606802092712988 2.4885067293399015
Ni 9.121667317097268 2.836134537287194 8.78653465085714 -0.27698854310975524 0.9782826413820958 0.7211558701932741
Ni 8.50237918781791 1.5305719712585477 3.6919559073809345 -0.2288832029620961 -0.195521853892831 -0.5673753619032873
Ni 4.988808553757725 9.366591315286584 8.258322026818577 1.4226201754948917 1.7549254888990808 -1.0464652118956042
Ni 2.117084589792471 0.5915172341187925 1.7184169123017923 0.08457875248334465 -0.6990240712912412 -0.332905151771717
Ni 0.29978780473876165 5.944057471516444 3.378981412709588 1.9580552370461568 0.46849227698212864 0.20362442839530737
Ni 7.208638845774652 7.112087535670336 9.145087973767364 -0.5557156661771719 -0.7321370517951261 0.7914680854552756
Ni 4.4005962544591295 2.00012766784117 13.491808125054739 -0.604768714950081 -0.4805211831222047 0.4240577008178374
Ni 1.4174015603441001 8.89898080891242 7.72201136820344 1.589879949218236 1.903680776060334 0.07911335849339923
Ni 7.0835140134820085 0.34753750302096253 5.239277288308238 -0.3004323759549922 -1.5765912025291298 -2.178664372924919
Ni 1.3368933481241105 5.420621894693702 12.630624262148457 -0.7926893594568865 1.9347520435438421 0.5073187629310231
Ni 4.631875593176489 9.444559449030479 12.219083391399566 -0.2939853347780679 -1.380679569397048 -0.2086177678448407
Ni 5.873001372882216 4.447394131513113 7.830874032646535 -0.9646349686916742 -0.7881526479287974 2.5466560839871235
Ni 1.5577007647969046 8.759455903474633 5.1959505370825525 -1.3582742051186545 -2.834258912277616 1.0407164823372852
Ni 0.7687816624019503 0.4757604756407684 10.513353651738965 0.6798210160002292 -0.38812550569760257 -3.2567204722529266
Ni 9.382275591676144 5.070497099842071 7.79817500753551 -0.3942082215565727 -0.6578023456372929 -0.46160891959873407
Ni 6.643787714319389 4.189118196650204 5.966431880249175 1.1177192222455847 -2.732153720874733 -1.9961911246859299
Ni 6.074422986166828 2.0081444954478753 9.282959467527961 2.913523965857531 -0.27108760424428796 0.0017990008819517404
Ni 6.3387800010988995 4.83150309898728 11.53474281365364 -0.6482064744187417 0.6936188411152701 0.010111120292072909
P 0.6307978008574666 6.777061571611546 10.952507725044143 1.7361708339993969 1.646096862729436 0.14358094204916563
P 8.008716352389682 2.889646153361635 1.6423637522194274 -1.092188424964332 0.4421775503469998 0.226401574190823
P 8.475193738254063 2.7804888775859977 5.471347922848263 1.4183346607456606 0.9416871016462492 -0.8242236826197418
P 4.814950096873552 2.5234971459675077 6.136643577626033 0.45279337818963306 -0.14097847142931205 2.3391384911849973
P 2.9341305760414813 0.06464641361722902 13.467954994056745 -0.9303133125916688 -0.2742693444063793 1.5068220042547922
P 3.8313542810284624 1.5295993761543183 2.2746978756347396 2.2559568761594955 -0.8442788014984041 -0.7598239761874334
P 0.8507865379619436 0.17609920269226567 3.4523670182585082 0.18226884553766673 1.3237579165093396 -1.0957550592696677
P 2.2809527008487347 6.063488373247435 5.2119539757490365 0.16818511375109102 -0.6586734353883367 0.44320522028056575
Ni 2.276864024342606 7.320572266799254 9.61573902017611 -0.1502053893442187 1.2475059387241354 0.8636983436755964
Ni 6.58673509665188 1.3069789666658735 12.678373016163567 0.8744422124556618 0.1536784354944837 -0.30374164283388333
Ni 3.6173172594016134 6.435822330090787 13.637626570657272 0.16969049465202388 0.24825363706890793 0.1306385229558847
Ni 8.393014173282145 8.334110792115327 10.875707649692414 1.0035676412011298 0.09471609802766269 -0.013700123194911889
Ni 4.241109542707355 4.5941237948589295 5.340482890906483 -0.4984212033310771 0.8393319990160899 0.2772137717466839
Ni 1.6462919033200039 2.1949488541563036 13.654473239836452 1.4322582128052883 -0.16294957638376453 1.6434460553701502
Ni 8.609053041142943 0.7038548014585504 8.560737726872942 0.4094471499935141 -1.7615975016026177 -0.16119017049049658
Ni 7.12426858115049 8.867668912158786 7.3638725785463786 -0.7420003177424511 1.3927598976003497 0.15504112016996524
Ni 7.311403433340938 1.8423878502086422 6.848167716401623 -1.7483689187274856 1.0964736826032473 2.2463725749051697
Ni 7.382261235885953 7.696522766602993 1.5360855468057273 -0.5748876111199325 0.35836267261287313 0.30127955444663596
Ni 3.691706620868782 7.560170598592595 4.840948602703403 0.6413475425153793 -0.9718955069088294 -0.9276211104714863
Ni 2.0945827050023893 8.5113402825161 11.736132321857143 -0.23181271790406527 -2.5067422785113216 0.8004093538089635
Ni 2.233956527705539 6.343208613757963 7.693707906403278 -0.3344169604305531 0.785302580074512 -2.9601190400082507
Ni 8.015231795320926 4.220779472227688 13.10383143957385 1.7274020866678315 -1.0943972596901925 0.8353213351948002
Ni 9.363550775252001 0.6763813504318015 6.161864951639591 -0.5585945303868639 -0.11174682825770434 -0.25786802023022043
Ni 5.094887518815122 8.830842495590879 0.8709088696814836 -1.5044000250768608 -1.4440230666507001 -0.4820764434244665
Ni 6.632720904007188 7.946007574844179 12.897300397057215 0.39376470626125093 0.624181572259054 0.39146999668980326
Ni 1.5570492205037803 1.9153702537094985 4.660897642233273 -0.6072847965037155 1.470235720490326 -0.9081979687498681
Ni 1.1900692580691465 2.5979809341438247 6.9668838079443605 -2.080907174078087 -1.4810991455673912 -0.33534744266462246
Ni 3.2555118806283168 6.09573509442164 11.253154812836156 1.044503203073227 -0.27807252020255335 0.23234467914813534
Ni 4.727841457684085 0.027526329983871972 5.654991819601491 3.7082681509609166 -0.19598876622692055 1.789727169959298
Ni 8.732572619380063 6.997047475914749 13.382600803123253 1.4185228654970665 0.4480219249429188 1.8318474961681162
Ni 9.44047077252435 1.3963821748876497 12.389694513756123 -2.01103898833204 0.1135298883000561 0.6208100846836598
Ni 3.232037400734005 0.36786757350062926 4.22107974916278 -0.9264628284973269 -0.04442172064848479 -4.24500830447685
P 5.398941522273212 7.074892854936752 11.554077626618882 -1.8074479842778293 -1.1770314868526568 -1.664026193514347
P 3.9954018028321077 7.6735109775835095 8.042877102958325 -0.6631312140493741 -1.311860136630489 -0.17903054110602715
P 7.587044440016252 4.63526551203492 9.415524180234414 -3.857766229825466 -0.687846457407867 -1.3062021670137633
P 1.8320292402150544 4.109752547610912 3.212501458878277 -0.6928117718329423 -0.9175436716308263 0.13424963734591072
P 0.6896766310799068 6.522477721076344 1.1458105152241647 0.8415079236214862 0.046779422247383955 0.5330192530209208
P 6.221756980451194 7.7519512448731485 4.347163012553282 0.5166158719622328 0.9075827037633724 0.047923820264472304
P 1.7889423328306053 1.6727974805779808 8.780121188771776 -9.590214791596386e-05 -1.9862427552239665 -0.5250187513139474
P 5.855645743740726 4.379803493104635 3.8790133296698803 -1.0055180800592811 -0.2948975621796921 -1.3520346519668458
Ni 9.379376691705286 4.86907548655746 10.13955608090381 3.9667694338997617 -0.8546853415437088 1.5353792470671943
Ni 7.686022516545683 2.9436771163363926 11.187535804114699 0.7899269662204008 -0.30782995397064405 -1.3322322725289377
Ni 6.705278387316875 5.7499161575071795 0.25025249738656313 -1.771317557103859 0.0425710405929912 0.49041041721145867
Ni 3.380353432793515 0.008080093501835015 9.85673675579903 -0.4823615787650532 0.1389573272342252 -0.7330433656594796
Ni 2.198631495813094 4.597117121538936 1.0791556455033475 -0.7599111365846009 0.5066132522235661 -0.046703060483493763
Ni 1.8779206208612134 3.168780948275442 10.257664064439632 0.04104586219771641 1.600676782723424 -0.009474258039022394
Ni 2.6029666643868645 4.142716911774643 7.151633441461717 1.3460249554376562 0.42877207557437125 -1.0124549163884307
Ni 4.787037561649264 3.322687041516542 1.6371665061478953 0.5183963609014233 0.8830428096404792 0.01839418623647155
Ni 0.3126355027855032 6.48610455271235 5.979202148394415 -0.8284832292270441 1.7850585608390357 -0.12274549336105314
Ni 4.204141486075727 2.445547897565442 4.089372430975396 0.7890440493948153 2.0144770674793113 0.2896558541647785
Ni 0.7805292892871122 4.308416900988388 5.244142152363568 -0.04811948121504616 -0.6534011312458037 -0.31892786365601844
Ni 8.880775339388594 8.159997383116453 3.4611288726003955 -1.50843331460597 -0.7467316617798495 0.77528504793751
Ni 0.655697179792828 9.043425345896841 0.22042970983620025 -0.6271794785451134 -0.33540349271353853 -0.4072606838651567
Ni 0.14275996449321354 7.403025669227703 8.44159293807067 -2.3281897054829774 -1.2561363607056237 1.2807855267128716
Ni 6.312699344032091 1.2290202755928923 1.3893417194535393 1.658981174891272 1.49390555330344 -0.27386516698942515
Ni 6.077860118379833 8.951415960502567 10.462716384691005 0.08116921258116344 0.39347108628023203 -0.4795752742691677
Ni 4.019782779134244 2.4991256123362864 8.65797740768695 -1.9090476967992027 0.10362137093709252 -1.1099843154951723
Ni 3.098754100770933 3.909700121608952 12.730130183982029 0.372452575047036 0.02471138670375099 0.2823719189088556
Ni 0.5427892751298135 2.3466170343905843 1.9230122072808846 1.068810926580656 0.5843688111374904 0.726040194868769
Ni 5.2783019586651205 5.643752208411549 9.571789996937135 -0.8092328656378643 2.025862683608434 0.387810545560345
Ni 2.5857904459927568 1.3270163143471798 11.592304391283461 0.8330860181063782 1.8048573407325175 1.431460142384025
Ni 7.377530457757615 5.683987429179714 4.587967173422448 1.255886963698979 2.8896325039519137 -0.7154279665705614
Ni 2.7479399909425184 7.591085903167806 1.9956792255731852 -0.11932335505338158 -0.6160843970732164 -0.40026599771487836
Ni 5.39691134802652 9.445692569540261 3.1720500009461623 0.06303573620524627 -0.44540865568978777 0.7367452399910989
P 7.825632406021704 9.438157318150212 0.16172368049150182 0.700788876501148 0.03938492955552572 0.5811752439008572
P 3.016886143939205 4.918422884758452 9.051911474248016 1.3917016315391646 -0.6203526854312671 2.3405572259093947
P 7.768787527114322 7.0026092090835945 7.136680027800965 1.3717007629372053 -2.6301822268362383 -1.810220919037276
P 4.937959770881271 6.316070377548691 1.5835302468173784 0.9033092731989991 1.971518047419282 -1.766571043557809
P 8.095994959655618 0.8750711990207485 10.604056171478625 -1.8373982507830164 2.1812413896234757 0.3481569357244649
P 0.7453695041356775 3.4865079392182308 12.182321184993883 -0.9335984111008439 -0.6881249078802343 -0.37819976194345833
P 4.654301936599252 1.6831466479006536 10.802086921637715 -0.0920884305968285 -0.0043747320289279495 0.24417355346226333
P 5.596047834949739 3.755255796125706 13.269881751878536 0.20519074444116275 0.47263509550590854 0.21218980146681524
