# total energy = -340896.5914627793 ev
CRYSTAL
PRIMVEC
9.03157455334143 0.00000000000000 0.00000000000000

0.00000000000000 9.03157455334143 0.00000000000000

0.00000000000000 0.00000000000000 13.21862228436749

PRIMCOORD
 96 1
Ni 6.40491252097326 2.0125689242424842 11.391676406094913 0.809844016859302 0.5204792115723811 -0.05759913857070725
Ni 4.743563458450066 0.6418170872058527 5.836814755905278 -0.6299943222860892 -1.8155325610581765 0.13355338260983451
Ni 2.7433226331390483 1.5487433940414985 4.755915039474735 0.0013562569175783095 -1.2848260153308324 0.2684753634324215
Ni 3.543538180044331 4.295199983465689 4.850361824651224 -0.31272353461751945 0.1473992873539913 0.2907200337632348
Ni 4.8638188703712855 4.6728462316124295 2.412358786279457 0.9829103699620942 -0.8742198120322107 -0.14873883210102126
Ni 7.09602665022865 6.23591370250763 2.6759245098598816 1.2309526623511446 -1.3566909197919346 -0.3499338251192296
Ni 5.014754540219383 4.500857962050598 11.278181127543807 -0.12184740702681597 0.5921893356231738 0.8720847679670788
Ni 5.42038060557468 7.837898227099304 12.255644932888346 0.24672460201889118 0.062044061715938306 1.327000077595721
Ni 1.9829995499555844 6.209460221357255 0.4805023321621219 -0.1932590260005833 0.706409565122035 -0.34326464062917017
Ni 2.7018496439131945 1.6427982088929873 0.3175564747982279 0.5033926884037395 -0.50402955065679 0.7554428164006022
Ni 0.6321749784738143 0.048910490669122154 4.629703304296886 -0.12302960026037521 -0.30596307596523437 0.6482010751021029
Ni 8.417237592709407 2.2180914292127625 1.4650730833302288 0.7002152633858651 0.8836848140998522 -1.0630845656198402
Ni 6.826885735827423 0.6825187799857376 4.60506426642514 0.48408653187595985 -0.2536246715728342 0.5827320468650158
Ni 0.7160891416914207 7.242943269509345 2.4858812200973976 0.2753047276494291 0.3240965523411515 0.034697294271869274
Ni 7.601180664466548 3.6794182155197155 3.8101222557587455 1.0912617993850044 0.12512016424081676 -0.6953527930872412
Ni 7.52666114484492 3.9448019950084947 12.706069413129985 1.0687013975859854 -0.5615911511213425 -0.5734341665028575
Ni 7.80843723170411 8.847583076947798 6.878124566353345 -0.02795149090760347 0.6930861085402515 -0.14954564427303277
Ni 6.714135562156789 0.5996414414987775 0.3220307167107906 0.8338663479158285 0.5578247421003748 -0.3092759423885513
Ni 1.8955468159238034 6.467600678250404 9.285341677378822 0.06838003123629513 1.001210710933179 -0.2663611453028961
Ni 0.05260259824654568 4.924547176023428 1.4402218034622283 -0.837064800248468 -1.0067578660036534 0.44027493400764817
Ni 6.420248134149544 1.8889898929756392 6.927694361947007 0.34952167728247546 1.1355547077651087 0.4499561658511541
Ni 3.297174896049813 4.054264675630739 0.48394336197376175 0.40993643092510695 0.8869830252351497 -0.5088830220943494
Ni 5.788832711075098 5.345210812602821 4.626742754238472 0.7927536370359186 0.7611691773614181 0.994900709554751
Ni 5.336549532840714 2.950290189998729 9.12077013663935 0.12317075382392982 0.16498203343276105 0.6454152848268497
P 0.19860160957747122 5.536102167192898 12.518709404094635 -0.35020687627495817 0.1518850910394868 -0.8477289648305336
P 3.931633959666314 6.004768621223382 12.690326475952373 0.4466579547158565 -0.2500629223635048 -0.932869246244303
P 2.32335442778143 8.306438239089465 1.407386611905279 0.13383234730283403 0.016807044255009763 -0.37441072721467133
P 6.247961822635524 7.766819737289317 5.658389683333589 0.15427107477316013 -0.15455466745184995 0.5848984583887152
P 4.725753193913181 1.0578863619343764 12.541656828098347 0.296474933969141 -0.17123907008606637 0.8773069355979666
P 4.049387625504004 6.2974458182732524 8.214236703286137 0.015395251509147681 -0.5006858309955378 -0.15257800334145333
P 4.545473939135903 0.9961736146825785 3.5774878678709823 0.4189915991488397 -0.24820324344694672 0.1591962799889194
P 0.2883646203174345 5.477487249929007 3.6405273533887383 -0.9536208769693576 -0.3271906178854429 0.7139130725879318
Ni 1.4679649934238954 0.9735856473363549 2.5390067464964203 0.1543320099180826 1.1408156990537321 -0.2871459432587313
Ni 1.7866621560573206 6.589201794743628 4.864201809121977 0.12960776769852517 -0.34046008130083943 -0.2062472107301351
Ni 6.110618672122119 5.706835047925811 9.355374310883855 -0.24206833419380244 0.4056439741973401 -1.1050763366705936
Ni 8.706329254758696 2.547509070550693 10.239184303276215 -0.34139287752775394 -0.24225602472457633 0.2763208276187693
Ni 2.4053430593564076 5.31886571034415 6.942565752203822 -0.4236134141915673 -0.5351666383812267 0.44681787733248857
Ni 0.42430877997041083 0.076174104034994 9.459510168978788 1.4319291116006436 -0.061106637503333464 -0.09157523840583583
Ni 1.5637087126711235 1.1643957177576538 11.489031358198826 -0.5920512673834126 0.3584788864757632 -0.7262055168020397
Ni 4.106431048838171 6.724819914564058 1.6358177051097422 0.12108764604265598 1.066911652675414 -0.7207223822002813
Ni 5.807654511934565 7.780746424873433 7.922435568944215 -1.0927774646985826 0.6366951313450325 0.21572892496832524
Ni 5.4368632286881775 2.87160711462076 4.770151510057643 -0.16255388360724263 -0.4827657561820073 0.1837192048309481
Ni 0.5950371449161685 7.471369846926655 6.936048568182616 1.363128190776846 -0.5148014444613134 0.1799725933043223
Ni 5.163676168996625 4.535990786111698 7.173839081843253 0.2897167893097011 0.7525426120346717 -0.5071297868486685
Ni 8.18616476401963 7.27152820219659 8.940295799857003 -0.5084413065712404 -0.08683515261768916 1.1588177920581075
Ni 4.702523984791034 0.5640868429174584 10.405990255499676 -0.37881117027521216 -1.6508305207596794 -0.5227541236494868
Ni 8.166060479608316 7.202499879754691 4.765326843061899 -0.06635862993089217 -0.4791988647663554 -0.3016801323191643
Ni 7.426808059287204 6.234369303300831 7.000595423452505 -0.4216236374550481 -1.2652475789782724 -1.1762395870789808
Ni 2.2660129624950747 5.132201132530575 2.6701876538589535 0.020519460109590465 -0.23006668174723605 -0.13411645420215612
Ni 2.126348697384318 5.140763064975285 11.347248285755231 0.809814192062631 -0.2527183577084809 0.2801959943034594
Ni 1.2966450603609139 3.2624033349610637 3.9732794519614645 -1.6598406946780897 0.18418843115788278 -1.3489166751631543
Ni 3.5438362219965205 2.813904386362054 2.818223285196506 -0.4638964300813301 -0.7327170926683123 -0.8478968578669654
Ni 1.0404373603698405 3.2598654625803007 8.162604999277782 0.30627186545490476 0.7221316038429821 -0.4370721107996344
Ni 3.7827574887606157 2.5921340792103056 6.9810050356193605 -0.24512229052877785 0.6448936079954248 -0.032638097749995404
Ni 4.07013315169124 6.894631574717477 5.918162145704333 0.673686106747085 0.7058719474510101 0.25446516519625856
Ni 0.9695033757487925 7.433924939842511 11.69130249641795 0.046508170863868284 -0.10444386683838787 -0.7774290908637063
P 0.35742726274170616 5.464843045896735 7.993168149458178 -0.03375344230136122 0.8834662703311431 -0.32186689167968435
P 8.666319380570863 1.5561673481233043 8.152254815119937 -0.8039636468191251 0.24691897741788443 -0.9519666291953862
P 1.7837359259812806 3.172268223359579 10.342064772542228 0.5424608580497948 0.675069874468489 0.30909159429188704
P 3.9168312093742466 6.137605016156712 3.7674390355755176 -0.5023850730748316 0.08684389436843754 0.405449855908663
P 6.945100011954861 4.0335643073150464 10.471765404875557 0.053698260854404295 -0.21976067183553766 -0.4736190566857327
P 6.357009050839564 7.8489799687761606 10.302713300121505 0.16074588386422636 0.22817974913716835 -1.260045980172675
P 2.3932497813569698 8.480892128437588 5.9475599200793665 0.09051877211686346 -0.16453106193827147 -0.9781576857684573
P 6.805200925912076 3.8817525747589996 1.693966593139301 0.35660172405770846 0.7733320379761972 0.10740706323176985
Ni 5.405225623884571 3.007866476217112 0.3009519254315617 -0.3142147744510653 -0.724908652367487 0.03787594911016703
Ni 1.5462777742552054 1.0795621402754147 7.039695818107446 -0.26111995150861483 0.44508521091209796 0.0788477635368384
Ni 6.8938638909012315 0.8628784157743633 9.233590756589594 -0.09292815288930446 -0.8344857266673822 -0.10455339583305864
Ni 2.839870162499756 1.6347330130352593 9.159196775850855 -0.25667708524591276 -0.1610824412680387 0.3371778110051419
Ni 6.287185949858495 1.8054207358966277 2.556481036469021 -0.5337489320980937 0.4681600904536905 -0.5654542336211745
Ni 4.194696624557741 6.746269903547378 10.4643107434411 -0.7748379330977624 0.6546763984138015 -0.10378849264257609
Ni 8.150896466343898 7.178737807748329 0.4249400870145936 0.6233691036600878 0.06705282778443936 -0.2019534684507877
Ni 7.518713359453206 4.013216170397397 8.183106672958681 0.7062498996157192 -0.6721282753416618 -0.04341384820926072
Ni 3.0753955573237555 8.417183403263554 12.507447030931603 -0.08782836976889391 -0.30020483332521847 -0.05443539613074496
Ni 8.936769873246861 5.107328176884234 10.101842959077672 0.021407004920866356 -0.6167330864008088 0.4936937159484207
Ni 8.61869588924074 2.216294145925318 5.970904733352665 0.3831943869445723 0.12267298825190485 -0.6953023994652799
Ni 3.7225710775669993 2.5792911805432404 11.466215795180023 -0.9680043993845393 0.8595053886401713 -0.6272273010639132
Ni 0.99140494344755 3.3605946108459674 12.701575301753943 -0.7039590466990133 0.06396827532184467 -1.5803956638768848
Ni 3.0880578245046455 8.44217376937591 8.075877500662996 0.9320724613746206 -0.6648422832032098 0.17746962437681046
Ni 5.542108164108228 7.74264221286475 3.5673092836250033 -0.5877873499007361 0.9832258443199842 0.05117986530792476
Ni 3.0411478275449153 8.205871659161357 3.5385726204893717 0.3864167505366119 0.7789200735869359 0.1558535887689316
Ni 3.3538299616887017 4.405457442627103 9.158866220231157 0.20212367548006477 -0.4513743863549194 0.31445414415538103
Ni 7.219370860563465 6.244475634952341 11.482223357484878 0.6359032315713564 -0.5868632954245699 0.27855923003098476
Ni 0.5580853617892834 0.14617693334480822 0.3366997997030883 -0.21800512259701163 -0.32685586025384356 0.08481555108449909
Ni 4.470999577385818 0.10914296289171332 1.291469968281991 -0.1846679418974626 0.29800242635726093 1.1348877636050714
Ni 6.144803180880799 5.630418897699342 0.39144739684796587 -1.340824385073323 0.4417114093438586 0.05813675624173213
Ni 8.069774865902563 8.737072733705736 11.417637666445462 -0.7941528313762903 0.5742957431722044 0.17634013875805757
Ni 0.1535837274354272 4.655324977453422 5.835625297568813 0.2958956644269033 0.581662982170553 0.04409210522320794
Ni 7.987578508118483 8.754440451101493 2.493269951039399 -0.6398802139412334 0.3247640107218214 -0.1258498433179897
P 8.54118691852291 1.5935851604845215 3.504759309434783 -0.020079801469010578 -0.022278866002858406 1.420011020006819
P 1.6086769211544696 3.141750533770259 1.4463018592868895 0.4519515990146281 -0.25622148576573295 2.673356705341183
P 4.789434824364289 1.0538673113669756 8.164125013233948 0.3575674304050874 -0.6912233442999 -0.0211609503483313
P 8.4783271613339 1.7023072520134466 12.347594487768461 -0.519809439198866 -0.35175133794394264 0.5092982552548971
P 6.270278842752485 7.759260309592879 1.2911908926358502 -0.31137961899511535 -0.625366850816407 0.731254906300489
P 1.9897461359642326 3.2257893327133265 5.960184254648159 -0.8313600365542069 0.06016098576061252 1.568431806646789
P 7.09982894301264 3.986356268403127 5.952636567998324 -1.5788239485143907 -0.14203185239449087 0.5123624960025176
P 2.5106331526480017 8.570160208905431 10.30624193620394 -0.4763390267200571 -0.5603444231984349 -0.329756064619774
