# total energy = -340861.0462259315 ev
CRYSTAL
PRIMVEC
9.34284631826614 0.00000000000000 0.00000000000000

0.00000000000000 9.34284631826614 0.00000000000000

0.00000000000000 0.00000000000000 13.67419997615984

PRIMCOORD
 96 1
Ni 1.9979023020921662 2.812804050538844 7.256870950578269 -3.8246455360120977 0.824778012461315 -1.0954976918432229
Ni 2.179368407662777 3.528746369947582 2.9265251768841805 -1.3127122002181393 0.09984004951778935 -1.6028272534075236
Ni 3.5568963661420034 4.348497055674348 8.456043037052474 0.5177787819220825 0.42414383277374046 0.15275926611432403
Ni 5.912891284941701 7.804378566571051 0.3662741472974596 0.18160164426731304 -0.06908348506122296 -0.19643356707382298
Ni 7.502062742854126 3.439045701689154 1.7467152052832975 0.15845734494036579 0.3628271361421299 0.5856942148171332
Ni 7.285103163820985 7.204418342335746 9.129730465061108 0.2926743292761282 -2.0464327944503014 -0.5422569695691047
Ni 6.326928865874986 7.709959760882096 11.56927565633603 0.15391420565437364 0.6498887472171712 -0.49567886469924954
Ni 0.5408181379724691 7.2642966448946735 1.751500611207885 -1.1501953404964191 0.9120014016563585 -1.9492409811886366
Ni 0.1033234725900192 0.8155856448029446 10.351643039665824 0.9505545793392082 2.0601108061580264 -4.065848436881811
Ni 2.07943732259954 8.07464842714597 2.9934050085330846 1.7876337777653792 -1.3872867903009205 0.2726258952656853
Ni 7.71190307293269 5.9773382393888035 11.611214759527911 1.8126673236952395 0.7384473102838702 1.5337597091859005
Ni 8.213408381835498 3.3178876696117365 8.230487105049372 1.3532240442892565 -2.052091535397975 -1.7114003119229366
Ni 0.2800947978460941 5.085161808391823 1.8679507829858109 1.8458967751723308 -2.5799431281750276 -0.38552226374680054
Ni 8.400498880937155 4.902200847397678 4.882523878600774 0.08474407441661534 -0.24327495290739393 -0.3800404146966229
Ni 2.241591764667373 1.5756243306366509 1.4550857292753603 0.11838001730350581 -0.6846091814174919 0.5361886518878378
Ni 2.973052551941672 5.3971848495153205 5.9582592127613125 -0.014661201556600558 -0.5645767161122276 0.21521547566701643
Ni 8.645038542534497 7.1111954209856165 6.085169635365416 -0.8898418348401836 0.757019931079735 0.41176577082436183
Ni 0.7997355058902873 5.215382401474415 6.685795070264195 -0.8116088220692087 -0.3215467893361043 0.7097507136801261
Ni 4.1527177094234 0.4842556115998678 6.284867371395302 -0.06276808436615643 0.21158147845885497 -0.3797038572928106
Ni 8.191331235799183 0.6962802991660691 5.033910690195966 -2.0192719177647933 0.2834888061221182 -0.6629854325001292
Ni 4.14418769066286 4.307566045608711 12.16201105745247 1.9913096282239124 -0.419652115550974 0.8101980577646111
Ni 2.336748655221699 0.6936203907968186 3.772068658659383 1.8406478680685656 2.463721037754789 0.9943749189582681
Ni 8.531214644878792 0.7390284928559384 7.186435231590633 -0.04431939074266561 0.06922258174224852 1.8993690360588578
Ni 6.483636428493317 8.529729132301656 6.867812403772234 0.43190110812165616 0.4497378791927609 -0.016125187696636744
P 8.64986879412179 8.102060338475022 10.676732985760285 -0.6778685202595487 -0.7977194656816262 0.23340603053311418
P 5.228322243734379 0.2928926288408232 8.379645647778858 -0.4397195757248104 -0.2832486650868541 0.22815429521587158
P 1.1420975721190438 0.7734839760837536 8.011877579342505 0.6946935622366874 0.9012163952257124 0.2792616554146481
P 0.9352469528875489 9.01662222943942 0.2825884035494765 1.3986400105302106 0.23106401266349885 0.2459540424014538
P 6.075484840790197 0.30252323490693994 12.345956754456866 -0.5420620799494793 1.5885789710186256 1.0827789587249739
P 2.165326109527956 1.8893757983436095 11.07239599068442 0.1498577761968129 -0.3099639695945113 -0.6020135208024471
P 0.27912687895935595 2.9707728974207823 1.020580774739978 0.979714745842932 1.1283211661311472 0.024448362850351443
P 7.9855830724425445 6.046288445799301 2.6862150218508 -1.5351591606365884 0.22066544303799415 0.8816978655768105
Ni 6.033619546084852 2.4758449523815225 4.721168249899892 -0.023510938637746604 0.39876704457184875 2.2062502529629873
Ni 8.442373518488896 0.5211495777373226 12.229411285645693 -1.1245907525544374 -1.4226883097286658 0.4481206553043121
Ni 4.251770566925311 0.860311719075077 10.761034423085837 0.1946988437709034 0.19284764949477756 0.06343322875398107
Ni 7.692544695197927 5.263217775027497 7.360371002965192 -1.1058985754615729 1.3680875916646504 -0.39464608042493965
Ni 7.999840256044498 5.947581273614083 0.35331655362934034 -1.434657052054768 -0.9225264695573984 1.4387397067645737
Ni 1.7919205675756003 7.001146033274335 13.227792523061554 -0.28204693146926907 -0.2850286398054123 0.14586870964207782
Ni 2.563256623272664 8.858700096789468 9.178464620437591 -0.557627281377588 0.504669498233634 -1.0049825192707853
Ni 3.4572081950850904 1.7188314802111928 8.473928982195057 1.3908174291619984 -0.7939304309528392 1.3163708800166491
Ni 6.2086390876414725 4.3123589258104165 3.830608131329608 1.3848121035081826 2.4146934429031766 -0.10387333904689852
Ni 5.060636836599471 8.02969065028319 2.654449344100706 -1.0204420483589653 -1.420701361205624 0.07775530180360803
Ni 8.361427097304539 8.174626226441193 0.07259485079000173 -0.6103359246252134 0.028394234871976905 0.09217764787652512
Ni 0.17532972405700448 3.0025198894780822 11.406429843634813 -0.2586704615268578 1.2789857544999714 -0.3774970794494789
Ni 4.7739329092120775 6.508086657514492 4.8193624998179105 -0.9896895976674568 -1.9256539378973156 -2.905094604143255
Ni 4.310537070762985 7.281851853274798 6.725149007858002 -0.5896110333730362 1.0748905571158327 2.7816263736835642
Ni 4.750809364379289 7.7236844022394155 9.58408242819782 1.9898662109091665 -0.5449219179957776 -2.2307384679123388
Ni 1.1787308728420198 8.675066450854732 11.587968823407321 1.6749179007261863 0.1176660219556167 1.3101439252703306
Ni 4.435011813311369 2.530612717961244 2.8035798582910005 1.1627911748835589 -2.071751218610432 0.26986633024267714
Ni 2.4396320797464153 6.433614828883315 8.163401730779732 0.14301941311874078 -0.468207141641542 1.180261049533548
Ni 6.3066175178077195 1.9308019792682911 7.05246909138745 -1.3194184085937213 -1.0306979217590184 0.3258909252374129
Ni 8.64800956768877 1.0997277637082565 1.3725482213495792 -0.19228406368182369 -0.14789242494032592 -1.9218384208059676
Ni 5.546866591643043 3.1483523788902055 9.018462770179648 0.7340190993091874 -0.37359285929906627 0.24677859518527823
Ni 1.3505177895452494 6.114238967645311 4.3911686380237605 0.5877336138446652 -0.5207867155104708 -0.30466903974415915
Ni 7.821737575176838 2.367822962338409 13.05614014334644 2.064473454002096 0.7852208189939832 0.4738394002266548
Ni 6.158776316420223 3.55453262600354 13.550954105659656 -3.249444250306487 3.33405771268251 0.5985759558758078
P 3.939336440560342 2.8507640354502066 6.6386604101908935 2.973352507979389 -0.5911385257611561 2.2380545419577778
P 6.255596233633231 7.797268660462868 4.8017503000747634 2.476269049623129 1.5558853374403463 0.14626080287417392
P 6.025332441330637 5.752792269081227 13.054868581951798 -0.7426196964940049 -0.07816385009593635 -0.3166249265544547
P 5.417589626046557 5.755585780153955 8.06159740501388 0.46307933349667346 0.2937562494863973 1.2706080719592374
P 7.3032750000633175 1.671435220438773 3.047322575090671 -0.0423650952297722 -0.572989108545639 0.20914947197859463
P 3.0891654469646626 5.02405025010848 10.608225630269008 -1.4133161244851467 0.4892266813160026 -1.7334968867116598
P 4.013051498633354 3.683361134972966 1.1842422179316612 -0.32268141716117976 1.3546831453332864 -2.2191420213239907
P 2.766426161023707 7.980295021381792 5.098521144455017 -0.16503628370946416 0.25690771319948014 0.7718289710681094
Ni 5.6870279732921345 5.412301574985807 1.976154024249028 0.518789482574784 0.7143097938057182 -1.5398372828385483
Ni 1.2309854127409248 4.218491348058889 9.375565045169086 1.279908523424557 0.13902751835052832 -0.45143634994110643
Ni 4.196825287264045 6.783177426830307 12.167713930893251 0.059285782244510796 -0.7370018360865952 -1.6156976816122885
Ni 3.19890652074484 2.5704693006912147 4.825515698455033 -0.37326838608011204 -0.1964271393159198 -0.5832233846791375
Ni 3.8811118218136986 4.650569965384948 3.6805068953986564 1.4182742398213701 1.2829354831763389 1.1717656104680272
Ni 9.08772129052125 7.644008608165062 3.8831037166655578 -1.8098578792709024 -0.4577934025073858 0.6479861308778195
Ni 1.1031939597215756 0.44850894699997523 5.568093538657224 0.1503714826084378 -0.6032193681850901 1.9866592739360944
Ni 5.118515770029421 4.562990123258659 6.242121980559352 1.6953946805232998 -0.6352463147136479 -0.15467705196232717
Ni 1.0247981356036229 6.356396203411396 10.920858759262236 0.020701751323725637 -0.5056475458761872 -1.2264082375135716
Ni 3.70310256941001 8.716913059867283 0.1009905638446667 -0.6130389253786732 1.2419981215320288 0.4079978191414973
Ni 0.1492659854630523 0.39428026365736607 3.2739454601523197 0.7899087113879557 0.2191433499665129 -0.45251235661410455
Ni 3.8589505901598096 6.2983023845143125 0.5555789009952261 -0.515690531934486 -1.306451306910092 2.913365071682163
Ni 6.131654033329481 1.4783092425645983 0.8193153090846615 -0.6262374263468182 -1.7515856258925702 0.692813314494839
Ni 0.9573521274630555 8.01375175432976 7.571144683398824 -0.9122340864924547 0.32116986561265976 -1.2069686407317213
Ni 1.3376340043636668 1.7605753179133752 13.081505971314531 -0.634360826784901 -0.4375526499804787 -0.5919368532927354
Ni 2.1308790348618984 4.404853105141573 13.288683590169924 -1.0021075117158356 -0.500210434021016 1.0139114463292989
Ni 5.810297488655293 0.4537502838287407 4.232384160651357 -1.0621720811078998 -2.0868286817688446 -1.0781149775904013
Ni 6.034787401884488 5.058347839232185 10.448730162285788 -1.8584051920519866 0.10756081520081476 -0.914975653793334
Ni 7.24990866144316 8.645328170772807 2.416053538294088 0.855999432369442 -0.10257416061950077 0.18297281358322684
Ni 4.00687587716488 2.1212839316120906 13.20170169021305 -0.2912931326578854 -0.27738449299659323 0.033082127265949474
Ni 9.329701012205788 3.0847089092332522 3.3284506917482823 -1.0419207870580314 -1.179123593494995 0.9382675344417389
Ni 5.888198141914201 2.6170247042878967 11.474499953914705 0.5570354134298601 -0.5972148138622231 -0.985948899678102
Ni 7.1278630589580185 0.03457694023097739 9.796196807089434 -1.2625995998324642 2.2708877864377146 -0.18422751192593434
Ni 8.419670401743977 4.8268507912051755 9.90033964730848 -0.4341896470455167 -0.48119018416477133 -0.15908186589824216
P 0.17506251865004782 5.3584867797385884 12.701211948713603 1.3799848573228684 -0.404670040319845 -0.296650797425373
P 1.2539314434921691 3.6086463923354652 5.12163067501821 -0.049138152287547636 0.8010744981967882 -0.37293157156598356
P 2.7886154212167873 6.062264713138319 2.543646922969819 -0.32788764395246756 0.11683966939957942 -1.028344076814861
P 3.3528579436760313 8.189677551986899 10.943393704772008 -2.154835388826121 0.6479005131425487 2.5520643994868886
P 0.07315355300454751 6.281690803620292 8.628762369826132 0.3306721486761402 -0.2638013549955199 -0.6912287436165385
P 7.647054376090512 2.6354955116149363 10.041156896774647 -0.29657983497812146 -0.8417208109632407 2.1836263449158846
P 3.851878055437215 0.36805863095930313 2.3398056345628255 0.6952682037932348 -0.15311664945374276 -1.209671127264549
P 7.738053699998135 3.1278168025094093 6.121802936088393 0.2991596798901558 0.7606187041745868 -1.0914641452037979
