# total energy = -381163.2918398062 ev
CRYSTAL
PRIMVEC
9.26079962724487 0.00000000000000 0.00000000000000

0.00000000000000 9.26079962724487 0.00000000000000

0.00000000000000 0.00000000000000 13.55411635044906

PRIMCOORD
 96 1
Ni 7.764717414256846 8.645799147824512 11.938967263588095 -2.507862251048378 0.8828805730310021 1.5999987828197928
Ni 3.369134454780996 1.652552643216026 4.314532441484823 0.44783526285340935 0.47183162576800675 -0.8215921585341657
Ni 6.209662469099494 0.14647528883782723 7.3547214427529255 0.015311690656405889 1.9993546100155761 -0.3971925009958773
Ni 0.5652236420320261 0.14323863938194703 6.843608652711481 -0.07139824923732865 0.07117147793850324 -1.3273425485368044
Ni 5.534855785546923 7.4194285016316845 7.901426263849547 -0.6135516033490336 -0.7838861593429597 -0.051820584215717204
Ni 2.2921034627384516 4.253651944995678 7.789415040677122 2.1070941168861 0.6915866411765896 -0.056786927082057036
Ni 8.867030389173648 6.573750804887565 13.499994498399516 1.55188572936265 0.11091430505407995 -0.4406168907280992
Ni 3.3696993635558417 6.789379262486177 1.4430798391033184 1.5045134107262734 -0.9788027755516239 0.16551476600777945
Ni 4.982865826125634 0.6241352925288398 2.504611030876029 -0.3003269607253795 1.471133549714247 -0.4325215153144744
Ni 0.42462988701230914 5.732684986338091 11.254226520317863 1.2460152131112219 1.054014999218404 -1.9720523226561975
Ni 7.487782463388055 3.9265697643598165 7.767999441630705 -0.2917857560235878 0.40605457937219747 0.839724092248186
Ni 8.566415573759262 8.861622082214465 2.908157781547117 2.4233027818387427 0.6286411506923044 1.1153257823127436
Ni 1.888128863126415 7.2350089386434195 6.344993311713555 0.19498140800832872 -1.8872974496063042 1.0417945458928122
Ni 0.7525761002496967 0.572040516608488 1.0239304932869746 -0.3826981640344442 1.124890028962411 -0.9086525397887835
Ni 3.8022990946932738 3.732546752199169 5.513760610166237 1.5138478007533218 0.9413893679001724 -0.04028815809608546
Ni 0.3812745276628132 1.5529157004526062 4.8522385436221365 1.4394110217999856 -0.48325272312075485 -1.8275470690205493
Ni 5.949165437498765 1.2076638310257954 4.961741942266228 -0.5396323874620642 -0.40410311207278143 -1.1913031662803224
Ni 6.571824558573336 5.5840954569544055 4.145526553330226 0.7299454434604461 -0.5091154498201297 -2.4762073431472578
Ni 6.3895164578910535 8.386543063368528 3.386753125996481 0.08524775352591124 -0.898236229551466 0.2629282083619472
Ni 4.065722538963697 5.212172484715191 3.259222654875089 0.016371499379487932 -0.9526472002021787 -0.13641656309024247
Ni 5.691215125784638 3.058008631834639 3.3284165711540594 0.2355053362643041 0.11502061391296967 0.5440258885440695
Ni 6.702753743143392 5.85673339681453 0.3005138726988802 -0.41141635790474307 1.215575922784758 -0.453425098236361
Ni 6.363604740644836 3.5640742861008197 5.76121750986761 -1.48941872117668 -0.050874932472996244 -0.43942621285410766
Ni 0.03743400409315883 0.5817365737767471 10.43784906738908 1.1660317933080435 1.2210369458993293 -0.43727651350095664
P 0.14868954601923198 3.157765964992698 6.725254707901481 0.9280499704787888 0.0015953695115778976 0.22591923523776578
Ni 5.918336235671513 6.029262093132265 6.034848207443529 -1.0624775281634606 -0.5518644107518819 3.0573036541810636
P 3.6333728494151307 5.886599475484669 6.773331222880756 -0.06322008430191048 0.25702032751794446 -0.5945426663466986
Ni 5.87148585055764 2.56978853837384 8.863050097510879 0.2671239916108496 -1.578640628858991 -0.7515866758793055
P 9.039281261503753 5.094023203576079 3.383866534765014 0.6141072187421874 -0.0431582805550289 0.4365087820969967
P 8.341711532564762 7.441978548627588 6.853313970679327 1.6685865591915199 -2.9046310342432746 2.389624672860007
P 8.376356183822123 4.231222288394413 9.78321240533839 -3.084660448927462 2.9596832380224125 -2.5911731925628922
Ni 6.82845057594643 1.8472609545461594 1.3311149199288317 0.4037493282777886 -0.3697207779381697 -0.10953825064215975
Ni 7.801621700613592 8.7350454734506 0.7464074816443698 0.16267369701455855 0.44522765002723325 -0.6941870549139141
Ni 2.590717945441907 8.873031387306437 5.1318054137337334 0.7759630478411411 0.5759978134649757 0.24622015157864693
Ni 3.2082373227453367 2.345547537158722 8.616663746241839 1.669528611389815 -0.0012148462437075853 1.8010935028147113
Ni 7.8155499431934015 6.803270461867638 1.988985453195527 1.6998354899034727 0.6867470536961012 2.385446887333234
Ni 7.285258037205954 4.600385542356511 2.1360608418466334 1.8839604148132716 -1.4763413191674315 1.795986263495133
Ni 2.980727259275782 6.256133161430272 9.027353351634872 -2.831779083278555 0.04692057581093855 -1.3025637989302277
Ni 1.5517303181053883 0.8468899354101411 8.767670344317898 0.44963503506630953 -0.20839896696581528 -0.033370605040645755
Ni 7.210430776537822 6.082863601145526 9.06835461572919 0.7593727475826277 -0.6223632881033927 -0.7170760436969457
Ni 1.3136258999075736 5.129390197201276 1.603072191019265 -0.612370695667055 0.7331660072802728 0.7498838342555859
Ni 7.9975524374892935 8.885607553146453 8.516362804147985 0.09990458420713762 0.323621669587262 -1.2761886513708087
Ni 1.12468706672054 4.495340292633909 12.80656619903612 2.261670638714821 -1.6385648160184487 2.4404055029573004
Ni 2.193235166340806 6.763652761231714 13.088749245031224 -1.5717279608995578 -0.6965162172677231 -0.4044468685654454
Ni 8.546078857864803 3.871643962005523 0.21783623222030557 -1.1093034873780638 -0.8682947047970273 1.1994885303045923
Ni 2.834638145780759 5.204235979468583 11.539391543780187 0.5007544794499441 0.6431568278099762 -2.2460925817709056
Ni 7.195946885982753 1.0908388442277155 10.231772198485158 -2.1639394080099184 0.4273158027438189 1.0115563158335612
Ni 8.365002443527677 4.804150915683355 5.769932848359538 -0.17486406843316335 0.5710412407906488 -1.801107129661466
Ni 4.055267096229251 7.6477535154649505 3.5354963846533214 0.3876714488793194 0.46706325784508596 0.43351653223789205
Ni 8.491162316310097 7.645614270760206 10.18968649475913 1.5237298357537241 -1.7422080413324126 -0.3174474224557501
Ni 0.9546124822935297 3.542737403850897 9.360974582859566 1.7333757877527631 -1.2165588555233178 0.8631949216766166
Ni 1.783139178201339 3.5931809792047726 3.8128545540632666 0.5561329562202487 0.013333226773796393 -1.3531404834365148
Ni 4.714589722871288 4.565944628690077 8.109319175552605 0.8119374090532209 -0.6205725147515571 -2.295901534873233
Ni 4.513334026232694 6.26740355452843 12.51386473686937 0.4918198959644756 2.5204033209381818 0.43402303956066546
Ni 0.9991291459113155 1.8518543111416288 12.2537751804505 1.0443764476873756 -0.6332619372937675 1.5743317170709918
Ni 5.096523619464741 0.14699481969469383 9.386537167961329 -0.038561662323281974 -0.290922379582028 0.5397501439868511
P 5.676036675260495 6.465251276918773 2.2635644566492212 -1.0938033348599354 0.2901518199645906 0.2777513894177087
Ni 3.7084871948704796 9.000765596018757 7.349164036920382 -0.9585334837796267 -0.2852111881298637 0.3055761249394608
P 5.920790347562236 7.778951263223049 11.030340207726953 -0.344348103501336 -0.03594556485667358 -0.5517849636641982
Ni 1.6579979933735585 4.525817584076832 5.712531634275469 -1.4417856926797492 2.1841999580311677 0.07348675633524118
P 2.6424209895397013 3.2286388642369075 11.052379058585618 0.06899863865690052 -2.368908266248262 -0.4869276008691807
P 3.8228858521765976 2.8667545987506955 2.2705989600159926 -0.6095746209791566 0.30427077586447593 -0.4397794824284684
P 5.008814586570201 0.8858797538340235 13.417152015688282 0.1523401762990344 0.05382038825456537 0.10410808076552394
Ni 5.362530826820116 8.22375672821699 5.57224626388202 -1.4047399527803612 -0.012350808255869051 -0.5619611328662516
Ni 9.057525036691404 2.7238141571154704 2.7006575277465763 -3.6203834740327907 0.49374359534974965 1.2690654100624659
Ni 5.536356035080121 8.027640775349536 0.45191590691733197 -0.7095859059674876 0.7315510973846692 0.292363997124561
Ni 8.572249877499475 1.907011633485613 8.506780654814653 0.45170143067703494 0.6554724119525357 -0.10223580344347555
Ni 7.6959374557194415 8.791453003738916 5.605440673923956 -0.5650477422113752 0.9690292411046277 -2.7339768901264017
Ni 7.888265741555552 1.7364462266804577 6.226856069613907 -1.4866457864172333 0.7374944594522976 1.1268628364180657
Ni 3.2488922329350767 2.202644138721848 13.49172645652767 0.05988613483267106 -0.38452390438927325 -0.08506109143640189
Ni 8.891451117686254 3.365374570148414 11.43061974830352 -0.656922514135501 -0.9790837971271524 1.2683303316686543
Ni 0.35615553486129814 5.492006065854912 7.603628583669723 -0.9356007862428531 1.0841958936771585 0.9403239027501354
Ni 4.985282894818009 6.166108928638823 9.659124173423722 2.1399132202986504 0.6799637122256805 3.162595985062676
Ni 7.579695899295383 6.009999629989974 11.569075184698452 -2.9994625748028794 -0.41371826656504235 0.12543306749554525
Ni 2.644078672665889 0.637845906318341 10.998352479871286 -0.6486731296425151 1.2196554921707705 -0.5027452846277277
Ni 0.7420428667987149 8.44630300310757 12.0177433292004 1.5111293733808941 -0.2899523023592748 2.534436916213113
Ni 4.737473158652347 1.705255853669286 6.681731728079448 -1.4750935628032595 1.888828798649166 0.9747296339235147
Ni 3.0670656938313505 8.875003937618605 13.234482743822081 0.3284867109890472 0.34659653321588046 -2.514790859847411
Ni 6.821291977865186 2.733287955093626 12.371953170068334 -1.6020857472558085 0.14743991078393962 -0.2686507126680212
Ni 9.141474184953362 6.925012933246754 4.784887526461106 -1.5213369100415155 -0.024624740527215656 0.10162542355298626
Ni 5.621860997672802 3.90301029020886 0.9982947478684692 -1.7341599742169553 -1.5579764156414202 -1.3098011972189312
Ni 2.9741150483702072 9.04290223414252 1.7603816892946724 0.7971219413069434 1.9861188280515925 2.749838796859322
Ni 1.5891161660406914 2.667897449205299 1.7420425278712688 3.464109767007305 0.015192905690354482 -2.97413412334042
Ni 4.782804772633845 1.6171486063924778 11.177307245022883 0.11747730298357834 0.5115903937231834 0.8109195093116679
Ni 0.9335904672295865 7.821995459706399 8.438453549377087 0.21909141368265495 -0.7844726279740489 0.11579400174388446
Ni 3.460482981913478 4.541746159367573 0.4355492958060955 -1.2204767025204852 0.38473344929691805 -0.04404788224883382
Ni 2.2289077663523957 2.2788049545306004 6.49341151630487 -0.7973145169337236 -1.5992148534659167 -0.41215220762950305
Ni 3.611785925576342 7.9130846844504275 10.594032452434629 1.0074281525978004 -0.6072917384822509 0.8223033256685773
P 8.208439365699034 1.344547709730704 13.124247742010567 1.3262104918148903 -0.569682155659593 0.3352741662245258
Ni 1.2177025377787973 7.715913000429982 1.5860480631373062 -1.8403406212407916 -1.875412011022628 0.2999150699989415
P 1.547127700710331 9.253057559184837 3.4184972948229935 -0.9274912697618415 0.03795719597006367 -1.222229937766166
Ni 4.757180140174845 3.9206243310245514 10.236610966269701 -0.7678748715163678 -0.16571608338530813 2.7625475026752424
P 5.84801898440256 4.771126904353831 12.344953308870569 -0.02469493164351876 -3.1691898362301094 -1.4654640101332956
P 1.5502578509709535 7.4256517589545785 10.407704238651352 0.46814852048946476 -0.54489055053721 -0.22413283276130433
P 7.61169196187068 1.3161911413933498 3.7421427927318813 0.24781012177358613 0.8574171386525749 -0.652433882236528
Ni 1.893324171695081 6.615044710248852 3.9143473610640487 0.9758580911010033 -0.5776001249550892 -1.155705728791687
