# total energy = -340869.486786859 ev
CRYSTAL
PRIMVEC
9.25461872562084 0.00000000000000 0.00000000000000
0.00000000000000 9.25461872562084 0.00000000000000
0.00000000000000 0.00000000000000 13.54506997614414
PRIMCOORD
 96 1
Ni 1.4388988760703816 5.447259369793673 5.023243276718379 0.5257972813511849 -0.40394061835298817 0.5919144846952322
Ni 6.058786070717776 5.858432828363197 8.532459607427336 0.957124262136926 0.4160528282354899 -0.3068249097448974
Ni 3.426161679769564 4.879321923407427 8.967134244972112 0.3024663756658855 -1.3262706556288641 0.1735252950170818
Ni 1.5165173639279206 5.914201161239021 7.946567275111387 0.5882846012521287 0.98997961810405 -2.307142912115007
Ni 6.330788571805284 4.8062844718548225 10.85814808771181 -0.8341859360387762 -0.2575664298294016 1.6097820874588016
Ni 0.38153369094566064 8.073627638434541 9.094728599799902 0.9485401200123407 0.6028416731306973 -0.13023897352462085
Ni 6.987690668695229 0.49339149196959237 5.23458730435728 0.9876000621282797 0.505151065855743 -0.4682626774698258
Ni 3.9685471236549557 5.35771167830571 12.61842470707997 -0.2616549980764784 1.6386095532134552 -1.3893506148084844
Ni 7.750882062478442 7.847278171876811 3.995836218104166 0.060523254196037705 -0.3221584547781742 -1.1683558134555296
Ni 1.746920353519108 6.227951247723613 10.336527232023148 0.4815365117605964 2.940493295357523 -0.01640543794121691
Ni 4.071560285493786 4.116084256530225 1.2505368432921715 -0.7089580425755017 0.7296543945825885 2.8151021368435067
Ni 4.8975905409143765 8.60317692604732 9.056979009723484 0.45686883381058735 1.7853760920794541 -1.4129273736871601
Ni 0.37917746499972893 1.1923373220581543 8.586951728370936 1.426353674395395 0.5453746892624801 0.5163739311547559
Ni 6.012855397624064 1.56671441628744 12.370482363943102 -0.3032906713393938 1.3403759846819947 -0.31886718562141214
Ni 2.503679787237817 7.813017573087183 3.3481924418595868 0.0179234172476401 -1.6267727084795274 -0.30327241650694864
Ni 9.518097795021227 7.98072052032296 1.6821352455485428 -0.8602492087847314 -0.45356650891023176 2.0938251676913358
Ni 8.180296374698521 0.9243744620759067 13.372032017636132 0.37003753784764015 0.13324742133364148 -0.02735962295987546
Ni 5.658912501700424 5.7952885643054906 3.2164122229495304 0.034460752781030966 0.31678202095760927 0.9416197387434234
Ni 3.643811804657319 2.2194241708619606 8.794055289676665 1.253843193796073 -0.10295982609369365 0.9609078975490742
Ni 3.4046076725893792 2.5651026921991247 6.446979385350368 0.6269084842719138 0.29963147732025175 -0.5834247020566662
Ni 8.46978085069516 6.224378964867645 8.498799633397688 -1.2550814370785481 0.6309631139572617 -1.0736047484248736
Ni 6.313750818598449 3.5289619853760437 1.837537878940102 0.3543936606627961 0.4390675439631084 1.69547567027288
Ni 9.021855880461898 5.134564309852035 11.501945644384005 0.1373501306481054 -1.0502768723322107 -0.4336294036666725
Ni 3.9247357582659506 1.3992150706652156 1.0304074060284738 0.21277215633284643 0.3498731470846232 0.15113381469575907
P 2.197185321890735 2.0173958425049707 10.816049752262284 0.13084549676036822 -0.47311794867959805 -0.7326404737941059
P 5.8349723697106555 6.830204820612275 12.26602270518617 -1.1108109251615257 0.7142959098486473 -1.1914368636447095
P 0.8080883259572054 1.8214292894605701 0.663520074792285 0.28738377030115025 -0.1100496430609395 -0.3017081573436223
P 5.047718967053043 0.997925544971792 5.900530238350842 -1.9462554161977512 -0.9539425219748344 0.17441386826962219
P 3.091940376504134 5.3080699030740615 6.4527357582426275 0.039589846477480206 0.15419059924421188 0.5131189145525679
P 3.2806050353170337 2.522207534071106 3.1179393770929242 0.13332558286974455 -1.3254630721259044 -0.5222337323696425
P 0.7188960118310797 9.078225763559582 6.791227142621384 1.6200765274062743 -1.8249870216028568 0.4158548532920709
P 2.747437191754297 8.208467434319166 9.195626155781543 -1.1235309438313552 -0.5440737110628694 0.6910541657118873
Ni 1.5297792326652346 9.041494181550929 10.966373450857587 -0.09140503137655871 0.5826590275352352 -1.241986551567803
Ni 0.6638856322347999 5.304599421024869 2.4900847522237806 0.4366069982377577 2.119569880755608 0.05481129141292496
Ni 7.7471709603405055 4.788867279277275 6.551845321872527 -0.2407208190269725 0.5040526905852415 0.2712261867046813
Ni 8.475851880626548 2.33150685912268 4.6460129835137165 -1.235114249928002 -0.10996633931851385 0.40335903481790536
Ni 8.055442312496773 9.103750002204041 7.528580566182889 -2.0361357833996676 0.21844169591379797 0.3845668418120667
Ni 6.206323203593046 2.8226587333431934 6.074964069838292 -0.7722457468905539 0.19582395851428208 -0.8639397702624411
Ni 5.170453721550083 8.872680680059409 11.270663466007022 0.7260571641496335 -0.3923385153376856 0.8472725940194054
Ni 2.436981749561737 7.570398486682839 5.923110582755707 -2.9178112803789746 0.2255106869454374 0.4553680808953448
Ni 0.6003323140262283 4.447658738819471 0.28723097631936406 -0.6021145651566856 1.5104796556120372 -1.5875757265650916
Ni 4.339222370365103 7.791833750658913 4.957875127763548 2.1691340648369803 -0.20059644020226097 -0.6082741570001783
Ni 3.313866135276494 0.8479683292808856 12.269354367953396 0.29125739432394354 0.15047998316184408 0.4734249383970557
Ni 5.896015835301252 8.221757066912874 6.670188759749989 0.12216905203229281 -0.8326797838068949 0.8829340519767568
Ni 3.860795596991629 6.933939842717337 7.718211407198283 0.39520246714904195 0.057285978205662634 -0.32689545524252733
Ni 5.161920963018469 8.652670627378205 2.934174113471605 0.33954733967858297 -0.36923715343353186 -0.8886758395565405
Ni 6.141975839091619 1.3795119872446004 7.955547957192818 -0.5232881417760858 -0.40555964201364997 -0.10441918424803952
Ni 2.964476511801394 3.2913959208353227 13.004974401414064 -1.5114013960953583 -2.022097045918414 0.4729901648524821
Ni 2.119585343270792 4.168743037489972 11.043810548186688 -0.5022128091630255 -0.510135920664844 -0.6447012894789607
Ni 3.159684186104371 7.654911665544773 12.216962120015026 -0.1728249265159475 -0.5223715434990875 -0.21983291983436978
Ni 8.162990237546548 6.822384667728095 13.1412236757416 0.38425753810176405 -0.6037610996211731 1.4559740683649893
Ni 1.6987685719139123 3.2073269636756847 8.267680336311548 -1.7565774226802071 0.8215260811829206 -0.43758298899778186
Ni 6.1860648430445595 1.3180983369020907 1.2169296205896718 1.3684118077732883 -0.20453845556914452 1.5789591885406742
Ni 1.77295359619745 3.498523544149926 1.7767609463708842 2.9631483137528773 -2.4868653370817366 1.243070271550285
Ni 7.723617955499986 3.7287136775087633 13.393527720717891 -1.0874781639728563 -1.151218639554611 -0.3239749391616227
Ni 8.504106231816374 4.796909543012603 4.085138662193986 -2.3770146974054804 -0.25368689226933727 1.1859128485026866
P 7.926682801162335 5.105403006020021 1.67372372252318 0.5987315076170656 0.32603747811760625 -0.09305927915053006
P 3.431695941810676 5.5858287770538295 2.9344582302686986 -0.3576929002393582 1.4756476355345167 -0.8159239045047948
P 8.026308772521153 0.5491681540023337 3.0285286539631695 -1.20481431339288 1.306465705087795 -0.6453728616246885
P 0.3593337113733864 3.8403243802107925 6.073690634291709 -0.20384374349496506 -0.6190797322561145 0.6199135410113196
P 5.2897179939979315 3.7973829489887843 13.15932015733891 0.4907199780320775 -3.6243044063537515 -1.966623438331142
P 8.457102022942111 8.525512165095792 11.974790031698618 1.0201813384984106 1.565552428216465 -1.0180951453933433
P 6.908646969542821 7.67224556655314 8.844348590071682 0.5194705678022086 3.366886586287073 0.12318463778100076
P 0.43736495522930924 4.799991331072286 9.282517771674524 0.88646366239657 -2.5203231025195496 2.038846754572927
Ni 3.522696608449901 4.1756099646379745 4.568914605232616 0.9038805723214368 -0.1159374693002842 -0.2750301338318038
Ni 8.87929773249987 2.7641232694468143 2.328425071062997 -1.0879790148686745 -0.43021857821291065 -0.5014790163207944
Ni 7.695761552918468 4.015810461855558 9.210620489157813 -0.09596231172993795 -1.2221330071769854 -0.38469488274949876
Ni 3.172566615470973 0.2979006263314013 7.331594154146965 -0.2750915831973585 -0.7079303726419356 -0.19323794295466074
Ni 6.1511656755578805 5.515095725581888 0.3536532263552682 1.1470583375293342 -0.37261558298746156 -0.3035675791498643
Ni 4.325247895980355 3.1065996926799233 11.028111938319899 0.5078656365734285 -0.18373694544276098 0.467059401190344
Ni 8.165433456909179 2.5192738199121885 7.221459563143193 1.0251371398417894 -0.5170745567662063 0.33212790728606023
Ni 1.3907656037027818 3.1926861567374916 4.255874348009818 0.4490737632462008 -0.6786460218555216 -1.2209942655868522
Ni 6.990707674423327 7.235621906289538 1.683002403329901 0.9876095752099765 0.14289959971142485 1.4986690361303545
Ni 5.240427894280601 1.58360409559351 3.649570028473339 0.03414579264377345 1.3977036147588702 0.3725703315718229
Ni 4.54263889154177 6.570316615531148 10.168203299866033 -0.5596844210169329 0.23249020358706415 1.9764010865431962
Ni 1.1144782141118712 1.6781307719947145 6.100862195082185 0.6118330779960303 1.578540870056333 0.6572351602799132
Ni 0.3562426686949056 2.7226163041384726 12.113640779370227 0.7160015796858443 -1.0609495215547082 0.10189976026029547
Ni 0.5818471384394095 0.3056458168033191 4.209713234908039 -0.67815931202709 -1.2900265856951654 -0.15663880367438832
Ni 5.292975619814774 5.004175985609175 5.93526004631352 -0.48047387482403703 1.6857023929362 0.5148914330719584
Ni 1.0757568890616813 8.725735842787202 13.236350976902784 0.292837851437186 0.8019576721326899 0.4012941818690766
Ni 2.110960038551199 0.5483787350188774 2.2354105993733606 -0.7623703967583708 0.9176524292945486 -0.8454432541201503
Ni 2.8529953737625346 0.6218307934936257 4.679469355929811 1.6845505387199442 0.8492392308274729 0.29448258612946054
Ni 7.6831289982594075 0.5809142728645866 9.92084307225155 -0.838448310859556 -0.4217982153596994 1.00491181393385
Ni 4.628355170847425 6.788938475392677 1.2884234017267957 -1.6770894544562085 1.5290828725355214 0.4937348535990013
Ni 7.5807636597364265 6.847483193907854 10.895274841943131 -0.6767238651321442 1.3614577450529584 -1.704806460755503
Ni 2.2211270207207643 6.4214930906429775 1.0178822049474683 0.11549883910096884 -0.17780618178062282 -0.005948504273951046
Ni 6.138024116864939 8.634115116688521 13.646115882491275 -0.3265244450563538 -0.7734217694765261 -1.1144680622981387
Ni 8.782633239156363 7.238435310404084 6.119784188676263 0.8097853957072247 -0.3504462459792739 0.8686364044071622
P 3.187299968597145 8.40239797122804 0.6924629696206703 0.28157127738443116 1.6901977097033922 0.8136111972112182
P 7.563670378816804 2.855753250164293 11.370896540358977 0.3775081351930724 0.3098194735968471 -1.2715784062923068
P 5.504434404726769 1.6261568328260085 9.952281012307836 -0.09415019822186364 -1.222307585081637 1.0130244157386552
P 0.5987997491533049 7.146981167443764 4.24757110402439 -0.164120199653098 1.2723957599872797 -1.9146161920259155
P 5.246100975603681 4.159988168107209 8.063326322250658 -0.7414357034882327 -4.287826428083641 -1.1656453565029021
P 6.255233863939664 3.9812629698831974 4.182392674754916 0.6567217109786044 -1.7696823354932811 -0.43785732570509106
P 6.888425627469527 6.421030359703085 5.3414309529165385 -1.077808759203892 0.4586871179662487 0.27680805166783296
P 1.638595040490314 5.8507607493797815 12.548125697229649 0.2662924968484898 0.00025711031612858946 -0.9526487428640754
