# total energy = -340870.3084496971 ev
CRYSTAL
PRIMVEC
9.22355309030300 0.00000000000000 0.00000000000000

0.00000000000000 9.22355309030300 0.00000000000000

0.00000000000000 0.00000000000000 13.49960227869212

PRIMCOORD
 96 1
Ni 2.1870058565689376 7.39937396532372 4.711941477978882 0.09755562435898682 0.11698982182419852 0.09368611410125155
Ni 6.641428504069065 8.785664745744935 5.586108317810224 1.35834156802148 1.0766394214861394 -0.04985831828302381
Ni 1.6931768331971797 2.5251320830871538 4.570830341845812 -0.10089600158612945 -0.013389276822712425 -2.3060800180681316
Ni 6.536086306162288 6.3753197787553075 1.5902392155368166 0.2780151846020567 0.3972092131664256 -1.035971768563448
Ni 4.262185357527879 5.397632392719017 9.648719049017474 -3.116882285075645 -3.0649567998509473 -3.455898434841106
Ni 7.970007513865755 1.243611640291635 3.6340521800784935 1.4741201431463966 -1.4889914038312742 2.4713014212052085
Ni 7.640339285375777 4.450890026731518 5.806570602074961 1.1148102761289058 -0.17423749059275798 -0.5829847863057702
Ni 5.049572399705258 2.870950752741194 8.542980155428467 -0.5504145656792327 -0.7934648041703302 -0.41498582042355625
Ni 3.8610345939028416 3.553253856493574 3.46365995284352 -0.038105805732785984 -1.0398068260388222 -1.3923989147165052
Ni 0.9993166176352214 4.365120208122366 11.474162553452109 -0.012049989185998602 0.38997155776740583 0.6877942640136929
Ni 0.23830709210032572 1.6598890307065433 11.36631431621679 0.9822472824567988 0.6514676616685167 0.43043995019509745
Ni 2.8977359504227698 1.053698685655391 8.773823548505401 2.2242153220818404 1.5730716194116456 -0.3476715114476141
Ni 4.754354141373919 0.9933305317897176 6.899430648720862 0.9534306153354225 0.597308402017294 0.31494316797665756
Ni 6.098096672172162 1.2762537940778256 13.321798848569127 -2.434993073692477 0.23556241475448464 -0.8351608983575358
Ni 5.3495592348965735 3.5387083135377044 11.295940452142794 -0.967617962579398 0.3514199227464528 1.226138785902269
Ni 9.312560206337233 0.6508821483728838 7.874628597823866 -1.34801241818133 -1.22576083373756 0.672898577848783
Ni 7.001414551009228 -0.07773794872584705 7.933108690406684 0.3146482624440581 -0.4756448288665099 -0.07081640859192966
Ni 4.39823276310751 8.284724363071353 4.937465648086474 0.545332523170635 -0.8216896033439784 1.580752532995671
Ni 2.6379453588596595 2.9480873258166147 12.741572804989612 0.7776052114302544 0.16694378514482217 -0.5886612678652572
Ni 7.986692921099216 5.9096502624503024 7.557765427853632 -0.15289270636839475 0.7849742502008158 0.6537220049203322
Ni 1.4530600800138218 8.969195001760088 9.610636843718684 -1.7882274454853204 -2.3250910119529955 0.02012145334022341
Ni 0.8464565197918245 5.410453131278724 9.24451436702041 -0.16310744211786748 0.8327124368170432 -0.5790707959633447
Ni 4.715264724096192 8.408015594961721 12.346263317429226 0.7066373648621249 0.8608739868529238 0.5209258121914964
Ni 8.464131690930973 7.547356648382676 9.41359684974065 0.06600613168747987 -1.0247363048589448 -0.045185338287386696
P 6.16473684202388 6.256437405161011 8.855901178880416 0.7070037470626082 2.4335614834522734 -1.1180616931866678
P 9.332852022762669 4.225235804527744 3.9643337748376943 0.04026398972636937 -0.2117606843491966 0.32229883701078044
P 8.471492086161655 3.4180734648884847 10.495630289968288 -1.6969010898654968 1.560903616590544 1.1132840692923667
P -0.12609980375470659 6.514779898915579 11.368338886082874 0.4559571206295953 -0.40475540094479967 -0.2018177142038718
P 6.29201264877597 2.864890878472325 6.055584394405582 -2.6508240714563054 -0.42794469457706946 0.5841379260736068
P 4.109498662479391 6.046287975416855 5.527371810456214 -2.232858856689451 0.683031809628043 -0.13487210142125805
P 7.751990393480281 7.575221001755968 3.316393017491207 -0.09569131745673842 -0.43582101200135265 -0.5324263566319282
P 8.514427725007295 0.33382712850189955 10.108664428379921 0.18790958876321187 -0.27679262504886526 -1.254491883123665
Ni 3.263846436502247 0.586313588507145 0.252141499126013 0.6567883025504818 1.4773970141254558 0.7659190333415777
Ni 6.636595362338643 4.369243136277897 9.528504794381437 0.9477253374205291 -1.07945992165407 -0.40197526709650133
Ni 2.181868337592134 5.127815799131157 3.967519590016488 -0.3700488507015498 -0.051426176990775944 0.1749607419120277
Ni 2.2987584237555687 0.43399860264135864 11.569523022388156 0.048553740538987346 -0.17693612047084364 0.5689792160552976
Ni -0.2998752302009761 4.761373265146537 1.8553047570152488 0.47954724924470954 -1.6057104884925895 0.4903677368989812
Ni 3.359411668313132 3.0475633440658565 10.156114996380222 -1.3826220378353995 -0.23210556655413572 1.3294901910074266
Ni 3.7274406534001043 4.416412385914117 0.9831560305629454 -0.31756569320116923 -0.6688624601061965 0.6816740100485679
Ni 6.721867109090079 2.143332333489646 2.1315335645935467 -2.147802136128423 1.4269815377873811 -0.7588909228502028
Ni 4.356164138236412 6.464179487592878 0.10407488173547944 -0.8891993161601783 -0.603694765159612 -0.22599148323659787
Ni 1.9923888899431608 8.281514566654968 1.3430996491596738 1.3835100968673075 -1.092976725193582 1.1089913554542836
Ni 0.811162594540946 2.852420634923602 9.295286336427436 2.199787013836147 -1.6449596638011994 -0.3951327902533711
Ni 8.01259265770041 0.0038904946219314074 12.330131323371004 0.42342700921237403 0.0044780903760116425 0.7850801796510608
Ni 6.0785704106391405 4.2747017188412055 0.13105654109426546 -0.15977889196526676 0.14674648426134082 0.162552598055662
Ni 1.5124044195053028 5.922009823363978 0.31708176817445416 1.2656553559396524 -0.9519866838000443 0.32465808127157636
Ni 2.35896055366867 1.9679925924680337 2.1416582586345476 0.9405776706321544 0.8358838925664894 -1.1644500506432205
Ni 8.173174714048978 2.0068237502639823 5.920412303998121 0.9392332407891179 -0.3830794586332628 -0.3440208020689043
Ni 6.25966564868324 -0.24184616935598025 3.2113930133977857 -1.3738149810667306 -0.30840639529940433 0.25749418183056944
Ni 5.3053322986420435 5.119413142420442 7.19650284118925 -0.2762886888292532 -2.1866103672448727 1.5440659762079152
Ni 2.34680391091925 6.500169791089266 10.867814485646013 -0.6589439154409038 0.24483998340166868 0.2542139684174009
Ni 7.301696539894006 8.634961114574386 1.1398973994753532 -0.34725113608074387 0.19604301650362366 -0.4434047378858815
Ni 0.10529700249746596 2.3637844718461714 2.2092770474511463 -0.3100305611663886 0.6690601779392994 0.3257582563142906
Ni 8.377135139783375 5.859870747337538 0.08413909445278019 -0.7416092529516196 0.2647117826249312 -2.0005357748078705
Ni 0.8705733436134556 1.2395901712182305 13.688866739441767 0.3466304717776095 -0.4012856972286444 -0.4304299228927683
Ni 8.132406610139691 3.245168741837925 12.798311490781009 0.37851240808787073 0.733986189188723 0.12343840566301967
P 9.031546219503701 3.9829515164080322 7.881134892054096 -0.9489728366743849 0.8824712534077254 -1.7439214244790935
P 2.5883872090169913 7.225869711333317 8.759689376009792 0.22231917659133324 -0.04871263471435482 -0.5223445469158939
P 8.587155439786644 7.973521687528524 6.5806775727571845 -0.5654835441972133 0.86027851936077 0.5897074497415844
P 6.389809980393653 6.899651091635665 12.946766419749503 0.34769130894195605 0.8476662299133981 -0.2073394153530494
P 4.526412478045824 1.6139649607146123 2.313426639965283 0.11136553365888562 -0.6648132297374874 -0.5791592419120929
P 5.496084596594067 0.6668536526102864 9.238412064408106 -1.9684538066716615 1.1399770052025204 -0.9966601154480189
P 2.689615702321157 3.1162972604305623 8.074624740512968 0.8728039055212903 0.6818493592841677 -0.6231235633081849
P 0.9700871784296723 3.5878329563931017 13.844651625916303 -0.7623076618412356 0.5479941291631981 0.7920211297452683
Ni 1.1357329653316781 6.714128548189652 6.826505549909011 -0.09211234185622846 -0.014451913759271885 0.9375936483031659
Ni 0.9786281884341969 4.267258311634238 6.074402287074297 -0.10906491055016701 0.2446003565870368 0.04202699516406311
Ni 4.706852843832557 8.472847948440991 1.4445522747998114 0.5100713859754957 -0.13557272703270845 0.24234729888680195
Ni 6.571246489895818 8.73444635637655 10.63039654404724 -0.9276879591536797 -0.8418167131111567 -0.20273379826023796
Ni 3.98997986373357 8.370946135773616 10.176917797637461 -0.2175634070739027 0.40188990647154654 -1.8075143187393903
Ni 7.151906040462602 5.231313286453804 11.632242259893305 1.3584420981550862 -0.03980890446682176 0.04254352978916544
Ni 3.5259982576130446 3.519477205698143 6.0018959375650445 0.19682077520991265 -0.4597104170244405 0.16484267964141933
Ni 0.4451840052682345 9.567683680122494 5.272215131880439 0.12586526993695743 -2.2880229034561044 -1.2432553909778974
Ni 5.226470921170461 1.4823264134310534 4.501469223882502 0.6118058243025206 1.2020282660073105 -0.014930910278219444
Ni 0.4171831433117163 6.918872975922305 2.476501822668303 0.4036277150982597 0.12443213703485666 0.7574356784609149
Ni 5.410582261019615 4.621267496281818 4.657470863850673 0.8262648814194866 -1.3675823698934575 0.16186611351159866
Ni 4.843896393127618 6.571836797282739 3.0888710258210006 -0.8346101680603883 0.10008301876653086 1.224065448313008
Ni 9.073928445174102 6.628533977085993 4.853835693754914 -0.4627851992950224 -0.2471128385962454 0.17389270565882953
Ni 7.433593346659342 2.507247613974007 8.123763218697748 0.041043548204871244 -0.21754849467556728 0.25941402456110163
Ni 1.5011978027067097 1.7322385798161448 6.645894548393246 2.0447656911605234 2.1808834920634244 1.4891942638706999
Ni 2.485922759621458 8.70917382137396 7.053947296668808 -0.08822046300099 -0.051687658182278724 -0.7570829231071865
Ni 3.2063744782536587 9.236465894741848 3.2360973775404624 0.33598790446209875 0.23745500379150716 0.4699104974858939
Ni 4.833381542798074 7.947465150527679 7.648348096376781 0.07908867590305088 -1.301218597756243 0.7066183386987314
Ni 6.915902991881855 2.0002104628198745 10.902886123271506 0.25830279377479387 -1.529335869086592 -0.869852021981818
Ni 7.374276677826623 5.393306546399232 3.5370849682236694 0.07350141162326052 -0.08275866855547037 0.8732150249167799
Ni 5.402659229060773 6.518709132459778 10.827706788125848 2.5077056708658554 3.0690443396567595 3.822353397543811
Ni 2.943125054345303 5.330844646020569 7.628341287736592 -0.3969503030780841 -0.03523825437700383 -0.6580070054489313
Ni 6.139833249138117 6.541251495797853 5.8161012993078725 2.391983145789855 2.1623944321203017 -1.2773289356228388
Ni 0.09637782682319455 7.901393503689018 0.3218457332579714 -0.22407986803618185 0.632447154701956 -1.8439085410977085
P 1.069729220631486 0.2957218643208061 2.882705248583274 -1.017172376468758 0.8390010980392325 0.8475045075245534
P 3.2860198577234967 1.0103479869283223 5.359990150894541 -1.5914084700476208 -0.106987459195848 0.029168908254472343
P 7.998877234507399 1.5063722158951958 0.5503786263282812 1.1926295984012298 -1.0932937422133686 0.3897861812294771
P 2.944111974507813 6.126514438720694 2.172207588263042 -0.8886200466179406 0.3105347544963168 -0.5297428962624942
P 5.833565174407837 4.3984541283776055 2.264517828248229 -0.8757611883774014 -0.5113104005889195 0.7612365402642438
P 2.4582152066478167 7.6282564310497225 12.731542191188403 0.6637819602594955 1.5097648889331998 0.08906275639662727
P 3.705590056531078 4.925663189769207 11.699255061283015 -0.5714744716733255 -0.7094298400055976 1.202827364869838
P 4.142961712475519 1.4577917626621166 12.038053684809148 1.3972426159620517 0.651194096292156 -0.6705722437084517
