# total energy = -340896.5471619661 ev
CRYSTAL
PRIMVEC
9.03260753488532 0.00000000000000 0.00000000000000

0.00000000000000 9.03260753488532 0.00000000000000

0.00000000000000 0.00000000000000 13.22013415727225

PRIMCOORD
 96 1
Ni 6.237566303921274 1.986017424059248 11.216609502065817 0.4825780656512334 -0.47235638792322526 0.7937111158531814
Ni 4.41981732055843 0.4414072582339368 5.863287576342098 1.0296525112136397 -0.45348423360907064 0.4845418742458235
Ni 2.7072620813767188 1.568990979348728 4.620634761525889 0.07065211509992349 0.3265920650694956 0.05754771650748153
Ni 3.5159514096041624 4.264709388643746 4.860184022435706 -1.0959208954235709 0.5459848120426533 0.16599736207115284
Ni 4.944241465622175 4.457465227629267 2.7430592072194324 0.7296448815008919 0.29850070614991814 -0.2005146791217321
Ni 7.433889972826488 6.216258383388619 2.754058213083194 -0.8499318860191232 -0.02382512744405574 -0.29100028400781497
Ni 5.038279939833902 4.341712365558065 11.77553007752645 0.9457520157442423 1.051566794788228 -0.7249940129924417
Ni 5.628596954878875 7.9943632534755755 12.294447041942142 0.003992408988844737 -0.8622189309165925 0.16004217292898243
Ni 1.9154817939450057 6.397362159005287 0.3495826760622919 -0.08301937841602477 0.3071306139107743 0.5079520256396478
Ni 2.926528622678195 1.588356889319907 0.3401743123374878 -0.8961824323462306 -0.5104722209583402 -0.45440803097492066
Ni 0.5420937313909937 0.20427692954906457 4.801460332838866 0.008991404865332902 -0.8281518140295543 -0.15684089238286536
Ni 8.565332423763895 2.4897207680624134 1.3108526126923223 0.37449891605310337 -0.30491766541985554 0.7046061933647091
Ni 6.843789740355819 0.737886332938226 4.736747121366145 -0.6293952552495096 -0.7378865526843937 0.14045808014946778
Ni 1.005943405629777 7.156941201545557 2.723916402647642 0.37465035402930313 1.733607444147595 -1.2813092604268255
Ni 7.500640940497668 4.0419020652953 3.740094655566758 0.5502428159880588 -0.8376972916261444 0.1481346228581191
Ni 7.649570569044681 3.8265466429385624 12.552094034763458 -1.1838611081799806 0.6417578905799205 0.12794606372538608
Ni 7.94784532607279 8.788076518861502 7.130887549157093 1.2467580048145173 -0.5097371425645285 -0.974041863827871
Ni 6.996639520454835 0.6971574035300906 0.39011650115355345 -0.8032769051647456 -0.04932095772231506 0.3137676596113177
Ni 1.8287597316160469 6.39402912692536 9.047700749412616 1.1009499732070458 1.562874881384302 1.5289885130495022
Ni 9.15536039537646 4.920377317234183 1.5258015677222396 -0.27528827258919686 -0.543968810053889 -0.3601868703058055
Ni 6.502275892361277 1.7187245099421196 6.99596297817086 -0.2801664266171046 0.7171135818031005 -0.14302455532506336
Ni 3.3753408123460744 4.179540934763967 0.1957438254680139 -0.41704141740100437 -0.36319840343861964 0.9866448973038622
Ni 5.939092829533386 5.584653320545952 4.940839785727052 0.6223648307652895 0.7187156361828978 -0.5297498382410296
Ni 5.369035952578598 2.8819075428005725 9.04512284329985 -1.06877878779114 -0.16968843776949488 -0.5932260044178042
P 0.09031613675877789 5.649660995015436 12.580371515059994 -0.2621663904952582 0.32579322331728405 -0.4252272956459064
P 4.077933135666117 6.184129399355278 12.715560741439024 0.010287497968937121 -0.22133444408056072 -0.8120842190437305
P 2.328615184925312 8.351178338173092 1.3903214913893518 0.5102421072254051 0.11146220713774997 -0.7941623444579871
P 6.365775131407707 7.881410499655804 5.926889777121509 -0.5239052065347944 -0.3599413299539027 -1.2227755258569908
P 4.7076594161981475 0.875871151265054 12.43530693916068 0.4039467890005753 1.7006626137904584 -0.10445183725818785
P 4.035868283643832 6.116321616634365 8.083357919791824 -0.6047849128999971 0.7815423417011315 0.4497162819262061
P 4.723583902802247 0.9061059975554117 3.635166470039148 -0.20806060978979007 0.2297956874740365 0.7000676820644073
P 0.3230846193965035 5.555785107734438 3.7080225769591717 -1.1097066363537533 -2.2639504358879337 0.5376061010606548
Ni 1.4852316122019271 0.9045523891062311 2.5175104875667644 -0.7780451271811504 0.8274671292577039 -0.13664616260254533
Ni 1.889467885028497 6.387914051808528 4.919700774950209 0.9822552528765987 -0.24027036175311525 -0.4890166221877256
Ni 5.843545909908792 5.547529304696352 9.168546195458514 0.5327220334954761 0.6209119003688467 0.17093285169955721
Ni 8.556588859933623 2.547068791573148 10.20452843980105 0.3155406923513404 -0.2730598974793104 0.21439220843477272
Ni 2.301029602345097 5.197804816700035 7.109906609007347 0.3398910961712469 -0.7115188613241423 -1.7896621210493175
Ni 0.6050428746653138 -0.02452714176107227 9.136566249445009 0.15911169069491307 -0.25068178689442633 0.049470595926301895
Ni 1.5530664927446292 1.2301327178894124 11.476993374887723 -1.0580089508691455 -0.35046372948077065 -0.45607924802975647
Ni 3.9989249199394843 6.734404866404804 1.6944249898840666 0.15696687643776838 0.8638641798294994 0.11172008878482695
Ni 5.637638594748814 8.048694386160575 7.9968192193902965 -0.9284266370919171 -0.06855203803778516 0.2838464465718531
Ni 5.178827308841152 2.76753666964056 4.877436302307419 0.3601267064918314 -0.7589372027071057 -0.043503836819905724
Ni 0.8885547383833046 7.187950142278327 6.851466553268368 -0.7880451758166558 1.1138250293975012 0.7458428314169929
Ni 5.130069294837223 4.589124511090041 6.925499608914719 -0.3936837165116704 -0.40941809652779165 0.9107906691777089
Ni 8.419022251323057 7.072468258425006 9.439333825325575 -1.132172421556437 -0.14329940625300483 -0.021571298412872527
Ni 4.575142035047418 0.3237458062481315 10.127613982437905 0.45233983559198226 -0.3347488898486751 0.23314326379003075
Ni 8.237015214980122 7.2138285620858955 4.920811785643518 -0.15464054229743693 -0.1929751762115773 -0.15341129787602611
Ni 7.3657479836368545 6.384192617616304 7.173059889205804 -0.09793614762685714 -1.2075761924087332 0.23523614176331745
Ni 2.45734790363298 4.902700504821126 2.4618398192247093 -0.04721342446100901 0.38793575828429966 0.6872895564631325
Ni 2.3589286148988546 5.344783402078311 11.39325658925908 0.9970290687516635 0.08020324912346832 0.29620856768163184
Ni 1.0409266935581238 3.2034954591736504 3.6012571591143336 -0.7802308219785595 0.36587389338825377 0.04248490863708813
Ni 3.6885193713576 2.481591421526004 2.455838554959387 0.21123257975986848 0.10886642138611574 0.5157314124747504
Ni 1.081320513236814 3.471592275337157 8.244339756209428 -0.6719516405544814 -1.0274652737543337 -0.131906848145347
Ni 3.4172701752594192 2.8601028288684707 7.201257882558428 0.41597492380970297 -0.22959462720682394 -0.40012047327594963
Ni 4.102266979631769 6.9587116025588545 5.963932499505747 0.2984865650825311 0.22258014356220376 0.39687805507925195
Ni 0.9014000091715569 7.518155165979999 11.4259763058074 -0.05780302705139721 -0.8631355291935908 0.1657849889500306
P 0.15923402691227473 5.460427872862359 8.1367803721862 -0.5350295985827301 0.4032865297087571 -0.7317475296661915
P 8.64573166100898 1.5949958556579742 8.046090285486747 0.28756143352959507 1.6133350949173828 -0.3608880101378881
P 1.7723330340461056 3.2590008308027985 10.385988100143868 -0.5203725107911876 -0.31137421967847667 0.055930235508716585
P 4.030683567075055 6.13510040713347 3.867576358168545 -0.5773471284040186 -0.17830471868359613 -0.3954516070453705
P 6.717667445147065 3.9224819646754514 10.324236680592579 0.9350999353470348 0.9915824438147954 0.8839864045006711
P 6.385132008771623 7.716393797573963 10.102654178788951 -0.076311627378546 -0.2733265208771357 0.5114695518746031
P 2.382151448171197 8.557374696765477 5.842082627532238 -0.45748049925265727 -0.27571533282428645 -0.35522849785926564
P 6.806205061535822 4.023945242057099 1.597930549757618 0.6115132327627661 -0.03213133331690596 -0.13826518626320705
Ni 5.404796044731534 2.6557220243358857 0.46573839241740894 -0.5137064116249217 0.46505008406979914 -0.7309947106605669
Ni 1.4282087625526494 1.334712244776683 6.794394927539872 0.06322779761139434 -0.4882126382291914 1.0932168662288462
Ni 7.114840219094222 0.6532426735404091 9.167131689161181 -1.0611456967259145 -0.1758158908234714 1.5782184537199078
Ni 2.4765331614589052 1.4672657563564633 9.159754758809754 0.7607745130261608 0.9147198290287859 0.07551150007475382
Ni 6.255243116334332 2.049796663941008 2.603308514172751 1.285957043611482 -0.022630335805006188 0.1427749012081025
Ni 4.0204947860827565 6.817360331505228 10.37935184358798 0.4881195642947529 0.39651244420971715 -0.03856037677170133
Ni 8.09945763897682 7.336220390495165 0.5092818822485944 0.958730430281781 -0.6523467218393604 -0.6778682631492325
Ni 7.6162854112817175 3.849399139313135 8.182852992050934 -0.2616200310734849 -0.08977855151672925 -0.6002469158203275
Ni 3.1021044426501048 8.407939242211754 12.381131167320598 0.10146370116414138 -0.8089862968446971 0.7011094930653602
Ni 0.25115796776380905 4.9773369386326225 10.424895152667121 -1.0716833630324445 -0.34605814421390724 -0.5082219914715828
Ni 8.59116568053515 2.3775990141108077 5.511051120266031 0.022510265287374136 0.37869572774327037 0.9268973449315843
Ni 3.6041096564878865 2.5531748340827174 11.292268427019449 0.6991824512459764 -0.12258402808252437 -0.11481646832196354
Ni 1.0061511555968186 3.5896032892240277 12.402164496592466 0.2735190965039161 -0.8137338388320114 1.430352254031827
Ni 3.103224485950676 8.48213307826738 7.975336969537474 -0.16591097300493363 -1.2008051922334866 -0.08507240429031156
Ni 5.549137108789108 7.80186032749341 3.659782131351394 0.2728223275472076 0.22645531024689386 0.1891851130415258
Ni 3.073091708122387 8.260978722048003 3.6462847063187764 0.25970918720401726 0.12697907182642645 0.04317139318115146
Ni 3.2356154105997286 4.337575431431759 9.28000495603704 1.4929832985994869 -0.1211210703837527 -0.017800004295898376
Ni 7.124342521934557 6.097073130557601 11.534091195177282 0.1691233092946442 -0.34528758459646985 -0.4792595428009617
Ni 0.4919212110897298 9.238821686483591 0.20660914874428768 0.7680767031145288 -0.13383517551631144 0.5916753721012326
Ni 4.6599943476730035 0.27101705809153004 1.4520729109406412 -0.2756793373800284 -0.5305497084345057 0.18201790586912522
Ni 6.049019659920161 5.8129434365028425 0.6668945561572187 -0.33441413221707567 0.16816223093295554 -0.99159144267586
Ni 7.9604277479897 8.717044095347813 11.501582841638909 -0.8570587268718917 0.5499983040774205 -0.6234308101359586
Ni -0.05952217207886055 4.85560449055353 5.790510956365986 -0.06667153318562066 -0.3280645358499641 0.46034753638780723
Ni 8.125923178256462 8.541802481844622 2.7241937036906063 -0.40501636791567025 1.4140218923029197 -0.06507847766688792
P 8.411055491717377 1.5830637814639783 3.4810467053590006 0.0551794733856211 0.14814542149139648 -0.9511168796005813
P 1.8062956373537702 3.0116157830926094 1.511947354702746 -0.7577053871825338 0.7661524895086224 -0.7510619137240871
P 4.54984170210466 1.1147411601087176 8.034853722051977 0.2791847794301256 0.48780897503286963 -0.032325194495266905
P 8.334188003911997 1.7747447401852403 12.296522735091106 1.0745552852636011 -0.7083337787279413 -0.09899827034278433
P 6.340194787639806 7.939463066533027 1.5276920924223178 -0.039723029621234814 -1.3150711873686192 0.3965265852771042
P 1.7383343003093907 3.2509889081608043 5.763158415053148 -0.13823099059116195 0.5975485430525581 0.4553397987605706
P 6.810902017312414 3.7269440826530267 5.937796650391192 1.125323516955404 0.18173045653569347 -0.09441527895779224
P 2.4637339569676926 8.45284033291452 10.278151415077676 -0.37674888842954474 0.37310049304368004 -1.052855174582348
