# total energy = -340894.7030240322 ev
CRYSTAL
PRIMVEC
9.05717277261875 0.00000000000000 0.00000000000000

0.00000000000000 9.05717277261875 0.00000000000000

0.00000000000000 0.00000000000000 13.25608786578502

PRIMCOORD
 96 1
Ni 6.403076945455682 2.0979672618013026 11.482144681567693 0.7804614499321268 -0.5556241349046301 -0.10218438138024982
Ni 4.642127080827645 0.3602934253644927 6.128938969939912 -0.30691772656901983 0.32000489877028115 -0.3487153793310962
Ni 2.9010305388172855 1.9289875902328637 4.869067223545522 0.4384376236885933 -1.4579641022118244 -0.4113741918128979
Ni 3.3741319562143706 4.428015517560352 4.662417864888039 -0.2140101425050056 0.2373652722911783 0.5456050601057313
Ni 5.245425356175971 4.65877416429995 2.5547395024888013 -0.4191846889962523 0.1491674349980076 0.5826132618989643
Ni 7.44475143796561 6.070588134645939 2.613132906494592 -0.19731237013435052 -0.6033558937629545 0.3448366131019803
Ni 5.073148873734889 4.591008397956215 11.705138614128398 1.0957967111408806 0.2848453201500127 -1.125759833161874
Ni 5.5878136567763725 7.8384667364101634 12.350272876020208 -0.6743286254270903 -0.014747590622819762 1.0083748327817859
Ni 1.836278370198853 6.5492687704428825 0.4176035915121292 0.8229856964475826 -0.08358784932498507 -1.0473535280378286
Ni 2.828772414800938 1.4593278984720555 0.2897606927526463 0.4507400952050302 0.45669091347182633 1.005215718327514
Ni 0.40355501089521306 -0.10240401772103752 4.766133361219953 1.148993092658202 1.0232571492102571 -0.28944348104365636
Ni 8.734465662778334 2.169908384772204 1.2854338049819234 0.39326642646859367 1.1167679140759088 0.38514713979556897
Ni 6.86541844165304 0.812966389675732 4.772205289816163 -0.8881117395229543 -0.6306520104747462 -0.3629299802685814
Ni 0.8547824504392162 7.324055554205037 2.3971111854991656 -0.6228327715406435 0.04978349918103039 1.2146336134761468
Ni 7.721864694722214 3.885581442937754 3.9181945104932905 -0.24463583781066253 -0.054815662288299136 -0.09553422305358386
Ni 7.793633731411301 3.91557879900972 12.644293157106382 0.3144209769246004 -0.7822319115689883 0.026340437666741733
Ni 7.9844049605610055 8.779054124113566 6.687471263367557 -0.45135433175026135 0.5961223521289927 0.8728285881116388
Ni 7.067103563938831 0.6628174859240878 0.4913516204420758 -1.3956503317742674 -0.5199295097164981 -0.4209479515442621
Ni 1.6872516501480896 6.489582002171669 9.298509245810383 0.40815902730971 0.14161996166805285 0.06255314014187291
Ni 0.17634949301643366 4.923225493584148 1.2282277963206478 0.06937710504224182 -1.6319599091074215 1.0032192567227756
Ni 6.466105810463175 1.861194652370948 6.98681987916905 -0.0830808277815795 0.6049996000139646 0.46642408159919024
Ni 3.455881997248659 4.318939986408575 0.30556727059588157 -0.1422485963909873 -0.2457218717859897 0.8809165073260957
Ni 5.7476999269268605 5.574372812449441 4.8348800193700265 0.2948499967712083 0.5009694236742275 0.40527322112148273
Ni 5.397486229090294 2.8666766826636123 9.34285135204744 0.11916394665738188 -0.842497027007633 -0.18124040427315238
P 0.302671692475046 5.578131539131164 12.392506472446408 0.4802242207070762 -0.6661136937164657 -0.766215481536074
P 3.9796492388808216 6.188123065124774 12.619583378472464 -0.13936510419560513 1.0568074743618767 0.0203713645675004
P 2.5675816676984757 8.578555491455019 1.4207606455657618 -1.0577240726388752 -0.45057065950670144 -1.096103700858338
P 6.215086268333181 7.7200532601768055 5.8170896443405535 0.11824400594627378 0.4451111790540269 -0.5981586658327311
P 4.921885032020546 1.0441289863189562 12.75071312521459 -0.21898599845304223 -0.19448441376725215 -0.18453578719497252
P 4.011802202061824 6.063505425573392 8.06206115952267 -0.6119400358875396 -0.5961781450675926 0.7560436832093947
P 4.73806971152521 1.1528603449071062 3.8226449610920787 0.6592146526037873 -0.15711857152428424 -0.1624852351528363
P 0.29958953659603327 5.486581637206214 3.6842640418646813 -0.040373004500407886 0.4814622068792354 -1.8277432441917552
Ni 1.5871427199960846 1.1884278622062034 2.570328708186588 -0.03985724120625394 0.3302692568107667 0.058427033788641315
Ni 1.7338236323105438 6.763878478210162 4.75868383665196 0.3149951042605156 -0.8014822751581681 0.1562775636802276
Ni 5.975288563211994 5.651893153820201 9.198028065859296 -0.607108161716535 -0.30529767446709355 1.2548508091249808
Ni 8.658131811034817 2.2060646182985595 10.152135095292355 -0.08687680448890198 0.2574651283648469 0.2748344728812299
Ni 2.2310533578524705 5.414513713817135 6.928851256564158 0.09312484228114284 -1.0934927455980523 0.4461586464819348
Ni 0.3548908218328117 -0.021978135339442234 9.004900160366017 1.472259435788574 -0.8549385952050953 0.7538119656653985
Ni 1.428542568372837 1.1362404329529825 11.49305495183469 0.3123977758469846 -0.5702449701415986 -0.85521987389094
Ni 3.865474519483719 6.6715043735670525 1.580072690965355 1.9943566425803523 1.2916636070779561 0.1664061674737973
Ni 5.579046313576595 7.606947287161494 7.984990053919173 -0.5385226993376532 1.6962583140751755 -0.1185355690447636
Ni 5.3376545460554485 3.057565655058768 4.8416267073344 0.4101680873199387 -0.34013457964062066 0.3063615969552337
Ni 0.8644011678753357 7.498668787209697 7.003655351834078 -0.5468615582206517 -0.5761009147017434 0.439288915945295
Ni 5.275766884811564 4.301006784409029 7.289058638787743 -0.49093697913888995 0.9402100028800904 -0.6127411916325963
Ni 7.980483204770196 7.1500763232912705 9.185169597738716 0.7477122805255639 -0.2581716675135683 0.1297581772334604
Ni 4.558601833938856 0.5220907589603866 10.51776410111035 0.31417312257985247 -0.546592106609349 -0.5369892934122623
Ni 8.085510179712985 7.176305895508786 4.6137944331029095 -0.9119841752651778 -0.23230868370387733 0.4498528075040704
Ni 7.391132975421517 6.270579565631772 6.937520782298483 -0.35916074303413625 -0.7479922736598279 0.3413923633071217
Ni 2.3233912338046725 5.222592223731096 2.4983350536138693 -0.6533042006566233 -0.9355259671408598 0.6083088668928556
Ni 2.321099769104731 5.174036720741419 11.389219900822779 -0.48784188515333404 0.298320471818312 0.4227356395723042
Ni 1.1728042392520543 3.414092202286083 3.817925268384017 -0.3638908015199539 -0.0888930635879824 -0.13452680226669736
Ni 3.8543432542021834 2.7380467155941495 2.454218470977716 0.2324791478434706 -0.43585726455592677 0.476952749044656
Ni 0.815189925580221 3.3567874704420833 8.135313761104449 0.6772036329820402 -0.220539201872775 -0.2308040741338928
Ni 3.664767571852449 2.734976334039682 7.212080822063334 -0.5126658861755493 -1.2082976439557898 -0.7541438950835205
Ni 3.938321359727325 7.092545162129094 6.0117681378047045 0.3150773795616767 -0.5407965829734944 -0.33089583465117206
Ni 0.8340261277006521 7.597808599879907 11.715571571392678 0.005854916118880239 -0.2786708159081846 -1.5261361312023718
P 0.12535398769409145 5.540671072732114 8.151831327006757 0.2173957711477869 0.4385299262920835 -0.99712625645116
P 8.35710761827882 1.514947996188826 8.074667838241442 0.9079442008678493 1.7494528958202837 -1.8510065855950704
P 1.9152478592059399 3.257638600599145 10.477585577175915 -1.4787794962952792 -1.136818919189513 -0.2645307769623767
P 3.7373970399506056 6.413882152519045 3.836881930901717 0.5643615147776281 -1.361558532296881 -0.4063433142572099
P 6.951189867378137 4.024210528697872 10.495732528451818 -0.3858076561977033 -0.1853359144987647 -0.2721337861206152
P 6.182987648188541 7.705416869049904 10.262756685828638 -0.23236987595911596 -0.760361079637826 0.22241302185672018
P 2.3113451940777057 8.661718451434727 5.796091495090178 0.645219880986592 0.5070215434055784 0.41438752471792506
P 7.046715868130257 3.999393875425775 1.5431946007726545 0.8824193171238675 -0.11807534157889342 0.5409325943307265
Ni 5.544692457422921 3.028854417514042 0.32892028475528895 -0.5565317343205641 -0.3704507141256587 0.5202318714482653
Ni 1.4468561716269177 1.1820968984700004 6.972463354679414 -0.3298987608452254 0.20767391587433265 0.09584044144009302
Ni 7.004527557567692 0.44619527437685813 9.26456024527761 -2.002030614185842 0.04041311370972395 0.36079622175503023
Ni 2.5747549484982932 1.5813914153144124 9.179072309058869 0.29007802930386173 -0.5210512820257671 0.31576360699542394
Ni 6.540909000015821 2.0737030960655547 2.6422562453983987 -0.22378804782737588 -0.019704163297146714 -0.28808182480943934
Ni 3.915352369691544 6.822985587426844 10.451099686970224 0.655551087709271 0.6214387194065943 -0.6395277156978212
Ni 8.223604892282209 6.898884694879464 0.4616893797610104 -0.12284962303908518 1.6486635950153479 -0.6422453717393004
Ni 7.485128313982767 3.9592253143813396 8.23912254631545 0.6036366582281668 -0.6145432778383416 0.2789824336113324
Ni 3.1065287308211613 8.622247292690274 12.263922696957852 0.5148076151089005 -1.6705452255797875 0.09669224791742702
Ni 0.06068939729209617 4.579768446601955 10.130408749354725 0.3717712327092952 0.7443837303729631 1.212852096095692
Ni 8.641294526935244 2.2337161666342213 5.655510588607381 0.14493565630484714 1.0129164294058814 1.006237474723809
Ni 3.7295172996780783 2.733164899494273 11.552415661887729 -0.23819291039879623 -0.7874615353990438 -0.15467962306548846
Ni 1.252117900822769 3.146996178565589 12.743064342846603 -0.709454779706262 1.109898183539269 -0.3471832589572859
Ni 3.008774665578188 8.3102458065891 8.053723126310157 0.6786339376706635 0.17644941064241224 -0.023436119535753187
Ni 5.4591565181887285 7.836836445319296 3.6608277017161854 0.1886107285952945 0.5374040123521777 0.19927849272178583
Ni 2.8599834320183275 8.506704940211387 3.56220233645687 1.5957220098213099 0.2510114023197032 0.8394888363089285
Ni 3.3795662598505958 4.0315015527431415 9.180649162830647 0.2327977075251539 1.994609896241739 -0.2009615368511636
Ni 7.442985289283837 5.962635692912315 11.417839660922962 -0.7100631027142222 1.2542121470997174 -0.15519795746280368
Ni 0.5719658920163936 -0.24906500425549735 13.738741983662244 0.20760295342708118 1.556556909586074 -0.18061639753590827
Ni 4.663800895163458 0.23082295266596028 1.6271319490205245 0.5008735215263116 -0.018773166842445087 0.07747042357333755
Ni 6.141451454062322 5.783901446316851 0.5280150556411454 -1.2190548824722942 -0.22803011093318148 -0.8740807153511849
Ni 7.714646128058761 8.654255341107643 11.582785267758776 0.7577442108402692 0.4399085518071649 -0.30012847156132827
Ni 9.108526896405206 5.189234656577397 5.739780335094333 0.15141560760223602 -1.7938116244413171 1.0445890779188138
Ni 7.991197840106288 8.87454389617478 2.6902963952599066 -0.016092534686488413 -0.4788851901806785 -0.5026408978393795
P 8.768113059459298 1.6236340689133404 3.582152570822727 -1.3156471144767472 0.6364596182954587 -0.1654044656821603
P 1.9583781157321178 3.123963788320719 1.559539174675876 -0.8665430122132431 0.80830803983075 0.10620198718007516
P 4.834356514786403 0.8936648929564113 8.313462914341747 -0.3053457540962096 0.799936527937603 -0.2740016925672894
P 8.566301136755328 1.5774787166963298 12.327710553039871 -0.7661190651675258 -0.2840130540567044 0.8918596366011609
P 6.3946447176468055 7.721103892213143 1.5930235422477534 -0.25941119634762416 0.4388878238521345 -0.6745435696513737
P 1.7294852465742905 3.2809879918894613 6.078857333345729 0.32431972409555115 0.6428225843990091 0.059747552372277746
P 7.042160110248554 4.103243417914048 6.108126492730441 -0.0843200995053193 -0.475699079143213 -1.6893713571473548
P 2.2284267777616282 8.491434546993592 10.133921120938272 0.2093890987932265 0.45188732143559596 0.8743805059797909
