# total energy = -381171.6130507876 ev
CRYSTAL
PRIMVEC
9.20547456507965 0.00000000000000 0.00000000000000

0.00000000000000 9.20547456507965 0.00000000000000

0.00000000000000 0.00000000000000 13.47314252961910

PRIMCOORD
 96 1
Ni 5.657380932886646 1.0365364444284129 12.985118252830546 -0.5896557705680425 0.16007482593913078 -0.7385933489434312
Ni 5.049092374170971 2.939648655012754 6.673274100435568 -1.031450997874959 -0.0745103125037491 -0.1768499885149406
Ni 7.261803107837163 0.217053124886716 8.18594438910489 -0.5970538628043266 -0.5663068114294569 -1.018268437746414
Ni 1.77177770389997 5.3249160107998215 8.17036964656201 -1.3386219781053654 0.11252253008146426 -0.5524254254616744
Ni 3.3352815440770907 7.729993548011489 9.778564225019867 -0.599193791965465 -1.5374443571263394 0.5017911482445745
Ni 0.13151309289238078 6.3228723110133185 9.955278039488023 0.08861641288782802 1.2770828810503039 -1.0270454126080957
Ni 2.4702338867113505 8.640764797912539 6.319887896135133 -0.7145368222148597 0.24028347437923778 -0.812165465903627
Ni 6.835138563762451 2.60480872046889 0.5146753254623377 1.4110934058022149 0.37657199653204826 0.7221737699348272
Ni 1.0022092294970313 1.065073415811433 5.342289503087296 -1.1878661155743155 -0.43757501857798187 -0.23310469724261143
Ni 4.167263136537087 4.120434887045014 10.595265650125452 0.22898424731633468 1.4507331316810241 1.5668886305293854
Ni 6.490227839962773 7.006010584024264 5.739155005205887 -1.0584702067762803 0.27909890458453873 -0.10463258581042625
Ni 7.552917037842528 4.7117025231519145 3.2572936834771524 1.4535466898704195 0.25634669848968755 -0.7327410039277122
Ni 4.87960117510511 5.113447847377 2.9940695799876376 -0.5996463061218512 -0.008206961290824575 -0.32461771495194414
Ni 7.584105185921777 2.4135649848294554 6.874523266460875 -0.49461879886585136 -0.09181280833793865 0.517399801316109
Ni 7.224511730071803 6.922783887806881 3.397104591209744 -1.9494222439615072 -0.4931656113590926 -0.2969603582459918
Ni 5.581822397044121 9.109452333717408 4.349844520540578 -0.9015154145233701 -2.9946003616145718 -2.1558170360131
Ni 1.7036387806170294 5.9984713847108555 5.939863809869844 0.12761567696916087 0.6107334171739482 0.5477390757295986
Ni 0.9330484985290859 2.761154501749282 12.920554735897657 -1.8687423123119364 0.09734582234102589 0.0866063244363347
Ni 0.7246586458257764 3.4099287379302874 6.70725334842557 -0.4558679033498988 -0.6573657723205065 -0.6525056160147278
Ni 5.179128908931146 0.12121861060282224 6.460964556630682 -0.1391211065055991 0.4120354795459807 1.1561988663780216
Ni 1.2427666927812526 5.400005067435723 13.176801089610294 -1.5460066448740535 0.12711816850745203 0.12205643771382849
Ni 3.3927605277272774 8.318425897929366 0.24288000453581327 1.1721348208819877 0.4222959809317243 -1.4161489659482513
Ni 3.273393138074496 5.34298635751752 0.8552318597574456 0.8807414152008121 0.8103795776477979 0.40052130825879406
Ni 8.1945386202285 0.48165712902471935 0.8373677156716749 0.36537561359559656 -0.6982270293112426 -0.5291862524280758
P 8.898113046939544 7.823088513042611 2.390943451449896 1.6557438989008966 -0.011335479617477252 -1.1709012055852028
Ni 7.285820191172098 5.412404841775377 10.659546558986902 -1.262223447439968 -0.6176897938871233 -1.9466943035073825
P 3.068829080631439 3.5228891172338495 3.533561023983635 2.1606363117786147 -0.8503180657139485 -0.27446911912201116
Ni 3.887168159675423 0.6472001000176197 2.420719479719418 0.6549062550364204 0.034556397818630805 -0.7587461697422223
P 1.0878293491207318 7.795057842764774 8.36629620715065 0.016603412884635925 0.21278989694465936 0.2567737587247771
P 0.13110068762852295 5.220930969269951 4.793111138127959 -0.6914007504180286 -0.5985867545090853 -0.9019638149146981
P 1.0453644946078697 3.2717821800125506 8.832803886560843 0.7283577872583521 -0.1921565369650239 0.3617079349360222
Ni 1.9386361372188814 0.5644382802695413 9.600503649611925 0.6061236863160787 -1.1438976804131655 -0.8028930394627656
Ni 6.351851145179043 4.778589501883857 1.1597710539773258 -0.8418365106054985 0.4756533135069421 0.007503250355580626
Ni 7.8167183245919505 6.713920873707092 8.058609661151461 0.3500258706124036 1.4110759223007183 0.339835303232647
Ni 0.6800627239338275 9.127043995753844 12.695283883800096 -0.6907124661017524 3.302539844579887 -0.875180376173267
Ni 9.113824934171257 3.864568719434999 10.749102019019066 0.868996101739426 0.5523143538051069 0.6822177983671799
Ni 1.1414880607954496 7.478720912246675 4.123562907327579 0.4019025048770369 0.8080650705820084 0.22058779572252335
Ni 4.2044808705053285 1.608398939994859 11.025826871615141 -0.8745962215350228 -0.1290287552666036 0.5102516203071019
Ni 1.7089319285348477 3.787021801070301 1.832535677616812 0.15935800237776426 0.14136413690350494 -1.2217925931184312
Ni 6.135688189689985 0.5755308772103606 10.289560122268725 0.8194288323342597 1.5653775932014977 -0.58491208523547
Ni 8.5900242216986 4.158343031611232 1.3485403580336128 1.5187542369160036 -0.6206491336257633 -0.1733910834320627
Ni 6.121198772607122 1.9187062846239655 4.830956685466628 0.4416409611172394 1.1102190572137978 -0.03343179729588436
Ni 7.971830572270625 6.684131957773075 0.9123711613934278 -0.28513559769692187 -0.7642961530261739 -0.261548297295285
Ni 4.1225245297882225 6.744197679797013 4.95291541623048 0.9956422157064659 1.1016218024630897 -0.6028894956494972
Ni 3.9589708618649575 3.0824900049967296 1.4001959584267356 1.756225438657427 0.6984039212087392 1.4838008607692703
Ni 2.819664498559113 3.9061958757556496 5.823523180278591 1.4481951957505188 0.061138519182533414 -0.19864882955758692
Ni 3.6896554958063636 2.911857327075548 8.93219539624551 -0.19065372716725232 -1.9038599819506763 -2.0438616912890155
Ni 5.993343935336552 5.813735919641679 12.530197504349323 -0.18666723171567853 1.2888359078211737 0.6157966906294684
Ni 0.9756422296869035 5.8860817448349545 2.4341926124020596 -2.1574540573958907 0.050089203346907286 -1.3183614280841165
Ni 8.078255064580011 1.7290366851479173 11.724288577711306 -0.3792911952354242 -0.15305828541198158 0.7235534238911733
Ni 6.2680537095340005 3.1802613511448126 10.365036729386956 0.11041936769553241 -1.0636772048985166 0.8903696823191957
Ni 8.798399345642487 7.256859767955652 5.90764925136827 0.30066763189424994 0.9610662775038095 0.29380587177741013
Ni 2.8390880500488462 3.9295777813404467 12.52503783581378 0.6766971256592668 -1.064726214988321 -0.08348783341201106
Ni 5.209948838024808 3.5360069185953993 12.589910656694562 0.24481787191448162 -0.5295472353119203 0.4249989816851842
Ni 2.60043612001504 1.63022512036555 7.126281951286663 -0.11610176279229037 0.8056425771834448 0.7787190133197234
Ni 5.537737378994675 7.342185312390883 7.9181258332227085 1.5619672819683679 0.002829499028995127 1.7954270485575532
P 1.1690400463920236 1.8206403632874124 1.380754916535187 -0.8957836542459153 -1.4089483344347542 -0.050473326159203406
Ni 3.3878540097443257 1.708950339484127 4.898592069286778 0.7380505890660838 -0.49903466854535994 -0.8348657357146202
P 2.7282817518109703 9.10007195505957 11.683558955168024 0.9803117559969826 1.3057645652557124 -0.37117396544492853
Ni 3.6954457393547253 6.024347973923008 11.938888443606546 -0.5535590248454854 0.8670991418270292 0.8191472965380989
P 4.954644204367814 6.661366818989137 1.339071606819234 0.6233223095825523 -0.6521148083342124 -0.6477663015575296
P 6.095570731210242 3.0759541180025542 2.986389452495749 0.17927402457540093 0.007115527998858713 -1.1608147678834784
P 7.198340565671181 8.808147943285912 12.099812107425253 0.44159108171591044 1.0573486915773274 1.0197095410683146
Ni 1.5739060265199634 7.345351995666934 11.843673457765902 0.9356414096728014 -2.19732158301479 -1.4201120643610574
Ni 8.118289673787997 4.683616620026238 12.668337618434814 -0.40872904088056705 -0.8857391255257197 0.42925518585837685
Ni 8.88686395692985 0.07630417928834027 10.010625955759124 0.2761066547254341 0.001808771073964627 0.22022527017678203
Ni 2.640433907324467 5.529028999985534 3.8168199224789583 -0.16931099982541808 -0.771422222547994 0.39997546305765314
Ni 8.311797956188794 1.8616415473325647 2.7889541146136634 1.7309388961764962 0.8604908924818923 -0.8786043142531512
Ni 8.216521293668064 3.056585799360659 4.673280713100802 0.17938278223912332 0.503029648637366 1.99820609823343
Ni 2.005900540411052 5.204591251784512 10.452221779699402 0.741172422524517 -0.6869519706180556 1.1941442352735434
Ni 3.0071063731723577 1.6011450259787883 0.07854939455295917 -0.33098659459276547 -1.3587920252953374 -1.3489045909782962
Ni 4.200264763120353 0.20917231804768252 8.548816835021519 -0.3302247767260764 0.8141845532161849 0.08024490099468115
Ni 7.754949589759671 5.086319313613853 6.388923432647978 -0.3301386447701734 -0.4476198044084936 -2.205925265523401
Ni 8.086190183719419 8.892875131869562 3.935262161930452 -0.17349958398546894 2.1521578419939575 0.46943484340105607
Ni 8.186152432831747 2.405031509838469 9.360129375273035 0.12148436726044239 -1.7847592844310618 -1.4269799951254845
Ni 8.510682235779164 4.597729541637987 8.279313677280276 1.351187216364886 -1.0911283591309338 2.839087958235143
Ni 6.191952050687733 4.287707566722712 8.341666959752176 -0.2736913604157222 0.6866925463090819 -0.5198274369209951
Ni 7.204011138049227 7.7204842927086945 10.221197505952038 -1.3393632271467641 -1.1208282001882115 -1.0669962419694206
Ni 1.1550661358889835 2.874317401494917 3.9839674077015554 -0.14235658272376128 0.2696678410786259 -0.0545310411683448
Ni 3.580193196865882 6.950667270490484 7.153766736918367 -1.6281783305778026 0.2680290199236223 0.38670419987004373
Ni 5.009757381035602 8.259971133967372 11.647679697212391 -0.6876695655103705 -0.7305743352936966 0.2012171045053954
Ni 1.5724791779508125 0.38329479140476846 3.0520843222618534 -1.6235775985809973 0.6456885930928945 -1.1807744988348567
Ni 8.470260996636313 7.006323570162014 12.077324973975431 0.08741982147656557 0.38991730749070264 0.9473065047155556
Ni 0.3163894017235455 0.670295715341123 7.5215300515110615 0.4617055930775984 -0.4879442150591532 1.1533940499393749
Ni 6.074214030046176 4.438355159201139 4.884930224374023 -1.018170735826285 -0.3426216077285325 1.2796730103749832
Ni 3.9476757444820656 5.319945054494391 8.60970184428839 1.5693167803549037 -0.47230290897747046 0.8692593827031416
Ni 2.0060662389545665 2.5160679449423364 10.67877219277188 -0.6034559096759284 1.084770792344022 0.3984081185705332
Ni 3.117295904609375 7.327585429612344 2.238966588433498 -0.22861709378490305 0.2553082299228442 2.202747896236684
P 5.676951771970615 1.7599670799372555 8.347069652818206 0.7040822025404391 0.6269691623065202 0.6202202736184608
Ni 1.2191822667543821 7.675579987416317 0.7855942852031643 -0.8559462105340033 -0.82999838031999 0.9803996877250987
P 5.112692998456548 6.337380139045461 10.36677472299893 0.8352876537433872 -0.040304356046001556 -0.7215718746847702
Ni 5.957451789716424 8.464645657106106 0.9262272418210801 0.10796807794156243 -1.5695890601796838 -0.8607297479655758
P 8.0622467441816 0.4389133486302749 5.834894703100992 -0.2823724331294879 0.7174478252140676 2.2225518183364885
P 4.88252851604053 5.227135459177099 6.476795211368546 -0.12480186166944957 0.2392295791934267 1.0852952973889245
P 3.185793841403263 8.693475345699369 4.128601984145342 1.043193483122868 -0.3758256052843269 0.9897474474885858
Ni 6.371615299230445 0.9310785269561935 2.2872005139030502 -1.5643596934599446 0.9869359461817196 0.9612071739570479
