# total energy = -340868.1697037701 ev
CRYSTAL
PRIMVEC
9.21675111063366 0.00000000000000 0.00000000000000

0.00000000000000 9.21675111063366 0.00000000000000

0.00000000000000 0.00000000000000 13.48964689389300

PRIMCOORD
 96 1
Ni 6.483956591587957 1.271321748944596 8.15098387095219 1.1477574204788876 0.8789066759849185 0.8958741570771926
Ni 2.2329053679228883 4.793493879769242 4.1407414624709755 2.5706352205105403 0.4298786783749887 -0.6638521513757986
Ni 4.422381405714216 6.234062825064824 12.780819592102148 -0.6423363887912098 0.619948765124629 -2.017101649586352
Ni 0.302560124383439 7.268062455682266 1.3550891109636327 -0.9153530917374106 -2.193448987433261 0.3502510992493323
Ni 4.3705371820321215 4.040098229596487 10.294610259831705 0.010317579875924167 2.8953478091691363 1.3279251605131517
Ni 0.4940381238493071 4.298812426708734 11.475332269332279 -1.83277103642365 0.9348335690595255 -0.1386271975883161
Ni 3.2014660673149304 7.701581549924218 9.360317440199667 0.16722892048540877 -0.4757512725373871 2.0323567759732093
Ni 3.6158696202383656 8.223636753088872 7.338408385074482 -0.566880938765372 0.1764895198517283 -1.463795621291937
Ni 7.831583821041719 1.905526376778357 4.356535094100061 0.8190297971236281 1.0514873477005438 -1.5281145950849813
Ni 5.323309587172177 8.86928858551164 9.407059270596356 -0.9634718016215084 0.8385611822883364 1.9077498039233856
Ni 3.3110532352402813 7.983162505961847 4.395601214366537 1.265116452717047 1.1732236830707923 0.038063639640940894
Ni 3.2910436690867124 6.308064117854786 5.8459002835627745 1.1346208830969298 -2.6424425322608296 0.7205506325091076
Ni 4.528622893071282 5.838074340393269 8.104525916482507 0.9581699297926208 0.5035680376393392 0.6320195802462341
Ni 4.3973671438345345 1.0995122958498549 12.210382898559818 0.28853870984119984 0.09378690134517396 0.7617703012805268
Ni 1.7573855399352813 0.5428076394388952 0.5484105022969121 0.6272273010639132 -0.9666406862677932 0.4921752224213653
Ni 7.49820472507638 3.5871778747588348 2.6635174989382926 -0.5137015265289153 0.0007060249280891067 0.584909771242625
Ni 7.301703596382646 7.053468845017341 10.123790685781133 1.3326855580162726 0.31321667220385413 -1.3738977705885242
Ni 6.9420014599131195 4.031250148754743 8.03951925087323 -1.11721348625376 -0.00637247918524709 -1.8951511413227686
Ni 0.36079985149895644 1.9906891548801438 10.914392515893422 0.5644430187478408 -1.2278992202368013 0.7855596903906407
Ni 6.189868504610488 5.51407789682053 2.930220775710564 -1.790480246075239 1.3917270854604613 -2.561600364001782
Ni 6.73040329328316 7.229978841059259 0.36695756275975766 0.03723291620952942 -0.048210241156639556 1.098960710691159
Ni 7.151203271315106 1.2908428273016939 12.74323736872684 2.1796208233009176 -1.076511123438391 -3.7347862518561032
Ni 8.713313510423271 0.10208104601127166 1.0500708791213467 -1.6774375818242466 0.9879785285136211 -0.8334092057737518
Ni 0.8979972546791334 8.916247931229023 6.660459214229173 -1.1194079228019174 0.463362411954731 -0.21683424221736206
P 2.693779778767233 3.4306774448704864 5.721822539908892 1.2662788484562646 -0.805193405461168 1.0874126008422431
P 6.3530787291371595 5.927532124403652 6.81946107030549 -0.012753443010926421 -0.010571604868259213 -0.2103954285705538
P 7.94233229957755 8.321832016930479 12.516179945851196 1.2139671835367416 0.30726971059179986 -0.9650620289267638
P 5.125914433643392 3.0947729591649 8.7444071411813 1.3243523555602288 -2.2040002805865457 -2.386993148774431
P 2.0914374587146276 0.7416968282848116 2.9858254337503993 0.16229265952605595 0.6521531177713156 0.5998473663890637
P 4.316849608174664 6.021607500603322 3.9291829278697863 -0.2163058805177178 0.4336635993387177 -1.0713516907246388
P 8.329675471926649 7.075248027339259 4.125174370240032 -1.0913756992550496 -0.3509879774153568 0.22211785921380459
P 1.7681783552120336 7.084529295472213 6.9981996767094214 -0.48356305527232196 -1.4586631851613783 0.7647278412469539
Ni 6.518694525642679 5.572880767414621 11.73472481930906 0.039272829457693656 -0.34514437415038624 -0.6912056036880869
Ni 0.26660465753788914 8.725857508366618 3.2964649619524558 0.6773830959826979 1.0503205810859524 0.5753133858034414
Ni 8.342919942936636 1.607604121436132 6.644014687314757 2.227737990523118 0.15782613911427013 1.807807681610093
Ni 2.2177253792287708 2.834749983428145 1.0131172381558375 2.0787983552652003 0.0015328917047586505 -0.47777884449037716
Ni 5.867890529479771 3.2275494722963223 12.098715509961568 -2.4260664606268088 -0.13266686623982313 -0.4790307146196073
Ni 3.533997222199602 1.9013604053820359 10.069697574885097 -0.5369489270926301 -1.5275034438635435 -0.8651543593958326
Ni 2.3085841093724304 7.7341627642737665 2.4432583515093893 0.31234712511470725 -0.061143661388855984 -1.5125560785250918
Ni 1.7493946169250811 3.6104225204701668 9.60099998589651 -0.49235211431886167 -1.8164985245158718 -0.6998488811853819
Ni 7.858349265587995 0.3620772931704832 10.022254349746682 0.3202530102253452 -0.5081080916015379 0.14666215207765065
Ni 7.15924027807969 8.486710473365854 2.92498658288762 -0.2819276322825854 -1.2807711285351686 -0.6038179210010375
Ni 6.196486131740042 8.007743580550317 7.591163952744867 0.2690420345691689 -1.3196446656719143 -1.9821981528409476
Ni 3.9876733506091533 0.6647185249616381 1.834713158116686 -1.1686262935080969 1.0892609669048918 0.13410257024508515
Ni 1.0943509153588373 4.866711748734675 6.32057401381989 0.24957749808665405 -0.037423434953780706 -0.8859098467756291
Ni 4.312407134252038 1.2285099411217821 7.46854245572952 -1.303807955749974 1.6429989405304029 0.8027202613303273
Ni 0.039476265680493845 2.162341923209979 13.39650039402368 1.5527308509717646 -0.3867859609505726 -0.12914162669538404
Ni 8.931289668659987 6.6568351877844085 7.696018319094971 -0.7913672982113532 1.4273276082728903 -0.5629546071277725
Ni 2.8336439733229275 0.7972968779492088 5.361136054445721 0.09353930411074214 0.6879274471574476 -0.323433721946172
Ni 4.9613309132360754 7.875842658752193 2.4558982036618557 0.09518686701649412 -0.6496892296118553 0.4988374649328892
Ni 7.357262170668098 3.616994063845337 10.362301764971399 1.224590981799175 -0.3490491085214311 -0.6371990675646445
Ni 0.11628498078753395 4.855043342124624 3.6936267390106297 -1.6275625513706742 0.23641884921750897 -0.3860521681083416
Ni 3.3466298936247942 2.6400922049097755 3.3684053892463615 -1.4477971889811518 -1.2411141762651787 1.8616136716869554
Ni 7.190789216331034 5.271603614753235 4.7856135577695635 0.8571304606500917 -0.5032834165193848 2.7788508678209562
Ni 0.3248277945018283 3.9312391849904045 1.3805983123653984 -0.739936493234887 3.843192702886665 -1.4767660654096761
Ni 6.473053175300683 2.721706533923988 0.7703424900099581 0.3450713548206057 -0.5282058907926774 0.5246811654688707
P 7.152982104234332 1.2401783477318322 2.2003776107284265 0.9171929731596268 1.2248097826782003 0.464834111404251
P 2.1451618995755926 0.9891693543526047 11.988720961647463 -0.4306294404980842 0.3615456983265451 -1.0190947903024514
P 4.1096109647094385 8.13805922119763 0.38626757752177643 0.15560907685829328 0.23923832094417508 0.3152784398288893
P 8.14561695691662 8.86865262970114 7.780760813356776 0.30782429754368923 0.009482999789770765 0.5093147103151293
P 6.066004589576948 1.3984576105394064 10.7741264709995 -0.5794186662210667 -0.4067220377528673 -0.3865375923851923
P 3.8833397306835877 4.165473691773825 13.227906665309861 0.618395047484264 -0.8255863672952233 1.5215539111483278
P 8.20531385234576 3.552135787925178 5.837145291904886 0.720121772501805 1.2835430348533508 -0.43141928338923113
P 4.8246741479855135 6.20347242890467 10.429857783873201 -0.3204149897245062 1.354586214744106 -0.3359989602056923
Ni 0.3294131280630446 2.244315705508387 2.6245997683609343 -0.22877033153331566 -3.4211522896091724 -0.47601198239794146
Ni 8.7035621879956 5.888416233682442 12.866680999920398 -0.7539009258347791 -0.012425627357862472 0.4402170841865193
Ni 2.5937780317537715 3.5689194912718607 11.63274239253217 0.6059791903184144 -1.3774268667877052 2.387626668593372
Ni 3.3178091136329884 3.804859096967493 7.845052259098011 0.2960818122957804 -1.3063042398092664 -1.472343510861948
Ni 5.72289260468569 7.928875843297397 11.592112189641897 0.035232597950048995 0.8948063779343106 0.8977317791112217
Ni 1.1536883575037837 2.424982456195749 4.658744060275094 -0.6861600708443796 0.03024671469968339 1.4986014161172125
Ni 6.030086911409993 5.004022903297491 0.41457037611430536 0.273782891688264 -1.334227962802728 1.04687658840141
Ni 1.9502184017800415 5.405753423765303 13.193724501333014 0.5503957966261553 -1.0607546319350827 1.050699818802242
Ni 1.0051327668712513 8.354440881532657 10.516393857855634 -0.07685027349083538 0.9139829508627614 -0.3080950347065726
Ni 2.2332187374526997 6.144586607552688 10.76485902799286 -0.49601053700705544 -0.6289522541748201 2.4272419689921487
Ni 1.7637174477876543 1.7887040594147046 7.253301829153044 -0.3991683937753254 1.3070462601816135 0.7970041847821564
Ni 5.890757288405154 7.525827327454199 4.897321500071671 0.013741003735176335 -1.047208774929848 0.18387835611663172
Ni 4.7685902189000835 3.433958608182633 1.9694205805568012 -0.09113943641999789 1.3390341259421197 -1.0152620468199225
Ni 2.1474845207965503 5.548382643584041 8.669580027512776 -0.8499691670149618 2.181097922067076 -2.4242862287979348
Ni 3.9167043688576646 5.96356040358113 1.4943293314849664 -0.984349416401466 -0.9592176543308449 1.4313822379582382
Ni 5.952850539062268 0.22976622595834026 0.6105793303112166 -1.1661896590421463 -1.28904802383198 1.2210616284896776
Ni 1.2703355566007766 7.484720618543597 12.742360855718454 -1.1890292826444813 1.3035138215483228 -0.18287665432499473
Ni 3.20554908795336 8.222530742983654 11.830649075734618 0.35130113778040145 0.2454313371287644 -0.13301422227691284
Ni 9.185579825351361 4.387588171154232 8.182644331889144 -0.27094207980535917 -1.6033180770010131 0.1517238828712742
Ni 7.7526700000344135 9.0888776751518 5.230488610766843 -0.095562505188358 -1.939181282959789 0.8197088254685239
Ni 6.109480003462892 2.109271871661268 5.935633648424375 -0.3632446832955228 -0.2511096184604643 0.7163191109262631
Ni 5.043194094523962 4.241585620514578 5.880028990384539 -1.1137617802597333 1.1623080645995532 0.45491530962864235
Ni 5.606918228402705 0.957915352129319 3.9368586379999995 -0.9433945712556592 -1.2245336461986782 -0.614060424664652
Ni 1.0503409299220374 6.867898782863512 4.865404813460342 0.5890592746346242 0.577609895147102 0.29768335245494537
P 7.956138992391021 5.500944026821066 1.4508788028263893 -0.30992180350266624 0.47735769779255854 0.3927540056085494
P 9.202981051006791 5.7966266117002245 9.684918502629927 0.20891575870123377 0.8033517242667391 2.287216091284093
P 1.7221222510805805 5.530511363633893 2.041131510753874 0.1750990672621049 0.25781634105667856 -0.07161653589572183
P 9.034526495231212 2.383442559993936 8.9230508150512 -0.3965096159962397 -0.3629582624033556 -0.561808152228155
P 7.894202426498812 3.563389440745771 12.669530090289848 0.26144622449978194 1.6197949916101135 -0.7295451226982339
P 5.481616500232381 3.1241559609601914 4.046489124654472 0.3469086651396606 0.5458629417528083 -0.5088686239166462
P 4.836480805858716 9.118103992182185 5.871058326756134 1.0420161749853152 0.8208511666030831 -1.1126554345694322
P 2.070635251985652 0.3196885342129152 8.868295941442208 0.6235028010244745 -0.03238201587513133 -0.18897042592755844
