# total energy = -340855.3415793082 ev
CRYSTAL
PRIMVEC
9.41660042092369 0.00000000000000 0.00000000000000
0.00000000000000 9.41660042092369 0.00000000000000
0.00000000000000 0.00000000000000 13.78214656058203
PRIMCOORD
 96 1
Ni 4.773962190331184 3.6624455039942148 2.4116412884777394 0.9716574227560942 -1.0887714288629828 -0.6209129288101114
Ni 1.4109834144998346 7.983572794299487 10.700554886313592 0.9120350831077713 1.8303742540566992 0.7301277346745813
Ni 3.9773083739263493 0.5625872618296918 6.678180545855519 -0.047187199208763894 -2.1223600419062354 -0.17892229766293702
Ni 8.927483408862013 8.284188347719754 12.089381981566385 -0.6070346281661223 -0.8038320063372673 -0.44174611923653595
Ni 5.173207217079476 2.372088741521495 5.139816893471126 0.09842157190370791 1.6399794369777885 -0.36798631174556623
Ni 7.7831027868829965 4.336438682670307 10.576957296838032 0.8375114008675835 1.787605238520289 -1.3671080013602004
Ni 1.2837651421433693 6.983426241727131 1.2187990738373373 0.4635537020299306 -0.1554337276226936 -0.05313596059303107
Ni 2.4741741072221934 4.685361396504242 8.042737295055645 1.0518200484496143 0.4584819439339782 0.004662181362359713
Ni 7.531133391493338 4.770223799944396 6.404536019502862 1.312811701910481 -0.9671502789143602 1.8150764473573644
Ni 4.60239172975866 9.096530220508443 10.49163159665473 -1.91617325210039 -1.403807413663763 0.0862178307486644
Ni 5.283616857596098 4.59730676550459 6.056660431641245 -0.4096978325517396 -0.5595764346841589 -2.089235234327808
Ni 2.67099047365613 6.720590089394514 12.7652029223938 1.6087973549480294 -0.7171521483505198 -0.6361536570192657
Ni 4.8301322121377215 7.236064215750196 0.9388661416904788 -3.052504433020207 0.5681947724807892 2.8629447102480823
Ni 8.793814765183255 0.5979117551746812 13.280420917216686 -0.33835357648079795 3.2040491100011397 1.7728177957984692
Ni 4.158549683182077 5.155541674596815 3.982626869872088 0.6532298957752621 1.0928425136085629 0.054607917152867246
Ni 2.483449458685637 8.146724814051383 8.584623102410987 1.6209023657416797 0.6620418376399373 0.03587948750542853
Ni 8.64815878910555 8.023772261708055 2.5533771337795756 -0.21650025591671104 0.6285889572981304 -1.1307076640854528
Ni 5.117752856908696 8.425456187978206 4.578842695302032 -0.09111192561617212 -0.4703429570376222 0.13336132120368643
Ni 3.4584819378031684 9.151485500854285 13.181148290076525 1.6835642635472747 0.09169376626157112 -2.442851907615264
Ni 6.224193995592066 2.4496815293984215 7.38900864059207 1.2827421362186102 1.9457111136585072 -1.3043586860471215
Ni 6.49015645928089 2.4366301211463073 10.667285095191264 -1.3329627229370593 -0.19736404930789236 0.8510451736879602
Ni 7.180543939376124 1.9845391325575654 1.1717386713259628 1.147451716313011 -1.0231049399031091 1.1986909741039613
Ni 4.82128060769545 5.307798687604343 7.952601595352011 -1.6432334251387117 0.8628848466353656 1.9630532044813802
Ni 8.685316694562145 6.40440889539651 4.968835912088056 -0.008435018141230636 -0.6258882705375156 -0.057974262521938866
P 7.574515669860934 6.683545183143564 12.025129691576016 -0.35810633362769295 -1.606557152763601 -1.4298614304383375
P 8.875936937886493 0.6554453007293468 1.8858107849246004 0.34747816448988544 0.35610704380947705 -0.5166233281614006
P 2.1883426165406137 2.7456358655857898 4.043061670031714 -0.26782898809767425 -0.03426689160267002 -0.47321770748225594
P 6.090101604892135 0.6291682771164144 5.839523041391969 0.9731818298204208 -0.7278014005342498 -0.1439889761208617
P 9.147116198235974 6.011407074760159 2.6016146113497634 0.9720626286143131 -1.4801280399033734 0.30684136480512963
P 0.4040842177300818 3.108834145733004 13.043465349617192 -0.9813062586997681 -0.49725186561332424 -1.3310657630246625
P 3.0648397883348246 5.43486629435328 0.7367811872932972 -0.06601487343822823 -0.14262731988664468 0.6290743815749811
P 6.36455784220535 8.314566300837589 2.5995194177450767 0.11725181723633356 -0.47682727921038526 -0.6147250548318445
Ni 2.22550993859768 6.77014965767076 6.816732638538279 -1.0034809950245944 -0.30148961357491305 0.08450547604324801
Ni 0.8867207749250339 8.029158557177182 5.48262070031933 0.03410285522097998 1.5478742942104118 -0.2461468751385503
Ni 6.790706096497861 6.022010166889944 8.978655099138809 1.6482894995053807 1.1324529289113336 1.4418157745867362
Ni 8.495704027488143 6.220766353020804 0.1472068901751973 -0.14900776949169178 0.09362543606664521 0.7995683459649069
Ni 2.9958631898884067 6.381422973648017 10.219599192302624 1.1958524762139018 0.12404981399477347 -0.7759625336205088
Ni 6.69457202229452 6.9759777107549645 7.002006136115476 -0.2055393860298331 0.701772837680972 -2.2126042202054736
Ni 0.9958149163559263 5.154421099140826 13.261539691613283 1.0563004528184712 -1.0342208473106125 -1.0106327755780273
Ni 1.8081191227427338 5.75096273894705 4.030064878062329 0.15869697175499767 2.3132546814397 -0.43920021288623073
Ni 4.786269687146128 3.753052033721373 12.564342126057783 -0.8262237437689062 0.5374289520528422 -0.2906832669880284
Ni 7.573639926017178 3.3214798175578526 12.454953245032163 2.1965782770908624 -1.113522667665734 1.7552512476696158
Ni 7.887532886100851 8.560499655325657 4.6162200075495905 -1.6097597188612984 1.6150885872733798 1.4498990658155029
Ni 0.33530725121363825 4.111786845245571 3.880845660366586 -0.7514897452901251 -1.0215360527540922 0.7997694062321195
Ni 0.622822430059344 6.403128237732521 9.071904868618038 0.8837796878065036 0.18548683825433218 -2.72224648906335
Ni 6.397732525662924 4.024796290099085 0.35011579711354773 -0.22994661122960397 0.6693291153299697 1.9076605866436886
Ni 1.6753733059100844 1.1727905055985177 12.704657948008668 0.468421057424561 0.5049384356243045 -0.282678651515997
Ni 0.46970379810876633 4.060908952903455 9.160358763477639 -0.6124935943981644 0.418418243143873 1.5435592117748256
Ni 6.079131265344002 6.231152863339766 13.488863018591502 1.4319782196710242 -2.2716228648315266 -2.08026079874334
Ni 6.713471139438815 -0.012653086052211876 7.798972583655932 -0.581051059618167 -0.7608228497655929 0.3653758707059127
Ni 3.69243737649276 0.9094948231629398 4.190199819023477 -1.3009054373911983 -0.5455053013030735 0.1060124968770884
Ni 0.8707841202887583 2.0997606559146127 1.0253444337713697 -0.9796787503986741 -0.5303738449782737 0.11775061124962302
Ni 0.7521453126209663 2.6299058458033353 5.676852209924116 0.36417516552959217 -1.4384291175026904 1.1751021310404277
Ni 6.773436051234963 8.611038550050836 10.805698763847108 -0.9386226037883125 -0.0007736449412309258 1.7369740466269827
Ni 6.919544024135254 6.154765400323063 2.2304611871250692 -0.678832941055347 0.3526234561362508 -0.494044157309304
Ni 2.9571232955527664 8.81272329892802 1.4489172478351997 -0.25105588240439347 -1.0373514225197942 1.7856290886305248
P 5.136670807253932 7.4433330087063885 9.381314585217705 -0.08552311867448496 -1.489746536829744 -1.8324380785642633
P 6.89578594114818 2.866441433021844 3.2541850239554657 -0.03556504158880327 0.253348277982996 -1.1662984167058688
P 2.0546928060627963 4.746541049761086 11.14256257911852 -0.3593494620061747 -0.6964254573261296 -0.12648850534325315
P 5.328082045017802 8.131573503894348 12.60732890720562 -0.05641565978556736 0.7263651823083555 0.2623062585072321
P 6.188834660825335 4.068479899681737 9.047166517521983 -0.2803520602653494 -2.652425097394839 0.37684504768777677
P 9.073431299554304 3.0631918832524874 7.592019246815501 -1.1413605158136086 -0.5954366389158777 -1.9870691077800036
P 2.91563375387974 5.140738778657189 5.738472560082978 0.6556583027110967 -1.1101840902108042 1.3768450261423062
P 2.799960233700109 7.879783023913628 3.43143746125189 0.20490766598310517 -0.007978647330102388 0.5000872781795903
Ni 5.964992651041062 0.9841665815739169 3.309851257636831 0.0698527591270797 -0.9597215905504569 -0.5319746138064904
Ni 2.419265909878704 2.8604242253211942 9.503355610635488 0.7389178221623854 -0.9775025686829617 0.4534338399871094
Ni 0.644861983460551 4.715551017612668 6.611654146851525 -0.3899967545783864 1.6138405737988915 -0.5145484479102428
Ni 0.1649411738412914 6.220841685824568 11.262439669748183 -0.6605505978063914 -2.446623201732238 0.34167389910328255
Ni 7.973506448396522 1.926984870481865 9.00886543676827 0.6975372023330696 -0.4478902844610609 -0.08758514340983627
Ni 8.303567711488045 7.899595551303562 9.39075472718938 1.1369479885682097 -0.0809781796162799 -1.4333007951371897
Ni 3.7414601985421867 2.641318765573583 7.100231637283317 -0.7652837137504239 2.6595110577073426 0.7253789071356863
Ni 1.9420231814332547 1.0300819254680786 2.665246347369125 -0.5152593579343384 -0.07063591715000739 0.42850005285990717
Ni 0.8273726504597028 0.20150583346824588 9.068997022392745 -1.1762017918625098 1.1836469352866454 -0.5191643494156994
Ni 4.33480019418844 7.580401045154998 7.042910906899284 0.7443677895333631 0.3346185349183979 0.5718035728779701
Ni 5.285782675704312 1.447585740528671 9.023295435329265 -2.604010710647193 -0.7891093554151118 0.9815466568453484
Ni 7.215790274937207 8.386518545032686 0.2626158038816076 0.5877415842644651 -0.613394251835563 -0.20046479972040315
Ni 7.73877884846835 2.3680019369172975 5.265552051253489 -0.5491110163764608 0.2904312988782224 0.09249080824156974
Ni 5.383366906380112 0.09452760216307486 0.8768823107534547 -0.6621300264783694 1.1805559550661473 1.2829691646277517
Ni 8.408939470752948 4.057217645519018 1.9806321850223547 -1.936131697500188 -0.33640030940916904 -0.7503378910738691
Ni -0.0046988836347798815 1.2027258784942396 3.9828472183230974 -0.20712241424623684 -0.7720351735416446 -0.22321597737398977
Ni 4.29719970850973 1.5231445427039692 11.54468437731055 -1.7714929063394587 2.0802312310569855 -0.9127439362493377
Ni 4.246472481775143 4.238553120779452 10.194157421151424 -0.3825945485770443 -1.0467698876202165 -0.24564293891893826
Ni 0.46971227304918983 2.2479496975188833 10.869041410232025 -1.0548053563301834 -0.012417142717430229 0.4006534629612842
Ni 8.718020547996195 0.5386879298355608 6.735776240973291 1.2958287941992395 0.0925928810370728 -0.172010143924136
Ni 7.091208650712483 4.714430442156678 4.18293679508058 -0.333427085713458 -0.18986234161420848 -0.6951352777597963
Ni 5.943183804351382 1.7100640620434093 13.054587296432901 0.43456554232769673 0.07620389815608812 -0.3018408262667447
Ni 5.538222901117497 5.861033381846734 11.114101845856478 0.7150978369246523 1.094811978630108 0.42299069300590375
Ni 1.1997502327455614 4.2180437649547 1.554226857536998 2.1467680384369547 1.79323364045066 0.7297076164180272
P 6.060260398001119 6.482133515680023 4.820085641095744 -0.3073509574516965 -0.49385029613094306 0.7597381013418464
P 1.681475263014969 0.6827958167959163 6.3083501539969316 -0.04649557245837799 -0.8436851337784631 0.06012241921319324
P 3.6716361060534237 1.9749624498790663 13.602854733927103 0.10382783052094377 0.43055667827861976 -1.1365538384535847
P 8.589079037753628 0.3604928908320396 10.546278012505141 0.6765163771070285 1.4329009885956097 -0.09679072116850428
P 4.010944470806978 1.5239261205430208 1.9592282521529065 0.04833365410838127 -0.0022000929751123397 0.8814533536661723
P 8.77846570641634 7.3248533415865476 7.266485485230196 1.15537148538072 0.2942103063046804 -0.3183588785264259
P 2.8458379111923886 0.7553271819199485 9.621950160281068 0.9749582049945533 0.018363590108852246 0.06721892104865843
P 1.4713626567166855 8.369945328204604 12.981045530078385 -1.10477706026262 0.9108428625718828 0.7779582238942989
