# total energy = -340892.6695861607 ev
CRYSTAL
PRIMVEC
9.01707994571686 0.00000000000000 0.00000000000000

0.00000000000000 9.01707994571686 0.00000000000000

0.00000000000000 0.00000000000000 13.19740796096807

PRIMCOORD
 96 1
Ni 6.210820530613774 2.0318908057205842 11.383569547107385 2.1663395328109787 -0.15096180789426902 0.3868201566226177
Ni 4.584238460332108 0.3240666467482325 6.221337151186923 -0.6921008618088467 -0.6847459641056723 -0.49810290075970987
Ni 2.897025543155263 1.5483498829433946 4.74259461842308 0.3970323212689291 -0.4733452341990558 0.43630566494725503
Ni 3.529474527447465 4.376349677588459 5.244016411127863 0.31582068548560444 0.4050541631321411 -1.971100243155573
Ni 5.153026858800403 4.600640529115915 2.6132715566114126 0.24429053865610184 -0.9251142848892326 -1.237751687550849
Ni 7.252717090131461 5.984771348458039 2.4437116764402407 -0.8718178874589373 -0.22636146498150694 0.4529255328921232
Ni 5.165695856404168 4.642236319824935 11.492527435039845 0.2960743560966127 -0.49145119977114715 -0.6415704571594628
Ni 5.591410244211286 7.82726740281243 12.445393853745585 -0.24797955747191486 -0.6564964823416759 -0.20515346344532412
Ni 1.9603402747697778 6.573821126012215 0.31252027562252266 -0.46750780158167227 0.17297816426436016 -1.1876007777280708
Ni 2.7385683937666654 1.6932092754732884 0.42835729399762545 -0.02587995309055543 -0.6247487576164337 0.305820379739783
Ni 0.4315971308937344 8.898821138927117 4.765069690684566 0.25201464677323693 0.12745061214620632 0.32400862061303554
Ni 8.476127472968583 2.3551982143206054 1.4045472922064983 1.512772565411272 -1.0254330738156534 -0.12883926496361683
Ni 6.715163857285547 0.6737950018812034 4.985149565784292 0.19142505811563806 -0.09070646264763733 -0.7723290506329795
Ni 0.7306801536841346 7.605907102332109 2.3695020085546648 0.2776889116108895 -0.8381415782524145 1.0670888016832267
Ni 7.436404029765851 3.7933233095711634 3.778246751568674 0.8754948220898922 0.2540854132593366 -0.30690178572941984
Ni 7.6913259025459695 3.9414649192738476 12.634262007631309 0.2488982126314423 -0.6653346494585961 -1.0648136324958049
Ni 7.715464626094214 8.930101389950222 7.125703400916595 -0.06455294418072109 -1.4174383741836363 -0.9902863507111914
Ni 6.894351273927567 0.5686179756535542 0.23911222616184016 -0.3657875043220346 0.7041410808028326 0.4897717551861952
Ni 1.7065906224085117 6.641241834256598 9.315865604174789 0.48017434130574727 -1.4559429580167376 -1.100452207635021
Ni 0.23561900931365581 4.7451302213598625 1.4013795919515495 -0.07162630608773471 -0.366222277866608 0.0464480070498942
Ni 6.213363347214672 1.9856061333361494 7.083220329521304 0.42542038549331895 0.7048154811620377 -1.1194922549856074
Ni 3.3196380553924905 4.262536091997902 0.4886238508549424 -0.4119143805870842 0.23760155667170046 0.7886167320494096
Ni 5.838703667188711 5.62831715324489 4.85912775538538 0.5161916399406207 -0.01333168411189962 0.2527654088963324
Ni 5.227219394233703 2.7686403560503376 9.259275310892601 0.15935543127460297 0.6756427162528235 0.13846393253757444
P 0.47969243297129105 5.410744026425482 12.348247439095099 -0.1714578709650918 0.21467323001030122 -0.01612467347600449
P 3.933304461742596 6.114518114664864 12.622872533700123 0.8345551464527369 0.2543767192475103 -0.14833594023564778
P 2.3775786072405674 8.555531880725711 1.3633716974322372 0.13386294343045332 0.48378776968861836 0.06226080571243471
P 6.117764263517073 7.686673089191135 5.867026315924248 0.40590339850631385 -0.3434957828033697 0.12344149098681322
P 4.754544053031274 0.9793180233111834 12.871946830006191 0.08186212488312998 0.40401569456529773 -1.5513949057691605
P 3.8386070860595 6.1553023681608305 8.203588029001107 0.2572671534214279 -0.015002386946103194 0.5105588671348755
P 4.887500899769728 0.943312822292082 3.744500329125903 -1.4289036945107585 0.1457280702991555 1.138880429704232
P 0.014866460035109599 5.566090283164044 3.4470178380612455 0.9870115366146615 1.3098181664997959 1.601696996457822
Ni 1.5383769923029924 1.113870893235309 2.8768895014833986 -0.09010405317694804 0.430905062756974 -1.5681183891714285
Ni 1.5171778368820286 6.471161668561057 4.943564595571448 0.323271742447011 -0.12688779766420083 -1.707640587770188
Ni 6.116195291571838 5.6481366954036645 9.209731865743752 -0.18657390067092383 -0.5526984766174029 0.9538160236992991
Ni 8.42216926538073 2.3167223333417657 10.068381519138125 1.4454268889767623 0.6643820557373398 0.7794978004672769
Ni 2.3800673213605954 5.161629153258761 6.927781196857247 -2.1296491193684806 0.5100708717548634 1.810536907615798
Ni 0.4696762603461926 0.13046993603445614 9.076371955522815 0.0380366430577474 -0.04215503610149514 0.6547512175157949
Ni 1.4684946211790162 1.0929873356194213 11.326741202909368 -0.30730622025669013 0.8728314163251161 0.2859845759607785
Ni 4.156161597526992 6.761024726903165 1.539134427035175 1.7072474660968278 0.7957173476499327 -0.9810411779638394
Ni 5.5585520041628 7.719305902235995 8.1428931608369 -0.40190790419367556 0.986058685783089 -0.5154671030697703
Ni 5.165659788083588 3.0357984065872623 4.40760468078716 0.4992251872896112 -0.9869169200183263 1.0429741680232103
Ni 0.6519944072145665 7.416250855641709 6.917078824433112 0.05784467892261006 0.7746918944382013 0.37639459041391954
Ni 5.055209573387126 4.596691048012392 7.259089460669952 0.5398033658222897 -0.125548510027487 -0.3575252643132423
Ni 8.168617988782653 7.24290650693367 8.962716168834794 -0.4502785821875793 -0.06651700988562738 1.2665377585446058
Ni 4.576330481044916 0.33923067042812804 10.528799943299417 -0.15671902209302044 -0.8922075068588828 -0.40546296853478553
Ni 7.842767763581735 7.239777580123344 4.541650790807134 0.4239610273389731 -0.3133495982372926 0.30350124468830314
Ni 7.196486578347059 6.1244910053052655 7.128540174330221 -0.21162467299196455 0.1279074971779668 -1.6739082285147495
Ni 2.282773026595731 5.8734825453080886 2.4021528557598155 -1.202075060084846 -2.610298086317801 2.1661734395467596
Ni 2.5491646253203277 4.883758811509541 11.406322345437337 -1.0072093517187752 0.3928959305030524 0.037015143771768504
Ni 1.1461881084750936 3.7697526620720567 4.113605487782527 -0.27348001573586456 0.27555823842113186 -3.4258725779029766
Ni 3.7453253919591725 2.5448183926904235 2.4688918727452345 0.39745552484927676 -0.12011165528263185 0.18332993981232942
Ni 1.1766297710447118 3.1623531264227465 8.088717641617551 -0.32309485054951453 0.9470607072533368 -0.4183200270031118
Ni 3.763918611218223 2.652698739545553 6.966885568322196 -0.8777154838902949 -0.7499727944249664 0.44334174585843006
Ni 3.8746483553991813 6.8755326276648905 5.783830225966136 0.5538557301502978 0.22714333745285398 0.33761464143224434
Ni 0.8247598593772965 7.438748470603557 11.370821199198343 -0.2471945996767743 -0.14166804129716892 0.9515477964904128
P 0.25509500071890434 5.577370650425475 7.919949461083113 -0.03645798571671786 -1.0252998906718989 0.4219972187443829
P 8.571266685578788 1.6738315702416204 7.7953794005875485 -0.23761466929782304 1.0292984703083305 0.44760592045142267
P 1.7627219463113182 3.0938954539616854 10.387825108896003 0.3093160515978673 0.1589797931027391 0.17085880392851222
P 4.004052472560495 5.970425173947297 3.6629931382789547 -0.30491252321353296 0.637771652238663 1.3565533657728055
P 6.965838685317357 3.9825467364146 10.372358111323232 -0.18749049894792225 0.25505703314398653 -0.2942591572647448
P 6.248349618177386 7.696691065232263 10.22320117839622 0.8966580864310687 0.17294602547484408 0.8437041599418567
P 2.3459917754925304 8.430275620431111 5.672034662912035 0.36796368603774693 0.10957707429989515 -0.11765213799854575
P 6.987660019268328 3.806253802499135 1.5320479037491963 -1.176250642822574 1.2044913828358224 0.17711121259612725
Ni 5.2776699576451405 3.01653792339748 0.3199999436028243 0.7103135281621316 -0.33248220530168543 0.6418838746348235
Ni 1.6224612646553895 0.8472709999593618 7.0930660793316616 -0.70649955373268 1.5043079795836867 -1.746436220481147
Ni 6.846452544197171 1.025828122699244 9.11145110241102 -0.959236166273606 -2.249142167230507 0.804305603539576
Ni 2.659948471982156 1.5714426251948144 9.13027065038171 0.925067233701381 -0.6007367109725524 0.7631833795779694
Ni 6.4156254719478225 1.8391958030213107 2.6039406820773365 0.3284995665048536 0.24835956651915292 -0.8599941553511318
Ni 4.184682622025719 6.672513068199559 10.476102323515837 -0.35102243019771806 0.9651522746477248 -0.5766063935832522
Ni 8.403567029041534 6.822331854809218 0.503174713084976 -0.5447923343964489 1.111923441499414 -1.038624889915579
Ni 7.7085936110237006 3.9241160570748113 8.076008968861146 -0.08965076768961334 -0.7786814752135686 -0.10620841493797838
Ni 3.152208911259589 8.404405617495023 12.38530583507514 -0.19379535812002754 0.125350535084068 0.021358925291750312
Ni 0.15819294894034833 4.741406167259965 10.187396156556337 0.342632663472126 -0.3550364364531176 -0.4298331698490339
Ni 8.548579711933893 2.2343963916176492 5.393028169064542 0.3368715926186327 1.058021806384952 3.1253630688531464
Ni 3.9782996916662916 2.5397688278092074 11.48100631173854 -2.472693673567045 0.44960649582121925 -0.22184249406523082
Ni 1.0571624762032203 3.2127225361128797 12.73140752057378 0.207526591663191 0.22435266208159427 -0.3747552550382836
Ni 3.0642923798455546 8.262089041566027 8.078779917589713 0.4808855084401589 -0.5253077433092759 -0.24532643611978394
Ni 5.719092099064899 7.919025210368247 3.4798796849417895 -0.406327630527926 -0.7149466560587687 0.4084048247719289
Ni 3.150089897425507 8.049096591460293 3.440168463983081 -0.4527663816064396 0.6353136776164735 1.0098308485020222
Ni 3.4101785571287286 4.20668429757959 9.215908565643097 -0.408562947616348 0.554730162335451 -0.2974336983379845
Ni 7.613228971409872 6.190577185688184 11.306958630779189 -0.9976281357882432 0.14833671156659614 0.21951230327015747
Ni 0.5784781527921437 0.11610843248746817 0.21974714484237548 -0.18118024045917827 -0.43343991336368576 0.3950008926611971
Ni 4.521984539010826 0.2097435961294801 1.7012777587870604 0.06523762895257151 -0.04904636390468973 -0.7825746396203876
Ni 6.09823326792294 5.5027633293055045 0.34200071744868105 -0.5490230846483448 1.0156101741879606 0.2893820316781016
Ni 7.934678861500017 8.897621867267828 11.252585637504662 -0.43920921174729516 -0.5709733636671909 -0.7640976638621227
Ni 8.817622332221129 4.913857825033649 5.699578235923041 -0.5190843881073834 -0.34807980262962634 0.7746389297130788
Ni 7.946500253570151 8.88566521899552 2.2910038173521134 -0.36322874245592285 0.3326524123309626 0.5048980693046724
P 8.5183634763679 1.4672773153594374 3.543979402568758 -0.7661874565116159 0.1877496661465799 -1.288953921456277
P 1.8736681004157572 3.4638842864725223 2.0446084955571333 0.35646931224490225 -1.0061778251304672 -1.3244827104905061
P 4.624508740259808 0.8479833492908191 8.354870287718304 0.6405623276099226 0.9865975890056944 -0.7901943609491746
P 8.454612719742544 1.6625782542206242 12.330378291371694 0.0837400586321332 0.8259278097950422 0.16921201235370859
P 6.408024073385563 7.704878574003949 1.380779170652216 -0.6119729460080041 -0.9428001322047699 -1.109302201826483
P 1.7976541147931613 3.1220648123347563 5.846979543345818 1.0513564785496345 -0.9552758960742773 3.6486116156405486
P 6.676940454550769 3.76751642619609 5.9046924631060635 0.5229078756185317 0.7962626786304415 0.16028077130234977
P 2.308129055963553 8.50077115300495 10.190880356324376 0.9684574277615579 0.24226219537216342 0.2895962045714367
