# total energy = -340855.7285630106 ev
CRYSTAL
PRIMVEC
9.49468839261287 0.00000000000000 0.00000000000000

0.00000000000000 9.49468839261287 0.00000000000000

0.00000000000000 0.00000000000000 13.89643620039598

PRIMCOORD
 96 1
Ni 7.9227098975680015 4.804511772115846 6.965366152396601 -1.6062483632739304 1.7316408073395275 1.4253447735149067
Ni 1.6391820129236212 8.836735075903043 0.09526210871088889 0.5818491300394302 3.646301479450133 1.3119313561880566
Ni 6.603603328844912 2.410141224861534 7.654184915137883 0.4596489676588858 2.019847587762605 -0.020467009605100235
Ni 8.184943699394541 8.965226695444612 10.334863046923799 3.05471249641512 -0.428209775312998 2.0169728373179714
Ni 0.11995019776224371 0.8820774504525716 12.379306849317068 0.5540238802970459 -0.931223483110764 0.7147304262829046
Ni 5.626618871031548 5.0452021257239705 4.65633481489634 -1.1962018891335204 -0.6906430463163976 -0.11415826591267436
Ni 4.324469815978837 6.510821232771595 7.902778647457778 2.707515610611079 -0.7496444645512703 0.9153052692186108
Ni 8.316207767979643 8.959577355783987 4.602458154442141 -0.6316585973623895 -1.452504878869466 -0.3884034419493375
Ni 7.997195728891699 0.993676120205596 8.671862658415904 0.9257496044803862 -0.7488463941300071 1.3859786130124583
Ni 5.0444140665780335 8.579020745805003 3.8800519311135324 -0.15247438788405354 1.2012309669169956 1.1321729357770696
Ni 6.739386869158514 7.28981295118495 7.818843702133654 0.6106933079646322 -1.6747574638889224 -0.3459308746074236
Ni 6.347303707334154 1.1368845069303037 5.6817668702766 0.2270903727277315 -0.24671971692288477 -0.9700047176440199
Ni 6.011248702379285 1.283482497451386 10.154904518870666 -0.02166360101636269 0.7845783003139778 -0.9393471406591628
Ni 2.506312924731226 3.5055529324008994 12.744213364232845 0.49435397524023894 0.10685016228703534 0.9235225149220805
Ni 7.057363987199384 3.7367106187497514 1.3838166687617803 -0.2829673864010095 1.409437358256031 -0.7959600597883582
Ni 5.860511027669912 6.046977215224546 0.61940689295479 1.0361031519349897 -3.334015032370032 -2.835657335287039
Ni 1.1132237431752172 7.129704018920895 1.7212408077991075 -0.0382310184567406 2.2197367174851963 1.2452325693089263
Ni 1.263961417884589 1.4914731438474245 2.7350826969210074 0.7803205534788884 -1.0016660533030426 -0.39244855855298866
Ni 4.918467023555873 0.7120066910088065 7.800042319955555 0.3633662964750516 -1.2230737738237 0.4981083000763486
Ni 3.407710167354283 1.0563600537172662 9.942622273270253 1.662846571383949 -0.40777721849025905 0.44831451648267306
Ni 2.2213678280001248 3.5320146292650354 1.6263831728185425 1.3402104056384079 0.05085179254454468 -0.6106706822568129
Ni 1.1163000222509185 1.9992585797967775 9.89808458842982 -1.8537707786037685 -1.489266511869532 -0.6034898482376574
Ni 3.7814970644290224 7.833630730011732 10.224386649352095 -1.9253585181440842 -0.4022632306505653 -0.4239021490765796
Ni 4.6278156190331154 3.3526599634008356 0.19923179624994386 0.9614012922457249 1.7511444245900938 0.5000649095820872
P 8.238142439089465 1.2719274615404952 6.676723823961554 0.899386026885193 0.645757755767933 -2.182323566944061
P 0.916018113452294 8.779073832610651 3.2474996419232216 -0.9862258074885726 0.8561017622752611 -0.48211680974409876
P 5.817708971888238 4.614228719782101 12.184867971824575 -3.913205384630377 -0.21111122369065577 -1.2544180924629365
P 5.404443160008664 0.9020865570085385 12.683930637444153 0.15186992153083523 0.6017260714690154 0.05945393239125891
P 8.801737654072687 1.6938524293368593 1.5981877458333478 -1.8311245019591624 -2.3802738277727262 1.2042152463563003
P 3.983192732346079 2.5003977337924543 8.669278204204774 0.10932844862419881 1.8075423437638485 0.2301715827562165
P 9.055891475981257 6.895593484446909 6.479728026854597 0.024405682537874097 0.6333084742609867 0.6266876265103594
P 7.920763486424424 5.371135792732241 9.218701647125057 0.13096402461610346 0.923499632103945 -2.0653890238378296
Ni 9.434302286358054 3.509350807803 2.979270893774466 -0.6742088120197745 0.08995492919359346 1.0037689585786584
Ni 6.98263129397455 0.2521219585684471 2.208949724904106 -0.5657421971752385 -1.8520720507451072 0.2630547066374824
Ni 7.577435550074532 4.714682524167662 12.917057522188994 3.1440159080676437 -0.33221043969753755 2.9349343132125068
Ni 8.335472490956798 5.854054639486342 11.172400913598235 0.8347685480151237 0.9232183534181003 0.04733555186117009
Ni 8.557135488800398 6.108388860476512 2.9314670360882262 -0.4874137964769799 -0.29029991550668066 0.0933302734237296
Ni 6.955391032652983 2.4925741104641275 12.062189950054773 -0.2362247309288319 0.6652729429827251 -0.4809747257198555
Ni 7.158643829484902 3.5431044254391693 9.704297996037637 -0.4986320337903025 -0.9112899774116306 0.5552896343833469
Ni 7.131489020359882 6.533693937380746 5.578585241883481 0.20621018684461256 1.2111423124934368 -1.4133271802287402
Ni 2.4763666771856627 1.0253314116821044 7.174132514843518 0.5258577022754749 2.033403729180485 1.3050425994880233
Ni 8.37403991566513 3.3379526909062007 5.242222609021041 -0.7436581650608483 0.29339758059539794 -0.3669499000612519
Ni 2.8059463045799515 3.9832117217230896 4.8264549467203315 0.9046668156681581 0.6733747461542532 -0.3919939875140733
Ni 2.5745987244609947 3.513936742351037 10.39418681017346 0.397781797840444 0.5336188342781326 0.8577416118715293
Ni 4.626856655494086 2.965646965238281 6.743385082488074 -0.707991050676542 0.3834409557377396 -2.0879021173386816
Ni 2.4388151841473937 3.869569795003735 7.569055537999798 0.6417365504236819 1.37404946567504 2.1553871475645328
Ni 0.13633897959115826 3.254465894879525 0.6992211434676349 0.31631485151320365 1.7883943100804878 -3.4247407782913792
Ni 0.9449721660490582 5.049066463945607 12.320789185121502 -1.0881965301961194 0.7035952356016915 0.9005489368450427
Ni 5.358090090726026 2.140833880098582 3.8094161959787143 -2.0633601663332595 0.28922596571621156 -0.16661879770523563
Ni 9.350426208102663 3.1751092883526333 7.453840341395122 0.7051980613124371 -1.2991401179606592 1.1732727911411729
Ni 5.614152345024152 8.750058064538603 11.199318355510623 -0.4799658248393669 0.1864368608724273 -0.6364619322883039
Ni 0.2373843030705958 7.255508641615476 13.358254808713319 -3.0612428413344697 -0.8432038232666703 -0.6863976407764824
Ni 9.063848024948658 3.4499330471371366 11.299623093286652 0.7787544945433492 0.6715973425388563 0.4020544570738689
Ni 3.505078197975637 5.802707364049941 1.0970125120213507 -0.8327600022255272 -0.014825237938290594 0.4559072412282664
Ni 8.540424837031157 9.223111929935746 0.46388009736336916 1.0219782824978336 2.0156371492256837 -0.6802714732740864
Ni 1.223058299803966 7.2779445905533855 10.92501680459391 -1.8580264685563292 2.3149873478600904 -0.40146696000151505
P 3.9582122068887626 8.049388031605067 0.18017405748220316 0.02438357105068704 -0.11478355820149909 0.874824535495745
P 4.624274100220657 9.358373262381559 5.754486689538321 -1.4657869406903528 -0.014494079851116974 1.3145325412563298
P 6.842252324424407 7.4857358484908145 3.3956500140149126 1.8303637125337382 0.34791833735109756 0.31902890801025696
P 0.9860518853358792 5.378892953241032 0.7737686902666167 0.4824549098098079 -2.101220688824459 -1.1304497824383757
P 1.8039243531782392 9.340903035531895 9.820278464535836 -1.5433728067956323 -2.0895095710351175 -0.0934760549729745
P 2.3312878368254206 6.238674976145573 8.257179289542494 -2.1427794861028517 -0.016374327592965348 1.210607265925573
P 8.134023684940878 7.805744829871808 12.079338306964107 -0.9548969154683038 0.3347761435421847 1.668734911843926
P 1.8489101873161207 1.6656152257222414 13.401445197254855 -0.33221815300702146 -0.5716009699488608 0.4203689391123405
Ni 2.325866369688922 6.921722867213362 13.202017810421705 2.9655083293446216 -2.175687806795098 -1.3452184003759606
Ni 4.3341354088771835 4.52259548101792 9.540987454809612 1.4563715609137242 0.6673941030907862 -0.595692977901058
Ni 5.150669125640303 7.313236347727405 2.069999705974004 -1.5639200348193647 1.066545270474931 0.6898894559798248
Ni 7.837219722266718 7.23302521923504 0.7827459182483318 -0.8167029487626644 -1.5842386917720588 1.1519274926961773
Ni 6.062149727455937 8.50586417087204 13.30449018558348 1.5062417062712898 -0.5321756740737028 3.3963432009852927
Ni 0.49333452004436024 9.48481402920599 6.941658864667838 -0.9130838360872597 -0.419622033643987 -0.9285832172744395
Ni 3.7602289621772593 1.2782509240849926 0.5682751469474594 -0.42550626033890593 -1.6080903015786758 -1.0259778905755297
Ni 4.933392673886129 6.713865146456397 12.3238597673841 -1.4997170177788945 -1.0391421958716296 0.17907810651451092
Ni 2.6622821728069916 6.202538191694585 6.225270374913858 0.7880793714887009 -0.17884799278157587 -1.9928247793168583
Ni 3.297533801939345 1.5439597819044546 5.075020194974712 -0.2772901335105741 -0.21794675855525045 -1.4968216985089706
Ni 4.603556689902199 4.197478357221099 2.593019369630033 -0.030522079848257118 0.01581999775139211 -0.09280036906218857
Ni 6.892213375339041 1.813656408896122 0.3377678467612173 -0.28165715223001814 -1.9556072897262964 0.046112220977030265
Ni 0.7220625156047182 5.132904563446977 5.833890769507739 -0.8289624828563078 -0.6896508576064574 -0.45490296833346816
Ni 4.491092104557495 2.5944236340599596 11.870724809002123 -0.08001170193795253 0.4917671883496692 -1.3908014883223982
Ni 5.812002664096583 6.594507417256882 10.154293060930927 1.3622295902219768 -1.3028278512248919 -0.9163969596208927
Ni 7.491641544741081 2.045877500357562 3.447650524020474 1.8025083808843667 0.1661922516907783 -0.04926233657023774
Ni 2.2197727203312425 8.22925541064855 4.732639828537644 1.4681197025885877 -0.285337943515715 1.0807033071428678
Ni 0.03962228460126484 1.347362761714718 4.8108627692570085 1.425289751907255 0.4234015552910772 0.4225577192335432
Ni 3.1018387771576075 8.990102779328371 2.3954396491800027 -0.5514301514279406 0.26250603322286403 -0.4665978881728932
Ni 0.8107561988076741 4.884694416542694 9.776059801229179 -0.41860516234369843 1.1081331212190466 -1.0575944890395463
Ni 3.241002426579078 8.381930001812993 7.154469014949142 -0.44477179343673723 -0.09710259598196826 0.11159950404656264
Ni 2.9001715933060668 0.21728784538038057 12.07480839107825 0.34268074310124214 -0.1110477453081507 0.16612848833237842
Ni 0.32411163628411416 7.999360517870896 8.614957192328529 0.4838263362360377 -0.9001900108437271 0.18480832413006879
Ni 1.4890235142130697 5.186616016321185 3.129101825731587 1.0332078326650658 1.1088782269151871 0.635868264568363
P 8.506642735329471 1.5592177463323937 10.769335245579851 -1.1424714894896002 0.44585962718427735 -1.4653907336931988
P 2.5868373779442635 5.847152000943023 11.151431894034388 2.715293969004917 -1.8329116757665724 0.17670009320063762
P 6.538061494093162 8.633244911858494 9.32167439237106 -3.0703430038635253 0.8244458259328769 -1.9298780032809926
P 3.728678112274309 6.313872909107164 3.9614432493871 -0.21826377557503698 -0.41083605992124084 -0.4960907554256876
P 3.60658591278528 2.1201544485341444 2.5122812859256274 0.08522744181093708 0.016821442432712965 1.3687691911127073
P 7.23016731799496 4.27055897464602 3.3359369685365357 0.3562096308256123 0.23061612649280283 1.967916703221269
P 1.5150674447829742 2.868117524912338 6.088681685015012 -1.1178300367918363 -1.7997573005017908 -2.140812592184468
P 5.532260656666359 4.933278737624066 6.873497445357488 1.1755772709046335 0.9126614038378605 0.05899113382222743
