# total energy = -340870.1644324956 ev
CRYSTAL
PRIMVEC
9.24205540153284 0.00000000000000 0.00000000000000

0.00000000000000 9.24205540153284 0.00000000000000

0.00000000000000 0.00000000000000 13.52668228142017

PRIMCOORD
 96 1
Ni 8.041854535133862 3.1006172338287636 2.742994968113757 0.5477658152024759 -0.6279888618202862 0.33050117031591464
Ni 8.706746499234455 7.077843441482852 1.8441606989773611 0.9531832752113067 1.531945795905613 -1.3152763614008895
Ni 4.333784712769334 2.723587575555657 7.5868320938432054 -0.33228603013047936 -0.06592642748948001 -0.5150474990338485
Ni 3.5688659808910734 4.680934805282004 2.681746017229886 -0.3394946320637766 -0.45039685293299847 1.5527992423158548
Ni 2.7314802910395457 3.789030229435795 5.963968719427339 -1.697463133016554 1.3988978921772874 0.9686219783638803
Ni 0.10279661184150701 9.01355501904552 0.20885104828262846 2.1524383493488544 0.26649252867443785 1.440895576765312
Ni 2.220403858318759 3.2169839559103095 11.161610217702714 -0.12106373478325601 -1.3722964875396755 -2.022434888873807
Ni 4.643763257651795 3.286253162645374 4.933289133487598 0.7330158548556537 1.9430741902562922 1.199530182175805
Ni 4.596665742305312 9.093055181331712 1.000955286713416 0.4434587310522685 -0.2139525497941928 0.17627406140681257
Ni 5.8741026675782315 7.517441816179758 7.3734626045768845 0.819013599173712 -0.2756757378356026 2.2009879761227835
Ni 3.567507398717617 7.4681724177668665 3.6574252060780954 2.4199284660498708 0.1906249308118459 -1.4280835126023081
Ni 1.5585155622887297 8.259874626778979 6.959532190902699 -1.5514805235044313 0.1179015350051905 -0.2770764748378712
Ni 8.833676890868794 6.862697629129876 10.605811477925092 -0.23558864000672972 -0.5211824082869927 -0.651184068989827
Ni 6.769648613331528 5.467036328599461 0.9997297901406249 0.13798185069483332 -0.26428112284541583 -0.5510192891427671
Ni 6.501878536382227 8.410899057367061 5.355173260212643 0.4239420011755795 1.8230208990154217 -0.669505235896518
Ni 5.384985358967186 6.606323006737525 9.74274211555632 0.09981459559649261 -1.3558136593933037 -0.14737794719775263
Ni 7.4631077712971114 1.2407552065896015 4.135256116388292 0.03651017911089196 -0.584922112537799 0.6575480635346418
Ni 5.550344217793572 0.6834647990378587 11.23423429062121 -1.4071611606273444 1.5136706517455094 0.27561557402162856
Ni 1.1328911756616584 2.580723880063914 1.3941816474285769 -2.4227417671289504 -0.30354572477299335 0.5804576490085422
Ni 6.259062009557633 7.05344441469425 3.1811377190533894 -0.3264097738553604 -0.15840823686998526 -0.20145261755496918
Ni 4.692228597227335 5.7187991652465415 6.903626072362195 -1.8604453624104667 -2.351407024139705 -1.001400458346482
Ni 1.834058207999096 1.424533482230261 6.6536802238464166 -0.09495443929071389 0.42479200788070065 -0.92009034931208
Ni 4.582506913123442 6.377120027814299 1.4678343611355473 -0.13111546259230322 0.3742852573804005 -1.3930481182647299
Ni 1.760463719242416 6.529355167686209 4.630616433558315 -0.5223512317841134 -1.3551158619953307 0.4303790150501749
P 4.983510463627469 4.040210816579967 1.0267064262365526 0.8784510765047386 1.30571160053059 -0.28110359371939336
P 4.431778228314615 4.544392675821854 8.781143198417366 -0.07942163376243742 1.6318079569105897 0.6145098534972449
P 1.4547180358255536 3.9591487468970787 3.0732348714919198 -0.32791464053566105 0.18644740239538857 -0.0823506344837743
P 1.6525257518696594 7.885173966517511 2.6821378803874003 -0.5878986786676198 -0.06997565785818917 -0.6164988589028156
P 8.763372573906336 8.78773463247253 5.6278712012087935 0.4853191187314803 2.018920962183278 1.0012639327686175
P 5.837374738616905 8.216760437396847 12.951013585650868 0.5642990369708087 1.904815660995726 0.3887633963919176
P 6.7812381510561135 3.2573347706675198 4.942013633975643 1.324202717356242 -0.2774726818350254 -0.5266010081994028
P 8.315687400557904 1.3832214936904699 1.4276462065569282 -0.29193436578631016 -0.3712726958063219 -0.3455760623711661
Ni 5.5976820265857 1.993049290515881 1.1769767050875328 1.7957700337192686 0.18339498872230997 -0.9087332724280479
Ni 2.0413944833685984 9.039451258841604 4.680151078966977 -0.5159561268910469 1.024862546024164 -0.12288664692460771
Ni 4.557636541499151 0.7510066655809567 5.088494670029909 -0.6109627595759348 -1.0553249762790793 1.301166918582701
Ni 2.672210988465568 0.8721256526529193 2.071286988006876 -0.020534372507925926 -0.8311692606996396 0.27327098504885194
Ni 0.8471508458003291 6.5126547732138595 8.529845237167054 -0.33621390442997584 1.3879591337775967 0.6469391776705439
Ni 6.900848834653871 5.304172824785545 7.59878946538074 0.03536038177716491 -1.7302575538387555 -0.0926684714700146
Ni 4.0469667592248415 2.4585069367864643 10.001371799515496 0.28624914247607475 -0.4515142543668934 -0.5902234701460545
Ni 2.746674230448811 0.7031402112084093 11.051475413713423 0.38724850240928793 -0.06146684905622963 1.2445764237821664
Ni 0.5542553164921302 8.803492337273502 11.328920998672187 0.1295925981898736 1.4240774767667086 0.353309683569998
Ni 9.097445157742541 4.7948338985178856 1.4693629971320759 -0.07961780893364352 -1.6254010249429813 -0.523234405720015
Ni 8.846634252822438 7.464826793639036 4.133550957129771 -0.4224055099263951 -1.011667644600445 -1.0618733189205583
Ni 7.901643309599817 7.534558103154187 12.70367861784258 -0.11627119849061912 -2.036733821994982 1.1091870164048576
Ni 7.495011347234328 0.6659889961005228 12.720776420705807 -0.7224815309832332 1.3844017554436416 -0.016399524403945948
Ni 6.107335182743817 3.50050249560498 9.39533601810348 2.016120002399373 -0.38954038376725814 1.033666260358723
Ni 6.723151831599158 6.197010848247531 5.448574398329418 0.14238460774821932 -1.995733468323221 -0.987396430757906
Ni 2.2069843935850284 4.688744342265477 8.857501986004529 1.7805534738798303 0.42579859476834414 1.3620575834204864
Ni 5.974018530688675 4.142446435646448 3.003220755075355 -0.2065475155793733 1.0394432720518163 0.405729849042927
Ni 8.503541422718932 1.7729774625271764 6.45735400931527 2.7139490249412486 -0.4332535083844925 -0.36075328433223675
Ni 7.881791374167273 8.906800034789786 7.577228673867435 0.2856960981860821 0.21227207676797638 0.8451540050145058
Ni 1.8012581526685096 5.733503275708915 1.505871889375641 1.827044161242202 1.2299393905952818 0.4525936034740011
Ni 8.72675554961223 3.564124806367379 11.619650190147338 1.1081318356674659 -0.17818233417311893 -2.1006046525070143
Ni 3.7496498305167685 7.7594358000557975 6.087129276581727 -0.10100115970542604 0.2368975886261404 -0.18004741240631572
Ni 9.149912307393635 6.361889120182625 6.314620626807511 -1.2903333183023067 -0.08392877760417158 0.0682645887043534
Ni 0.3306142066300325 0.46297430593039507 2.8984435707183946 -0.17470157471337008 -0.30169941559287394 -0.0007453628064567808
P 4.498071493145917 8.557015956430618 9.969354546294378 -1.021579504397518 0.22730017474569242 -0.2876120842618724
P 1.0004155506662742 5.170412554061519 10.74291829698251 0.7415873985747485 -0.11551966503657524 -0.12032608528628308
P 2.0019956003383683 5.96858420199485 6.727860658928247 0.9344998398691906 -0.46515961306446985 0.6138277398285558
P 4.554632873428584 5.634067999489762 4.5400960441726035 0.5023025406633542 0.18751389598668997 0.14801815188491282
P 6.66175685623678 2.7931987383479857 11.927869047643227 0.4746320713312793 -0.3804836728816286 -1.3923919727379697
P 2.2980371253734004 2.573274783248909 8.416613420345618 0.6333506403528317 -0.5440246029924889 -0.10846892883738095
P 7.804324464113463 6.90852898285892 8.492484227397007 0.5055601283687036 0.5921787941002123 1.2742749792878634
P 2.341668869869229 0.8111428729703781 13.308591489498985 0.9874619938885187 -0.5556372475307528 0.8912333158710715
Ni 4.7603887572901895 1.9128467320039548 3.2273313613620216 -0.6375176272463279 -0.33096962531190094 -2.239169372288511
Ni 3.163213676419369 3.0992863778221125 0.7864721297470854 0.8768780755906639 -1.0791135940582448 -0.6254604389714776
Ni 4.047585976950158 4.666092063985605 11.172295882389449 0.5635968686974616 0.047181028561176806 -0.8553299171062431
Ni 2.768365334946102 7.332924176090959 10.958871864995078 0.4292307603783447 0.15103199901057215 -0.6505798597469248
Ni 5.903972991283065 0.9953971144745277 8.743336721567317 -0.22947327113761126 -0.5567029697911058 1.2306754974303578
Ni 8.647283113492842 4.781488370228969 9.297159509857286 -0.9063634866442907 -1.133899174439557 0.08442345785240299
Ni 8.67071172444326 4.410059397650519 4.7518426284752575 -0.2916805979042912 0.9741948444659674 0.5812773166963603
Ni 1.250265281803795 6.9010614019327114 12.7134317591191 -2.9319523477660474 -1.7714103739279814 -1.1930304333840744
Ni 4.684456028466268 2.3861508834804184 12.46893687499723 -1.4779611141590416 1.1804901348252184 0.43286295781429324
Ni 2.712266057443522 7.707439995240391 0.5306437128407973 0.5546972522149867 2.306844921258614 1.5053297359799818
Ni 1.7918774662327406 4.375928486313282 12.837146839609591 -1.0892231716884209 2.112589849893349 2.39290128672875
Ni 0.6881255676778176 1.915212698238001 12.561594027638064 0.1685581808197936 -1.1345028694618269 -0.1465482522076057
Ni 0.780680133501473 2.0115888540529774 9.763762246816926 0.14574581091096836 -0.18455018537267573 0.10832803238414246
Ni 7.165763116422233 5.18384126085085 11.280617395069676 -0.7253681085024088 0.013517060649828333 -0.41572064170705175
Ni 7.951384052848398 1.3204494520434313 10.289923562690877 -1.4815588588126292 -0.015945467585662863 0.4719704653387162
Ni 3.2564845015521593 7.244108021758208 8.51704868698088 0.37767088602318183 -0.38581974038256134 -0.25263736795890035
Ni 0.668641466058223 2.4898929576099835 4.7260877921298805 1.2087157053298152 -0.5709723352259264 -1.3104889673145752
Ni 5.448469038895559 6.311030088206234 12.2555257964807 -0.14580237518051664 0.08664617653533464 0.5507878898582513
Ni 6.869056163383875 8.308709648578589 10.742932160065912 0.8788722232025574 -1.7958417674974683 -1.2893766108159923
Ni 0.686149616190165 3.7781615720481456 7.451619896184145 -1.326247772810729 -0.6100546459393686 -1.7163342588894441
Ni 7.971781269561444 3.0493053411278863 0.18015076881697567 -0.8481259431586361 0.16766240847840155 0.5007308253008602
Ni 2.469440288563326 0.33278424128532175 8.690068285695551 0.15242090893829877 -0.16222143996848834 1.0422951396783144
Ni 7.0421136545265135 8.850783935787621 1.4393069081096472 -0.3857312944338131 -0.09573528332079642 0.4586117846436231
Ni 6.359079535279696 1.899538171937445 6.62888563707806 -1.6461976499733584 0.05345349183344988 -0.9663488660589873
P 5.778586022934218 9.201760239319414 3.377761527774912 -0.3869571964211142 -0.28356311100347936 -1.2053228775981824
P 3.3707070667341013 6.055496492873641 12.727417761861219 -0.6653184515086801 -0.056056990894567976 0.7088719106195986
P 2.8239470573349847 2.013871641786608 4.676485679715326 -0.28996721475761034 -0.7648803076644181 -0.5937844480244354
P 7.9223824823701285 5.546213018939593 3.069258014966489 -1.3174818536926407 0.14129677400067922 0.7698142546309258
P 7.7090758390819 3.222640093938576 7.888395747100279 0.5033034711240428 -0.030381440505334773 0.7593840604365373
P 8.660148054890469 5.286076879917332 12.960293533680577 -0.43087986594599337 1.3262775976074 0.27359931492254813
P 4.991209095943722 0.10583170290111943 7.04718477043519 -0.5061059735698444 0.7508084029523844 -0.09717535820143265
P 0.2094674933912647 9.066410335031886 9.23557229973839 0.5017358695266069 0.32850985091749874 -0.3564819106503925
