# total energy = -381174.8077080705 ev
CRYSTAL
PRIMVEC
9.15478491775326 0.00000000000000 0.00000000000000
0.00000000000000 9.15478491775326 0.00000000000000
0.00000000000000 0.00000000000000 13.39895310697210
PRIMCOORD
 96 1
Ni 1.624727114805616 2.520559422211186 1.419699301870397 -0.1781309121098932 -0.4888078486110291 0.601941272803615
Ni 2.7809764293489514 5.695841585738253 8.63009108336757 0.6590313329483876 0.03610214503919589 0.15972181347508624
Ni 1.7204770085570709 7.801011804480798 3.52802425943948 0.20488195495149233 -0.834261269361402 0.9715975160524363
Ni 7.129673128834783 6.134017048461829 3.2245513841209643 -0.552758640431377 0.2668033750466373 0.8242339670323868
Ni 5.23369889652636 0.7839077399491655 2.9017976166301636 -0.6686040642384872 1.2252417280092962 0.7295926881067177
Ni 0.8993935186752245 1.7767789347996799 9.570832187388282 1.030259034449387 1.9568414192437138 -2.782372250710653
Ni 3.2623899404698995 3.108406460892553 12.931905214645106 0.21048027497487623 -0.37795370737092326 -0.7379999383338065
Ni 7.151141099085013 5.053074993312267 0.8786533538130082 0.27526256155758405 1.2447700278502112 1.9373617132525471
Ni 2.7221660920835005 0.8219467860842329 3.090187523751835 1.4658172797076563 0.2552688920444765 -0.7261234986111946
Ni 8.335394900193574 4.317973241848401 2.885947022305537 0.883808227051594 -1.8293373281517527 -1.3259078729728069
Ni 0.26942165342268043 6.508109017901135 0.9096807503043011 0.2078631490670033 -0.450907731131146 1.5296595709745977
Ni 4.009200661635277 1.387261153048375 6.188159360980759 0.8090965971703162 -0.0081334277404118 -1.7481915126093572
Ni 7.435946452809821 2.1689699136994145 1.8408825686104109 0.4574542740004122 0.26553170742306526 0.1503372869363927
Ni 7.004069481997612 1.5585654853819844 4.174832689334753 1.5983267944340085 1.8754091828091506 0.7056312921951138
Ni 5.884860426572586 0.8300368693721343 0.7293342370682809 1.0834135069851794 -0.0904102715634572 -1.1095598263632438
Ni 8.478081375383379 7.567253530549291 10.316135115504526 1.2355839904755688 -0.05605879066678087 1.9971465466206637
Ni 1.4369990986217234 0.7150765752910062 5.352586593267338 0.19895787615757346 -0.5720971928589889 1.3395809995845254
Ni 7.175730850936663 1.0302703215312146 12.098718183838812 0.20157808738923996 0.10889058975583181 -0.23210762343666477
Ni 0.7446465300493196 6.745730610999209 8.423788008915995 -0.43512912814065063 -0.6874412515496484 -0.09403578413118643
Ni 5.55996627040609 5.183988415307276 4.907794967601399 -0.41200385497709696 -0.5563278458398742 0.016218004520759166
Ni 3.5264505519401133 4.089460659581448 1.8307253349248542 0.6902581521731531 -0.6193139597541076 0.4801594289074118
Ni 1.4374568378594683 8.641695688522876 1.4952693035866351 -0.09714604762539399 0.03312635024032359 -1.5025732562807672
Ni 7.647751552899089 9.40562585717991 6.351063262823275 0.14094556130884758 -0.40514055219836037 0.09382983876796744
Ni 0.8690536465190245 2.826649650491126 12.08116571502825 -0.5014013690053236 -0.6322183265206015 0.3559846592989998
P 3.120582324616564 3.2295059536303143 6.753018735142581 0.8821838040742936 -0.22193171134492748 -1.0515284853511244
Ni 4.608857372650459 7.869333963106586 12.45802517589896 -0.14339042330491436 0.6993583147022084 -0.3730426432225511
P 5.723003832106029 1.213338552274865 9.890771774045428 1.7574014612433992 1.4510357505231075 0.32336610193303017
Ni 2.423784192567183 4.175552255416488 10.930638140956724 -0.15884223908361028 0.6129162837578799 -1.1571360334803102
P 6.915084974180026 4.47491371690158 7.102115395765595 0.4373945271360596 1.611523752740257 0.7062843523980804
P 8.755590365658534 3.5762251166524814 0.716321626017672 0.43914699105079213 -0.9997079011354073 -0.21363913231883208
P 8.394360868799858 6.403048708053951 12.458654109611622 -1.5022158729413482 -0.9368117758318187 -0.9240794158668151
Ni 0.4005520438163809 0.9497356800423964 3.183363092030213 -1.6878628909226285 -0.06461387932564357 -0.8217407682968879
Ni 7.477985224404302 7.734282578402364 8.270423392788079 -1.2085966632534477 -1.2055308798439304 -1.0347672067323854
Ni 2.018099060938732 2.8824022896484416 3.981659407178648 -1.184330077396599 1.0544358888059064 0.06390399774281252
Ni 9.0449914213303 1.8852082054366652 7.253120823862175 1.6340643570449345 -0.5357281673116515 -0.6364693884874717
Ni 5.672661670738857 8.993056327415777 5.2040996464568305 -1.4034302328300023 0.35160889882880736 0.7142401169100473
Ni 7.095580710407551 8.543162740205934 3.5054210958796426 -0.10438010347998797 0.09257873996968571 0.24847783726457207
Ni 6.170736890113716 3.687986728940249 9.777403497033177 -0.4249115641777005 -2.4892893731421966 -0.6302568319188565
Ni 6.141523971960843 7.608761324627987 10.566159610988535 -0.26843808243658285 0.5689344788602911 0.04150917498738012
Ni 3.315863038223246 5.782793731340253 3.7148734162869026 -1.03433191896718 -1.0902739815504385 1.9797008403403902
Ni 4.0192983892199265 9.227565293697186 9.892768432600471 -0.14326135392621778 -1.2294891904317404 -0.274706689054114
Ni 2.72270622438404 1.1747419797482244 8.02298512399733 -1.3158003522251596 -0.13379403786573088 0.6379470014742626
Ni 7.378619190674662 4.059634370849998 12.278278301064386 2.4708969866779382 -1.7413824601073233 -1.2641134653738293
Ni 6.928167161594772 1.97351525918239 8.098232877290195 -0.774897325580788 1.0491108770485675 0.8450041097002029
Ni 7.467869187250141 5.453972172513907 10.022858839446014 -0.03602912570941537 1.4654187587176568 0.530034459360984
Ni 1.729604328957702 7.2946423501180035 5.937384173146849 0.7485581734656269 1.5879781042098329 1.356479832222393
Ni 3.024905669143149 6.448456440438234 1.557910002793534 -0.30771219744585715 0.8980760498245178 -1.2710631572187852
Ni 5.4131326777223165 0.30788548157037493 7.775466293100738 -0.05536433570291756 -1.4441225683430419 0.06445704203280511
Ni 1.87689566087922 3.5550775638686725 8.330316741090034 -2.141043991468984 0.6346192226526103 1.3013132143525783
Ni 8.327659107075688 0.4600947638622229 9.135955193611895 -0.28832479405818084 -0.4373006818706726 -0.3442234049980136
Ni 1.2599913353858139 6.199968117836098 11.50371118800064 -0.7168778116432106 0.3940691248755471 0.6538212495023579
Ni 1.360117216250109 4.809099979594294 2.4729508795718265 0.15862343820458485 0.22411946302486563 -0.15074326412555974
Ni 6.981036043554295 8.013576751704724 12.775016921865031 0.5325289436480635 0.4525678924423883 -0.7154755319790451
Ni 3.1595725528876653 7.08901672973829 10.593493967309701 0.8029398335403011 0.292034124588968 0.27200934472760896
Ni 5.5324927613566475 3.3421921991783266 0.40653469565370526 -0.04980021135157875 -0.8792038955103632 0.35692105507034017
Ni 4.748779102844286 4.6165382370598165 7.523793020882374 0.3817604827115232 0.3448633525748577 0.18669294274729137
P 0.8182940269670295 8.955073125467713 7.4328146009451705 0.13263781277410058 -0.29201586975652294 0.13402775114309173
Ni 1.4718055902598373 4.573565677420336 0.1050777039382181 0.5017644087716971 0.9172045431238527 -0.10651823286891332
P 5.296967613967444 7.290504387408791 8.721619705868545 -1.2441660757176252 -0.2290976329657474 -1.64195378709534
Ni 2.6750921888738266 1.6500492494376577 10.751105488085415 -0.10327401490000278 -0.21466037449449485 2.3305929156078316
P 2.547282238910727 7.363998999421095 13.004353434759924 -0.3780740349988715 1.0671204262521106 0.3154933840531728
P 0.006773625240147377 2.314338740822404 4.820031708070116 -1.298552106667673 0.6319722719480665 0.39664228491936204
P 3.8922849055305027 1.8553269879966856 1.2688485896361754 -0.18046495955970857 0.21800615103827617 0.09814646386545033
Ni 2.1587714834824605 0.8607859604068783 12.97821194689232 1.141115489682338 -0.6383084985787394 0.15572580494181568
Ni 4.875197525524642 1.4249514018842808 12.044934738882274 -0.7183160867516338 0.20314080389066952 -0.7796237845221798
Ni 3.83326400821569 5.561128928069961 12.549687458257354 -1.3529800465992505 -0.6434486480187821 0.3257456579088003
Ni 0.3601116976401043 8.259510889360243 12.699848815199532 0.7537584867196438 -1.9226151510709921 0.9188086543861789
Ni 8.710896706485133 5.898171483606204 6.794166746180411 -0.4087480670439605 -1.2437528994396063 -0.3458912796187398
Ni 5.908424842531687 7.392287284313722 1.309825406199089 -0.09540386812330666 -0.993398928198244 -0.4419734047559936
Ni 4.743194684143799 5.462220633578068 10.148232701185838 -0.09587155178834456 0.30198095138903475 -0.4856258513386217
Ni 8.428526525505129 3.8177649576256516 8.537691840836407 0.6633302174340576 0.0994546411539126 -0.3191998863704825
Ni 6.673783157610483 6.856128160358497 6.131829970383884 0.041265948628322474 0.18133167843537806 0.1303796128675432
Ni 4.029698224701488 8.816140112027416 1.1475815643373997 -2.4585538917315533 -0.4882432343568108 -0.0252474617128791
Ni 4.788199605998868 7.637360872202282 3.3104791093088917 -0.648113143373987 0.6660684423008271 1.063080451854782
Ni 0.33170256958871175 0.5596594564210428 11.225548546093986 -0.07475559574533577 0.5015034418008266 0.3678916951492309
Ni 1.5671984474058511 8.39737279298422 9.56391757846291 0.24399717578539915 2.1993753802200255 0.43586163543130096
Ni 0.9413132780678923 5.6104549083293405 4.600691304649092 -0.745911222761083 -1.0306089615896379 -0.29938645118898116
Ni 8.211420805042776 2.379365176936429 10.642413475125963 -1.6929349061288974 1.5708663842302109 -0.8253922490065463
Ni 3.7749754936812687 2.9179594736364565 9.335840763950289 2.5076534774716817 0.6436777333104527 -0.4692332689132112
Ni 2.808468247967903 5.240473437244983 6.058176065116846 0.34130674557185087 -0.6918627776561117 0.050694441031073983
Ni 6.075572902586574 5.902657328136103 12.359930741771779 0.333906853563354 1.2868016509999645 -0.37430274088189724
Ni 8.796960837965909 7.537207526983723 5.071503575023872 -1.1984608603710263 0.6364079391219168 -0.7403620108080798
Ni 0.8020332982853836 3.795848402922431 6.253264528243675 0.36566254870839604 0.24208504636435083 -0.7712846685288652
Ni 4.237420290790073 3.2473486291176057 4.375642892933391 -0.1841544925961538 -0.4381092938148971 0.837228836630158
Ni 5.854384148123538 3.779955696587932 2.8560676358225083 1.390820514485792 -1.2522480813948111 0.010045557161460118
Ni 9.060096816175879 1.1292243899468828 0.3276039724539449 0.2563559544610682 2.4079026452335883 -0.633656858739341
Ni 6.192177396009681 2.893250709582993 6.058028673082292 -1.3783529781464003 -1.4108398950305123 -1.108574065411207
Ni 3.284150863832287 8.032847573613779 7.690194965979736 0.4782457568244667 -0.4810971102303328 0.7383462659296316
P 5.323177762720711 3.9642415137039837 11.747357544945912 -1.9314936845075443 -0.7846770306753712 -0.26774954100999054
Ni 7.891863888388385 4.362657746237048 5.041396234400446 -0.0289310812120534 -0.3545129598494798 0.7119045267983353
P 3.369098111572965 8.835136290393825 4.841014474728336 0.5137316084359024 -0.5502009070065299 0.1756793652456071
Ni 4.375355432692087 7.049211725624003 5.690735962280447 -1.0416827029052962 0.18907069895084858 0.5473307845475864
P 5.073142281494998 5.6390910750426535 2.57002638615579 -0.2512363738463157 0.5601518475716547 -1.3834954415792884
P 8.752743227599764 7.456013740992552 2.815548558497339 2.0206608276925198 0.01587244825588234 0.0985840656235012
P 0.3546893186297796 4.9523540514389035 10.029893376051678 1.6050921381823002 -0.6255918223430194 -0.8027878813434691
Ni 7.888238593625445 8.749401731164225 1.31412815503389 0.41562319689723903 -0.29034902357706127 0.9267471925069651
