# total energy = -381165.2502733076 ev
CRYSTAL
PRIMVEC
9.30219227725856 0.00000000000000 0.00000000000000

0.00000000000000 9.30219227725856 0.00000000000000

0.00000000000000 0.00000000000000 13.61469867777743

PRIMCOORD
 96 1
Ni 9.034447355412839 0.6816488422712419 5.511175954233869 0.4572784105441802 0.4602966285452137 -0.4851298855388097
Ni 1.3884824401326812 1.6310278036766 12.096523501233342 0.41583377024614837 0.5040362355250093 0.5846958554596059
Ni 8.136329985435014 8.389572870190696 1.0630954723248698 -0.034571053106650144 -1.4081006417224782 -0.8179692170695977
Ni -0.10483012655986197 4.647552043738945 5.625498037875889 -0.17491446205512456 -1.4498034207779031 -0.8840555671757097
Ni 6.97839308070436 6.777102940268414 12.95747675230227 0.44147743895618163 -0.26620687911321894 0.0947621207742497
Ni 7.949086155459731 4.12481534417806 -0.1688682791911823 -1.783656538285186 2.1563271428802997 2.4442169062835903
Ni 4.2724411369003885 1.9954597936881102 12.1705466271418 0.5077869608166932 -0.811811424998318 1.2248154391051551
Ni 7.409996201733384 2.2237635007318475 3.8692971431715977 0.35108747910769855 -2.4442127925185324 -2.2051382508457316
Ni 4.4335551085418965 7.964732443005978 12.883480602751652 -0.24290060028711072 -2.162128580053425 -2.295476788630989
Ni 2.682789484832416 3.67817988029842 13.013868502815267 1.0794624927572312 0.052700929938141496 -0.3269736167786304
Ni 2.224070473079663 4.836665614378198 10.890479378503775 0.17906679366060127 0.1424763961310772 0.2542489354203944
Ni 1.1466161366309 6.243203609877864 9.042147710246837 0.2496885697432216 -0.04694731528381592 -1.5517911127663144
Ni 3.4029094040388648 0.44915542778943673 1.0869509446271013 1.2989218313022661 2.1169411848835087 -0.8663499223658306
Ni 2.4102910618955606 4.637719626416482 1.9698564394418003 0.7166582394332367 -0.21915183460694518 -0.6389936975712222
Ni 0.28027691618666056 8.938923142087976 11.691759065595779 -0.18678730223331055 -0.5292932103195852 -0.668859374782403
Ni 8.063168242538913 8.893844717920842 7.317137996738338 -0.07796587515251734 0.6979724900982753 0.482979157744394
Ni 7.581565837585346 8.814329577644191 3.232946256807139 -0.9061387722279943 1.0205934863351647 0.21931715654021583
Ni 2.161457416317597 8.679019887603927 2.741292833010694 -2.127756016110826 -0.19407123748923352 1.2588727858001802
Ni 1.9586603207196456 0.6345844000356639 9.966300056196387 0.3803630881433643 0.9773143639315557 0.38010649204786795
Ni 5.800893665444719 4.234544005233674 8.855476895320809 -0.019563266843908245 1.787866719711792 1.7158899722631742
Ni 6.594705552511678 1.2521402067406728 6.3008827838132175 -0.4441341598527383 -0.3013800845802423 -2.1469081635592446
Ni 9.13199944667176 6.627691126613339 6.2798068065875725 -1.0723842457542112 2.1859711909989774 0.46046195047848437
Ni 8.347824630887745 0.981902216546825 13.487019866011543 0.502469919479154 1.5962102623116379 0.0482601205579685
Ni 1.3231438410097047 2.7171796899801444 6.309024062564987 1.1209652399867083 -0.46422347440344564 -0.3284365744774021
P 3.2923993588251745 3.7099375650088193 6.810875479843569 -0.45245656367550463 0.8137634065183663 -0.5819951686989913
Ni 6.172869733458612 1.1062725283740167 1.7653905305348143 0.36192596448409925 -0.6239666280347705 0.5114579819103772
P 7.278351575482193 8.182078167451927 9.379806130213392 1.2234023608077125 -0.08562107770492997 0.22228806624308167
Ni 5.111536096366358 2.7261749099903834 3.8853220299468187 -0.23063283866335116 -1.1792446924538917 0.18267173740304024
P 5.037295299156723 8.157641308127317 1.2619270433205823 1.3255276068152528 0.853272520356582 0.44862484863424024
P 0.43926161599740976 4.28395725103966 9.898580095829749 -0.5536384719331691 0.7629488949696602 -0.7143100509160343
P 4.750750565759205 6.870357418657913 5.084626714312977 0.3891153804146976 0.4362673555101519 0.5874921872578205
Ni 0.1299730222844481 8.59254670744345 9.187144703408778 -0.29826930686540243 -1.4721190535559678 1.6117548949144567
Ni 4.9532406890093394 8.636425148796393 6.399874854449164 -1.4689972200975348 0.48802443347778535 0.010048385374937534
Ni 0.8362215122465657 4.993277324918407 13.50437868717091 0.06897472739750057 1.2438526582422642 0.416038944278419
Ni 0.16392137329516882 6.215920279691688 11.055570967597586 -1.0260028302761943 0.24932398731495126 0.6417254946800883
Ni 1.8839544138921083 2.8769634481144504 8.917791351708184 -0.7270023016717222 -0.4428396094110309 0.5595574085207653
Ni 5.723118035139024 3.5021637964993086 6.846327995358585 -0.028745704674124687 1.2204209095818852 -3.131769743710439
Ni 2.324208573814122 0.2778127654310119 5.238445906707298 -1.5596041810528303 -0.18539762097463552 -0.16201678015685
Ni 3.7442905613871154 1.9120842435828658 5.857546807562979 1.0823089610670908 0.22469436169172916 -1.1966320346924038
Ni 4.455498980314547 4.734760097095708 5.087840621772685 -0.21115673221661052 0.4835280882693285 0.18853719504488176
Ni 6.923398519483542 6.977862855739952 7.47780546314666 0.6948784245539839 0.4465754223043793 0.9745236885602959
Ni 5.89318071582898 7.327895051981193 10.82857328836092 1.954212209150983 -0.6606102473997333 0.6351259870856998
Ni 4.26521333343818 6.33058840488943 9.67826697202158 -0.4328801842054739 0.3764380420573452 -0.8862561743714543
Ni 6.6843972912280405 5.59067342034504 5.6108759217082635 0.5689265084404912 0.49886986083272145 1.0523391541778777
Ni 8.312401882388272 6.679839216972594 3.765717231264659 -0.11667768990041842 -0.9408854316805603 0.3674337816762059
Ni 3.0326449394188546 0.8708238073800576 7.82740324700478 -2.544488901132476 -0.526993358541815 -0.8640410717269958
Ni 2.256525822216916 6.66144878268072 12.368408909693803 0.26571168464435524 0.2202419823473304 1.2554547612575668
Ni 1.159006656851829 2.6244740409397713 0.8027010620843154 -1.0721626166617084 -0.06390991128008348 -0.5549523056485862
Ni 4.779792010301052 -0.06639625839408723 11.013256224780033 -0.8717209568697567 1.45742314210669 -0.9247561302188654
Ni 3.407867472565708 6.820227904040356 3.3607062875296063 0.38201810724828406 -1.6998630007072981 -1.0901937631318064
Ni 6.150842141954738 0.07890305601949182 13.075393203071442 0.8405494163629588 0.45981197559931136 0.7594380536029244
Ni 0.5507204848316215 1.1866899813093996 8.11268567289931 -0.9651209071891572 0.49022632622511053 -1.3256253087353815
Ni 6.881873532797186 2.467146061587991 12.342935786140506 -0.7621073729049713 0.7862315196466846 0.3395195717644411
Ni 0.119725727182815 0.709019613065582 2.4296926444967553 -1.0057672199556098 0.5697076095808898 0.4318663982289789
Ni 5.083648123676909 5.919208250046817 7.451216076510396 -2.5246605535526387 -0.23665719048056014 -1.211488897199578
Ni 1.9837762400863934 1.9103261292271931 2.7778885879665167 1.1371580476964869 0.4590252180319578 0.2962831296733091
P 5.778428870900017 0.41111783301811516 4.330876579074452 0.6789041606129146 0.44021965528968054 0.011567907343257498
Ni 4.826786686093944 1.9219166609053293 7.986790731744633 0.01776478018258876 0.28469722460792257 2.077919552204673
P 0.3270325256359511 8.366512735335078 4.142435556942687 0.7438551115630028 0.3564657127004764 0.1357485904889404
Ni 6.905110409307606 7.99427620593516 5.287322416014225 0.12412771842056042 -0.01266448284154593 0.2765712530666785
P 7.338397227153436 3.4078116594115593 5.479453617854431 1.114436694839571 1.0080146212288899 1.6265914457066568
P 0.05944286960644133 7.179673918947949 12.914944338183536 -0.8047604316888075 0.1252050106451392 2.4429292978204185
P 4.728843902755986 4.386086020938744 2.7124839432777987 -0.8962287122031339 0.7512696588595191 -0.7113401696544329
Ni 1.1978712165237815 8.315546023405297 6.970113199286456 0.8287621939200436 0.6930637399427483 1.3712850155560254
Ni 5.707983368172468 7.089898460500363 2.940503003235379 1.3953006617443324 -0.45768078818892144 0.6070307715113804
Ni 2.5341962641048497 3.714449128302476 4.204477459093969 0.4163531330847281 -0.1509792913957658 0.48517513695444836
Ni 8.570109819475821 2.572279439618726 9.91941049517714 0.08928361415818171 -1.0491522718094641 0.27640336003024657
Ni 3.947189981101005 3.354696141047067 10.400962668291974 1.0761542543196048 -0.7182003871093761 -0.04758083510275676
Ni 7.48112076450307 6.022974205800918 1.648467553909481 -0.14801480945080314 -0.10842342031142617 -0.8803169260688839
Ni 7.102558744299675 0.787128261857696 10.98763333592977 0.3937665060334638 -1.7833418352582446 -2.0686203862909345
Ni 0.004648305521319947 3.4626666877470087 11.975502908874287 1.3949350508747977 -0.253190412248893 -1.1655309424122249
Ni 2.049003212901073 5.855423117047636 6.94696841448038 0.4536950640682961 -1.2013867757685697 -0.38790593348762875
Ni 8.846738415819654 3.451364524031972 7.573475720891545 -0.09640351303241461 -0.29688322515115323 0.18037985604506998
Ni 3.044030822865113 7.581193749891023 0.9208370445931389 -2.383752787460262 -2.891883761879936 1.2131426307529174
Ni 6.876701513846107 4.643170711138302 3.6518165369364572 -0.14777543974648744 -0.4640833492811556 -2.1454657746857633
Ni 5.207571930270915 4.187558631633139 12.448245905826044 0.8444572360577971 -0.7294466494471566 1.0145267113157945
Ni 7.3276252884028095 4.9659660881551595 11.081071067508722 -0.6953113983263445 -0.8115283465402605 -0.010069211310543948
Ni 5.4324524305268875 8.957797290382468 8.714291940587199 -0.5332395965618429 0.07220660407123693 -0.2773168729834514
Ni 0.31813776930317916 3.0798535656359824 4.022285649788345 -0.18732209169085803 -0.9127228532034152 -0.19793611976127845
Ni 2.4116119732104044 7.757702849885112 10.356647023898201 0.12221533188919599 0.09571317183360936 0.1787541475161889
Ni 3.816754639856361 0.7043331685555941 3.535492621498983 1.5417936352339707 0.22662988815154517 -0.2361108310587869
Ni 1.117007258355212 9.228453879232429 0.4743197185564464 0.6560444824059217 -0.7422756828910247 -0.7982306009900898
Ni 7.053582701534517 2.1225091369144216 8.259180319030898 1.039618878397732 -0.7101775168048995 1.408016566649104
Ni 3.1959821350339377 4.621980316946653 8.674822738411972 0.5783069212141266 0.9971589094613085 -1.05534220267026
Ni 4.511786546273137 2.628911186694563 1.1474207762698718 -0.7079874511321163 1.5963915250845089 -0.26950149070409074
Ni 1.1864946352698806 5.801414588216771 3.6904550533341096 0.524863970903638 -1.436870771876635 1.5946295480880794
Ni 4.8502375130286 5.580831700830219 0.9120939139958032 0.1877766627297734 0.42226692746600175 0.09840717372600472
Ni 9.25178377766643 4.495582127185405 2.2279364642236708 -1.1158109494792783 -1.6011231262322232 -0.8624091925505276
P 2.9928594627034544 0.23909797105602393 12.228681608502699 -0.5697330635021864 -0.4955647077188885 0.0036422247382775982
Ni 2.1038303346594476 7.190324929197922 5.137234332974719 -0.04003027644900847 1.3376680988325285 0.4594846741668796
P 7.634532520872109 2.722407522085371 1.3697887543699343 0.5522827292362231 -0.9009289458922807 0.4226572209258849
Ni 0.7622421066421923 6.54032493598649 1.7120619919653222 -0.23061458383090608 2.4047268186087685 -1.9866443615377594
P 3.1721220116355267 8.227733327545259 8.366967612541387 0.16411017235076897 -1.988268013184111 0.15672082186523334
P 4.295138486254042 5.835097826745287 11.76790588201958 -0.8237505996380652 1.710485256307835 0.33410662827898585
P 6.236301383148187 2.828964135546888 10.26349486962464 -0.02287896148070253 -1.1133874276394502 1.5468623080061297
Ni 8.076340146917918 5.326639992454014 8.72325088204724 0.3919009135796348 0.4840651917197211 0.37708081784766667
