# total energy = -340860.1677359278 ev
CRYSTAL
PRIMVEC
9.41075873562724 0.00000000000000 0.00000000000000

0.00000000000000 9.41075873562724 0.00000000000000

0.00000000000000 0.00000000000000 13.77359666366004

PRIMCOORD
 96 1
Ni 5.115876744138323 5.308195012677396 5.405310280049474 1.092420595579796 0.7363850284382027 -1.2624468763046839
Ni 3.824438302583372 5.742030997197421 10.044023905769066 -1.4269964501857166 0.383279747569527 -1.9838534290561833
Ni 4.373640780253746 7.389817234627324 8.26353843947756 -1.0069494131891692 -0.1992018738475795 0.0750733840960707
Ni 9.248263309659846 7.912500193764565 1.7848238261367078 -0.9428890923741503 0.6963763492557491 1.0192781099578512
Ni 9.230091134256199 5.746294070971555 7.713282897888146 2.0194547231995608 -0.24955178705504116 -0.06838028834661126
Ni 1.7070175538413788 1.7833764514204566 9.416994452133823 2.0780866739101564 -0.0661097471448797 -0.9914366622655505
Ni 9.337354964008027 2.8635245345276057 10.216276554217174 0.35833567602967964 -0.1561027286652602 0.4633873516553955
Ni 8.80914788940629 3.2737301034916713 7.419878021728242 0.04962897588103711 -0.17360654187697844 0.7296716209737691
Ni 4.268974319953708 5.204064965633705 0.6777929692035304 0.29910774360629777 0.7586428113951387 1.9604548476265848
Ni 3.957958149619601 3.691464279562375 3.3916384426163972 1.6860057831092319 -1.0892856494952403 0.09982745111229904
Ni 0.0496154029845224 3.521270705157935 3.9641654861790236 1.532624824250509 3.2005765780715074 -2.8227156875247066
Ni 2.187944975813427 2.2850451859712932 2.3117058658876757 0.6881156519088537 -0.7343034633188257 -1.00380803934671
Ni 5.717308933610998 3.7805841661872046 13.162738106783282 -0.005881912702073741 0.02896399133251786 0.30958858853296356
Ni 4.759735984958803 9.321488424530786 3.840023460370002 -0.03511509853557823 0.798517021882257 -0.2444653736710693
Ni 5.192819108768164 7.918014898470177 6.088122948041356 0.38301723793675974 0.08049121267753234 0.31446777100213585
Ni 7.7675933284795455 1.1235034492825018 9.495903665370273 -0.3568356944453855 -0.12012219680559312 -0.1341719900304399
Ni 0.4169775510564866 0.9345834057761878 6.774502293650007 -0.6270113283983653 -0.8662961863097596 -0.1295028666895447
Ni 3.9729871315562275 5.285722120464079 12.261380326320467 -0.4903505105078007 1.2771183622739297 -0.25877741941836724
Ni 8.170336165649157 7.16444838089011 3.909001499756909 0.25403887629211735 0.3080335853410179 1.0498007040267405
Ni 1.3015173643189621 8.966900440567011 13.703089765723915 1.073575437848835 -0.8699618080868049 -1.3721895296481659
Ni 1.264034311686787 1.6800839619173804 4.3360382109837525 -0.6803231524476283 -1.722795955354388 1.3114711287221865
Ni 5.153021009450699 2.2825701563849856 11.028353524078256 0.8618702893279222 -0.7028519296777638 -0.9955640541703626
Ni 5.259259066484247 7.557902799041905 10.518027832430674 1.2439773567455867 -0.5983232164350535 -0.13588691583901757
Ni 2.5513414300919695 2.197054590412459 6.681943715729221 0.7343723688835482 0.12415265812122486 -0.2327851091196636
P 3.3508889155758297 0.3739374453037244 7.881830530563897 0.27922771685291914 -0.1914559113535735 -0.3411578786988125
P 1.9050763852992632 0.04335913047890605 2.0165232973747167 0.029156309848982046 1.2744631840392695 -1.2910028335655057
P 7.229439081738163 3.2617031536388166 9.375136337696802 -0.05394945763326192 1.3383970065787532 -0.6202467559810221
P 8.655940734786205 7.726430669124001 13.240186770241046 1.2856202290973537 -0.7360798384929581 -1.8825637915760611
P 7.490352371777593 1.568086520447254 6.885504076830281 -1.1303168564049373 -1.3410138753763097 0.9240745307708085
P 2.8301069297330157 8.82957864694193 11.46970117633893 -0.08381513484444275 0.27505738752531345 1.993722094320147
P 7.606951674341652 0.06463779738993058 2.3868404237360363 0.007011655431142763 0.15492259231422997 0.4771628081729331
P 7.816830418956959 6.655571005034667 8.926737203804873 -3.9429350504843255 0.3709302248652386 -0.30078204598492714
Ni 8.500155032232092 5.044731406980591 10.392234218437633 -0.8375458536499447 0.38575340592100016 -0.5695556573840578
Ni 2.6147417126887462 7.321561000446765 2.0613429776323104 -0.07960161098372742 0.4007365095933937 -1.4819131568282542
Ni 5.853237934921351 5.42512369180237 10.89378531850243 2.2168619670405625 -1.609022326474642 0.13518526178630266
Ni 1.1922208106483418 4.275260706887751 13.3490532522307 0.30278544956820114 -0.6028149336578199 -0.33553950407077054
Ni 0.17278435632501166 7.296575435611611 9.66803209180112 1.0517408584722467 0.011986740048230969 -0.8042508390422408
Ni 6.21588152848923 5.324541500857683 7.797577888433509 0.6995390632544468 1.4219493746801124 1.1787983489450924
Ni 4.970282893454823 8.691108740733087 12.464333693473552 -0.8680915876472856 1.6865377443533016 0.6943770594375331
Ni 2.897073889946562 6.172017981334179 6.781141584042174 1.9456491500723203 -0.8814291852964562 -0.6227091014785856
Ni 7.979260117282678 5.089714834442755 5.912068353004399 -1.0970328975408268 0.5696687859231544 -0.6386759092204871
Ni 9.393612480612381 0.8847797876139994 1.2572980904781226 -0.8482125893351715 1.505508170539375 0.9149332305911726
Ni 1.9088783318881153 4.060328384752114 7.839724913168246 -1.303398379016381 0.7749726589034137 0.9614468007716797
Ni 6.434935763015751 6.9070264823963825 12.808425858054786 0.047055301616589926 -1.8117311850342155 0.30064860573085644
Ni 2.7039274746257593 5.119546940102809 4.83110247495029 -0.9934778610652955 -1.0650311478232497 -0.9992016509229501
Ni 8.150611215029764 4.730967295052562 12.902127843179894 0.018783451255090233 2.9283224643229437 -0.06199006854955131
Ni 0.6867529527363183 0.24278628627842197 11.226322012250861 2.5757779410537447 -0.7770321125356038 -1.8719253380256085
Ni 8.248633679558194 2.1907023281662332 5.037431481314818 -1.9953349473332214 -1.498104678986452 0.8698329958184244
Ni 0.6276646798598684 6.3029122266419675 11.682957442317452 -0.11180827762325905 0.32696821746199173 1.112321448268781
Ni 2.7709414886337225 9.495738036013929 5.721469430113304 0.768451055734812 -0.2644608429563897 -0.6725311672070353
Ni 1.686793833001172 7.904359887330512 7.097438131185699 -1.9603275780201015 2.7923195917313524 0.6067595201278647
Ni 7.078659902909967 9.055756825943108 4.651385212555954 -0.02164354641170466 1.2532382132222222 0.30146493098456467
Ni 4.1620304560039125 4.271167026773516 7.138166954556724 -1.0392242140624748 -0.5696363900233222 1.315381005299554
Ni 7.490681748338509 7.478523047861288 6.780975954685828 0.815594546189834 -0.6133328024700082 -0.4736771636171777
Ni 8.164303869204963 5.419449004195741 2.545167972264526 0.33475917426132024 -1.372443811750817 -1.588722181464709
Ni 7.887514628929409 7.877341598576565 10.97668939888484 -1.3725731382398296 0.6890147666843554 1.0845550767887902
P 3.935372328299686 3.083199879140425 0.7244345723809308 -0.38375205922025524 -0.7014856454578564 0.4966728531814027
P 9.345946986868478 8.424596049158096 5.438559432260054 -1.4993156685754179 2.836270800501322 1.0922755853614996
P 3.6246290699731945 3.66465302750386 9.441911318429131 -0.7063851396420029 0.05836018510644788 0.6621734781217952
P 1.0198251186652105 6.298743260456667 2.9583623982499274 -1.988060782269312 -0.09876661394795248 1.0279046752845975
P 6.486158523617541 5.311648761187565 0.910926640095354 0.7851940795211058 0.22728809056083438 -0.2639533071923519
P 3.338344373984394 1.9263352896166326 4.412137371617652 1.5466476208921622 -0.701086867357541 0.6926184248752135
P 0.4577026101239577 3.4110048433223357 1.5256327049729212 0.37903151381613437 0.006995971701858919 0.5137192671407282
P 0.6603378936267899 4.431159338548461 5.832911636809317 1.2801710330573242 -0.583312344848518 1.1551953648141717
Ni 4.685532151164 2.233163672247673 8.326993304475861 0.2835096320577246 -0.9764707849843376 0.46788472530511677
Ni 5.234452306067874 0.9755569088781779 6.32553851422508 0.25280011878900976 -0.5562471132006098 0.36197275856163463
Ni 2.324899749842059 4.704287793618412 2.215000907602908 -1.589607669393456 0.5419785190967376 -1.1071334763099383
Ni 0.7893433996267003 6.613410805237493 5.3237980509059035 0.7020453746160684 -2.3398329461488605 -0.9638356127188302
Ni 6.740173727395514 3.2167856014888367 2.0622520569404372 -1.1520725029144738 1.0190364262606904 1.3793755058736437
Ni 6.465643069251952 7.594256560608085 2.0953355797946704 1.3325531462034663 -1.382995104904102 1.2904521032683582
Ni 1.8993264116215682 4.48979777715029 10.82725878180462 -1.2076702947844364 0.0825465525446643 -1.2211181927592258
Ni 0.7674586798435914 6.5059305280313495 0.2842538542217852 0.9906344780792294 -1.5518227373351983 0.20371595966784914
Ni 6.138073374042125 3.3474728101011926 6.632634162408406 1.4590282818102809 -1.0920737537633385 -1.255409252731612
Ni 8.587759786676711 0.898136477697064 12.514910876015948 -1.4882596678715723 0.9468413921536791 1.7353578511797985
Ni 7.3247230154315535 3.066138173285006 11.527481353730602 0.632709407224407 0.18552283369859018 -0.4535814213085672
Ni 5.734238888842051 2.0112579777795117 4.246248278326433 0.39203486805433774 1.0621232301478354 -0.44500344983156914
Ni 8.147665647499291 2.9159801045431077 0.3947691011677923 0.6240597019692091 -0.8547120810165862 -0.48912923650618984
Ni 4.288416947806601 5.965894129513308 2.9577422292395177 0.28861635715667067 -1.6195517652510558 -1.2297545282779851
Ni 5.35012935426137 1.302119652887493 0.9168591824953849 -0.26283641997908924 -0.24071182016590803 0.6122755648500875
Ni 6.221471519265908 8.754254932840015 8.402555110777524 0.49577091019242364 0.8129478525956064 0.42569472220062815
Ni 3.560240657693671 7.484931774660815 4.450537973240948 -3.3097780141995385 -0.5116551855228478 1.6041634557204436
Ni 4.620983755983461 8.005337330148297 1.0818984842594424 -1.2871014416285702 0.3214115493098207 -1.7665404474301898
Ni 3.325526920385342 3.1314770722117427 11.893128861534029 -0.67000917211613 0.781293458915119 -0.4203771666424567
Ni 4.237796475773343 0.09275714493322428 9.953434999682555 -1.2041440267987327 1.4626188273750165 -1.2014189145580856
Ni 3.136173040894508 1.492009945634675 13.226124273241734 -0.8535856807216267 -2.359993223146819 1.2864584087279327
Ni 2.0951737147418776 8.271981772347655 9.523891262289201 2.390440226782767 2.258353658526446 -0.0612364782129784
Ni 1.4821004165305625 8.519635303120518 3.787367441190286 -1.0215969878990148 -0.39371379841865745 1.6543750435778282
Ni 7.128753372445762 8.760569552050708 0.22746086543697158 -1.4605346911524781 2.9844666156146795 0.40621244510630045
P 6.1892302593317305 9.713408888984604 10.790703629998337 0.5670812277016363 -1.2747981987811852 -0.22147559764411534
P 1.1242563099931657 2.381731322738294 12.208254710272474 -0.14826934866377045 -0.38289948141197283 -0.8606456728922017
P 7.257040837542877 4.179713271945629 4.159226990932578 -1.2016888803900205 -1.5374785527983843 -0.8165060022605098
P 1.962943141672661 6.33659333268529 8.652187724143545 -0.11981597841908398 -1.536702079643676 1.0253127461877052
P 2.883070680728215 6.79880275523846 13.579678014804236 0.15009688879081248 0.07749664882558266 -0.2611484907537051
P 6.604734085547093 1.7502317586334821 13.067452290938116 -0.09725069152405832 -1.0491936665703607 -0.1367348656616097
P 0.26778879047956744 9.637369957207559 9.002188904227602 0.37462644276990315 -0.5957639403483094 -0.4339261089714849
P 5.511476815315509 7.188031742651654 3.9860097396989347 3.303680385942233 1.0045312906659798 1.5038624074058358
