# total energy = -381172.55644116644 ev
CRYSTAL
PRIMVEC
9.24123396776928 0.00000000000000 0.00000000000000

0.00000000000000 9.24123396776928 0.00000000000000

0.00000000000000 0.00000000000000 13.52548003007210

PRIMCOORD
 96 1
Ni 0.779571075894505 8.636358073077993 1.421974518650891 -0.10970511523732719 -0.33957305071019583 -0.3042041842925987
Ni 5.83618106374374 2.6109997124286126 11.060434425522233 0.49845385634122547 -0.38699164920347545 0.15957731747742193
Ni 3.5982869243339524 6.011773746978759 11.338950425964859 -1.2372217831893078 -0.08372437490284934 2.381972041410756
Ni 6.85488847053351 4.6488396227624715 3.9624922650900727 -0.07096836078876165 -0.9874961895605638 0.35913323223031046
Ni 0.8785363726700511 9.613008624891574 10.113190403750343 -0.7271791935692186 -1.0797759102325921 0.058046510520771
Ni 4.08045753853691 9.10555399504044 1.5021671731063686 -0.730901122505496 -1.9738772916800782 -0.19444044790319415
Ni 8.948905841073973 1.9642889306029228 -0.020627357941628757 -0.17567576570118132 0.5755558408315506 0.4733586039354944
Ni 8.496741512985647 5.43515772344672 5.505492753818896 0.5483332576701717 -0.06920509824075177 1.384832672333473
Ni 6.916074679454043 8.32987255444795 7.726660260069619 0.9796532964773773 0.5863274775257579 0.02255268848953535
Ni 3.0438960680657514 1.3488597251548207 10.199550657636959 -0.13903626010127668 0.2881715563097682 0.1621689894639981
Ni 5.581797621219115 8.533447693597694 3.7681306360285003 -0.2599675830717264 0.6597255308019347 -0.46038198917016837
Ni 4.462721174241167 1.4683581192873423 7.225838987832614 -2.539800494517871 -1.4779269184869965 0.9641348891268039
Ni 0.8894798417236225 1.3106194997337106 5.943947711580442 -0.3368525664552392 -1.3047003856572563 -1.670798479241174
Ni 4.09668514507134 8.873432684714814 8.815772006484988 -2.355625175986111 -2.474682164751983 -2.160057556457009
Ni 3.603748493503569 4.965527463496165 7.460614380502596 0.6544388284816987 0.3331121255762005 0.3169679117161702
Ni 7.999710994849112 3.3252177070868805 11.812315068489767 -0.8798718681116653 -0.026874198683024684 0.2431260860343555
Ni 1.5003697531343034 5.17486913253058 9.759593999384613 1.580758446532942 0.08189812032738798 -0.6456950208507977
Ni 7.998842318872895 8.689005381976994 3.187536261350063 0.38588813172665154 -0.8754701394995439 -0.49651858699172546
Ni 3.1060803302355553 8.173270606650432 4.146655268541511 0.26425489759317067 0.34754501317207886 -0.7709558244345368
Ni 5.337274575147927 2.288000109016665 5.488977744913612 1.7920172515450559 0.5152932964960674 -1.5785431840491781
Ni 2.324456776316394 8.200134873276621 6.274821770304456 0.23828212767849286 0.5860518552668681 -0.4735840896827392
Ni 6.79863708045659 1.5425929503187046 7.155411545122542 0.8830914034902275 0.2533750174558733 1.235810247553762
Ni 6.819004759728732 5.8704752823367174 8.338295939047116 0.15461637392772082 -0.3354083778095449 -0.9213311636977165
Ni 8.566096972576133 1.697291203955578 3.6320784198087783 -0.42660489271972335 1.1343354906460272 -0.26657274709306994
P 4.504620928242935 8.895380614964965 5.732071172117558 0.25419108559926545 -0.21232221327962142 0.6857314679473933
Ni 1.9068361801333622 5.656799474655008 5.96511568169876 -0.011798535296824841 2.284558856166904 0.9569229447593971
P 2.4353793054922237 7.5046026533407995 2.2208163393667206 0.0352523954443909 -1.1501164076293677 -0.7922939237906806
Ni 6.910289667101792 9.176896319895675 5.437175084782974 -0.1836698396502514 1.3288808395582017 0.4815200567003643
P 5.096253956682975 8.819279054708117 13.023022044984502 -1.0188111976237615 0.17535772024013027 0.685237044809478
P 7.791182554388176 3.791779877419308 7.787808579931616 -1.3818491642251172 -0.5661114075891993 -1.2536902131579764
P 4.7523599236728815 4.396248979593017 1.1132202771255166 -0.862899759033701 -0.4758965398659997 0.22408115358776245
Ni 2.8572785929198123 3.0863133311597326 8.614337137080902 -0.35054677611288015 -0.018488288612174608 -0.42815115416092064
Ni 2.382214487501009 5.504827384986049 3.6746703422213822 1.7555101577579573 0.7167973361142623 0.04042339812236909
Ni 2.4217300031850755 3.1758886102817288 3.3927849879390912 -0.11353837294048834 -1.9186191425377213 0.6008878918384362
Ni 3.857790010377981 3.6236910760213936 10.84376907870961 -0.9366811637912256 1.2507835810341428 -0.958250405321569
Ni 1.5971901595472975 4.558959382925421 1.840668946200267 0.007844949965715522 0.9972285863569792 -3.3878022533938172
Ni 5.608144378753089 4.751740761008983 12.656183876721743 0.330229918932399 -1.4178901170090743 0.37892584147620545
Ni 9.363772549587724 4.580833383305259 3.580952217991536 -0.808958271820239 -0.9396446172949237 -0.3078214693302118
Ni 3.2392649916103835 4.174477851111674 13.121784958740058 -0.9187364063873468 0.16961490421908207 0.21727158686509676
Ni 2.3978876200080665 8.742900257437583 12.694027653213281 0.5254681801465403 -2.1074584422040545 -1.5231821907803704
Ni 9.060632357589494 6.503416625815994 2.058144749216233 -0.7581846408117975 -0.05960151371271671 -0.05308685252265051
Ni 6.127473994023781 4.833211478097554 10.316587187087947 -0.9949475036322865 0.7492803963436321 0.6734986733266272
Ni 8.397407490981898 4.438361281971944 9.779787943461512 -0.1686808224405869 1.7692989840119335 0.5311665160828982
Ni 6.3404474679374845 7.887383798137272 1.1797922770985938 0.05489022427997643 0.30486444358441683 -0.1552871747425003
Ni 0.21834909960907747 5.08753947321944 7.788593160680348 1.0065776316720472 0.8704585452175655 -1.1197941024967424
Ni 9.353792017095023 7.439692227203082 6.840579344133788 0.20093839692271198 -1.8800646793032911 0.6363940551648459
Ni 3.818524008006232 3.9285963436734246 5.2772767888927286 -1.5063864593792702 -0.33215310409704085 1.286306713641417
Ni 7.926991726159233 2.856751842593808 5.616833910885392 0.09852904401584968 1.0591518062243372 0.0850376943976342
Ni 6.581218573090118 6.773371547275992 5.390675044600775 -0.1596292537612799 0.2767851688496975 0.11668128944484421
Ni 8.61980702336093 7.199946899001086 9.331526188402506 -0.14065528376193842 0.45705575301041285 -0.4256738962650218
Ni 5.352199167718033 3.1621653781042642 8.752622035384178 -0.05755234449317185 1.975259259629269 -0.8855329230521846
Ni 0.7660317442694523 4.574225901145738 11.970022267848513 0.03978705008995083 0.03491326693741729 0.8336339201900482
Ni 0.551562114605223 2.5489171038304934 7.719721941740433 -0.6849017729572462 1.6721971593609137 1.3000214921243483
Ni 7.627021277350815 2.1509803356191783 9.399316182989045 1.1012819026251677 1.2864458103224425 0.27159334023611287
Ni 5.603671621598953 1.0086991505957001 9.163458641842308 1.952568502899973 -0.6521358913801348 1.881937470845972
Ni 6.325947972121698 2.1921685146191514 13.333229008461592 0.08831070872195113 0.5444555198823203 0.042780585500636
P 0.6736018480298677 2.636061938465841 1.9721911096163571 -0.32736956666546846 -0.7593498647644922 0.27230270759831166
Ni 0.6761699868999804 6.796557802853943 11.243081866632187 -0.9288585824230133 0.8710655826739451 1.766566415572119
P 2.6523449924030076 2.5330776291152244 6.39853971178528 0.8718412844977048 -1.0022196118136677 1.813770584061747
Ni 8.041074757291085 6.802204196699352 -0.3518913967315606 1.0111534239681876 0.07412876079461427 0.9416832449915072
P 6.992749196205844 6.604534205941124 3.185534610111249 0.408285011364613 1.5404970279097339 0.11161724465837551
P 7.693696779142335 6.143535258349999 11.234236157648839 0.22757991076964032 -0.6076182685837341 -1.5823844121721393
P 8.043902574830684 0.11989946367898757 0.8380532998082201 -0.5192520240334992 -0.2547425872273613 -0.20168607372201394
Ni 2.10650227739013 0.6481625796540262 7.993450058956699 0.8635322504113774 0.5698577620055089 -0.025771452537149162
Ni 5.822956858190911 6.915159797308879 12.040896062150619 -0.44940055045800015 0.8461171402587235 0.7164651495858242
Ni 4.59080467456417 6.825390452277303 2.801803466481213 -0.5085760323768919 -1.1056250100852119 -1.4041138891605884
Ni 6.163819766518036 1.029205448374686 1.8023917558439988 1.1481045194056614 -0.21854016916487523 1.242896464976582
Ni 4.273229675386682 6.340428985469905 9.348135457892445 0.7545491009417393 -0.40737946883120807 -0.8633288761513196
Ni 6.552450612303286 5.509161523633343 1.407475022835105 -0.11144318097435646 -0.3135601715862019 -0.2694169014100844
Ni -0.1732333962485508 9.110590467455738 12.337901923159354 0.05972055578908425 -0.6368167445245613 0.41431964759446704
Ni 5.928584160405334 4.606061951550698 6.378480689721709 0.3840253674862999 -0.18162941218145495 0.3001282144510122
Ni 3.9270160926954136 6.643153321947605 0.3220579216887937 0.30512695321718414 -0.10870007101158052 0.2515284511654378
Ni 0.8314227145642262 6.959600890602769 4.197335118766718 -1.4225795520649436 2.087298936537044 0.7723046251529474
Ni 4.333288453784892 1.4154705383098138 3.520100541734183 -0.21035351958902482 -0.17890892792649832 0.3857333513163421
Ni 4.290926638093648 8.64202294939098 10.980863706100791 -0.723369075794509 -0.17478307868358287 1.8864469286805512
Ni 5.047783685456847 7.150589469331161 7.370764636737051 -1.0328329658241504 0.1714110768875564 -1.532287752626064
Ni 6.639697100510317 0.411989912435066 11.694034668970705 0.0738618802864728 0.12423441920175378 0.025687120353458985
Ni 4.089190504468024 2.0873636822119956 1.338597335031538 -0.36259393708540133 2.847152737521148 -0.8870406179459626
Ni 1.1662991516424888 3.6860416803994087 5.580531572189948 -1.4562448055278725 -0.6702979070011424 -0.9096976932238462
Ni 3.9177748589058754 1.8407151523692147 12.364047221796717 -0.1525975437254791 -1.070610698793556 1.1018606579467733
Ni 7.493356071818932 3.2420003968120867 1.9141931263532137 -1.0245599271820809 -1.635097940515771 0.95874842800391
Ni 2.361763637124761 7.060090066830211 8.202081077112698 -0.8773385601668503 -0.35098412076061486 0.6220169605075675
Ni 1.2921739970897919 0.5703800389708601 3.7734193941262535 0.6835807401529775 -1.0527289334171288 -0.8721022514685753
Ni 4.510766348712978 4.569244876133177 3.3462036248995437 1.2666958813890248 -0.7512172083550287 -2.2393310946773566
Ni 0.7673865091429986 2.8799196157041815 10.142595085545274 0.708097237237103 -1.070832327886059 -0.1830787430334718
Ni 6.218629524123788 7.799444217396024 9.938319460874286 0.7522772741884269 -0.5047139783183243 -0.773643655679345
Ni 9.075233506976964 0.27856497898170995 7.776001055518723 -1.2969536518323017 -0.07796021872556251 1.06433643574907
Ni 1.9605000247492121 1.1253420034872543 0.47543837538727907 0.06581458450196408 2.9741958298162907 0.8642297906990343
P 6.397613740159568 2.44967549416464 3.61572605661819 -0.01092744554578118 -0.281608815490586 -0.044635379321187635
Ni 1.5465666808482061 6.351426053679456 -0.08355369118473288 -0.31605671275581054 0.27747782404134796 0.9891437524663157
P 2.3158809113597028 7.636835467635305 10.355121283743564 1.5188064303101778 0.8052373713252261 -0.7241481200523786
Ni 4.19418016155097 6.208011346499608 5.251362521100105 0.30456362451454644 0.6523258959037539 0.2281761495927425
P 7.780139280009678 0.11192520304199485 9.813899185625457 0.8962981319884887 -1.4179446243960936 -0.2826395707479455
P -0.3349614564291262 8.672167854012455 5.277182528308074 1.5387031692341049 1.0647953776633596 -1.3190689956741026
P 1.7147571358178058 2.6867870707366177 12.002822178937722 1.5565522816003836 -1.3508056646557511 1.1990506714362255
Ni 8.647697066937758 4.520192407178307 0.7350274049055509 1.9488077503059598 1.1403084204000102 -2.2727225256536085
