# total energy = -340870.9772344908 ev
CRYSTAL
PRIMVEC
9.23543397677594 0.00000000000000 0.00000000000000
0.00000000000000 9.23543397677594 0.00000000000000
0.00000000000000 0.00000000000000 13.51699115698484
PRIMCOORD
 96 1
Ni 1.947309731314576 7.567542331912229 10.398635073471915 0.3236206411459975 0.14993568062259985 0.5632060610169461
Ni 5.092584549456589 8.979880312917924 7.296890549980075 0.16197589961658557 1.7253122940183383 1.8460996352117562
Ni 5.485810858620894 3.4345655529877717 10.537616349218096 1.0893180453950724 1.2433168403434522 -0.94929859544492
Ni 6.874977135702186 3.0968442022075493 2.6450319938743148 1.2446003350415662 -0.10263792397790066 0.40200020679716575
Ni 0.7431236561397974 5.3564131927441245 6.890597025238792 -0.44928613636732295 -1.716120343106425 -0.4386024314012318
Ni 1.6837396801792455 0.9106008635156096 9.80479297262668 1.181650987902539 -1.7641827458312906 -0.8710740673143773
Ni 0.0749944947697615 3.802643775350104 1.8753065936197901 0.5070122874341978 0.3854024503394846 -0.8079069477375892
Ni 6.388943950198173 7.184539648194043 7.3723024863669675 1.1412890391457247 -2.333683124497381 -0.8716754483438021
Ni 5.523362133294718 5.000036265269086 2.3614856989811193 0.49149542274552127 -0.5946658221881244 1.3269656248133597
Ni 4.34906746382808 8.70409178259089 9.984460952892174 0.04535605953729608 1.8598367822921902 1.610658319416168
Ni 7.7531006719876014 1.6446091462901675 12.937126177094216 -0.9570293884302744 -0.8004597474309247 0.022920099131283105
Ni 4.978462291427952 0.16469180047920012 13.65337749090287 -0.1034107975881832 0.3815205987865752 -0.8269266833732017
Ni 9.153321763575674 4.6304249608615375 10.65883696182477 0.5066258506290565 0.5391626469144972 0.08859738672443451
Ni 8.520214291504852 0.2806085033354625 5.392643800354899 -0.4939387420796913 0.023498340232256307 -0.2464926885137432
Ni 3.331137927539628 5.539718086921708 10.4623272441035 0.6689128537281576 -0.8416642466936923 2.22605031840805
Ni 4.287827300925442 2.453891757484909 5.8424223661197185 0.8851675692929658 -0.20902657324748516 -2.1343395828656146
Ni 1.2504131165550927 2.0745278347656138 5.7660102322298314 0.8855794600194039 0.8886514140765083 -1.142710859193916
Ni 1.9654481237049815 5.24665005956695 -0.0441407568380571 0.36910062785566755 0.37500310938303155 0.2536174724839826
Ni 8.355509561418042 5.774261168971985 8.687032088892542 0.5636788868883066 1.0041546240528512 -0.6412045891796118
Ni 4.5584716945103905 1.5938789072878767 11.721191706318704 0.5192790206166928 -1.5919946815683936 -0.963692916493379
Ni 1.685466706338617 7.111801369952274 7.848857345949253 0.7656215567058169 2.152515739554009 1.5185891720930493
Ni 7.990183498389896 5.901008265288649 5.748775988828744 -0.21970307912472486 0.4789214427352526 1.7605598043667228
Ni 2.7830426255063245 4.030214104724842 6.534897978619891 -1.2324989237923418 -0.22494735824279968 -0.08759491360184914
Ni 2.760886819322728 2.859789082107277 10.312031638154934 0.6582121794812019 1.0337904446414132 -0.5090933383329426
P 2.027011526797876 2.851634193878801 1.320595026663632 -0.8491309873843826 3.1360110354852955 1.5856476563044433
P 1.2322654887306794 6.508219580402903 4.158853541469609 -0.43836331880723217 0.28165098158243107 0.04722885107997673
P 8.799964823021034 6.909194418699362 10.916403057311932 0.6419859474303266 -0.9523304402927081 -0.8019129349376835
P 4.966105280726137 2.750330718252344 0.7627258648203658 -0.42388492268539907 -1.1878740859941153 0.3154270495916116
P 8.895025145258531 7.495302767106856 7.246201870430817 -1.3757692765796241 0.3300327153199284 -0.9939463160612818
P 3.8033456683346607 8.022461340245531 1.2821312911098832 0.3430458397501447 -0.953365566425442 0.8431472589971222
P 9.099442241576881 3.8533924852204087 5.424517130201013 -0.19929031979632775 -0.7679468624048839 0.8001363026532349
P 6.608460981118516 4.688026362765284 7.505282577095182 1.242649896183415 0.009475800700919164 -0.2566757996943322
Ni 7.517948051292841 5.576428937100864 12.223266840693459 -0.06520986103842963 -0.29120083005439523 -0.4136107944529006
Ni 4.1668800571653835 3.7300809703544733 12.366816885643068 -1.1960581644668047 1.2243765517955236 1.3689242286333327
Ni 3.070356977474513 1.1041423127469225 1.3505677041910364 1.5429992255062976 -1.6981020521521337 2.5416550312281063
Ni 6.493775361615431 3.998462682607625 4.8494635963003 -0.616693234301809 0.1632686502860801 0.6312122538535904
Ni 6.141268080989466 7.4244762237046045 13.012997114551272 1.1334970539051314 0.020840590894435077 -0.5207959714818514
Ni 5.335965941851886 1.5130965660257187 3.6513581308759506 0.2527589811384292 2.947756661788156 1.0070448011164526
Ni 3.168751291388659 2.724065143935484 3.4998332886610077 0.285729779637495 -0.3484425852856838 -0.2780915463659469
Ni 0.3594477092824775 2.2436563377419376 11.190013872300039 -0.6947946065909261 -0.6307743949852234 -0.3104735622410782
Ni 9.085016493657424 6.766571611324089 0.03600895719459873 0.1905997340008653 -0.7719639539840769 -0.34035852272596867
Ni 6.507840927608601 1.0922470737454752 9.711404263944509 -0.33681965633477473 0.6634934824847992 0.9495654759530614
Ni 4.052166731360278 6.973685454372581 8.701428283423175 0.3107275872334132 -1.5066096311336696 -1.7477091736562997
Ni 1.6190639358258792 4.427725655268551 4.078387052050502 -0.08439003351130626 -0.7432740422485522 0.5213927245255859
Ni 8.52424094073205 2.174695352009168 7.076266190522252 -0.8501314036244391 0.46297263271548006 -1.1138941920725396
Ni 7.9549780239539345 8.412501424677306 1.1796863158401205 -0.3189782572779797 0.42945573190495717 0.06616374031126669
Ni 2.990452002443051 1.980464939400908 7.75856343120294 0.1844537690041275 -0.16127218868134163 1.4144353256912543
Ni 5.78828055779512 7.279664618469594 1.983334388746987 -0.13547913887763766 0.8430639552546966 -0.21498356216186848
Ni 6.71493629978908 7.824545989468344 9.571030284750021 0.22650570386885507 1.113119261579728 1.2150429330994235
Ni 1.4518194613870519 8.64462482301766 2.8274706043420097 -0.5196454028171761 -0.5984918808024339 -0.4030708141535252
Ni 4.060460151098864 9.035015853941713 3.2291150116040006 -0.7049280954805021 -0.018048115750962466 -0.39442907931812715
Ni 3.744885371068231 7.547446027512269 12.633791117753502 -0.5799822520340205 -0.8187824569995124 -1.2970189578525986
Ni 4.731820790828067 5.226636874073055 6.583882720594795 1.485971386058028 2.0348435469508055 -2.2688049357667572
Ni 6.439526422256345 1.0720214732694118 1.5418289247659382 0.4877889204282116 0.5180189229573466 0.7462135844928504
Ni 3.915353011975619 6.84370595615335 3.722281646335279 -0.07401100426982737 -1.6354900337478673 0.4169809964767141
Ni 3.106569114217273 4.958522989406116 2.168043992437086 0.4921675091118814 -1.0167602286320037 -0.4627648875800482
P 4.098362372264967 4.616673399624616 4.497481811869352 0.01877290973212896 -0.7740552892954669 -0.49085470383772883
P 3.0105575422770197 8.916008051323196 8.172089224315368 -1.1328643054171394 -0.14571855721745872 1.1733031301584762
P 5.935170135681781 9.076870840862956 11.535034910119657 -0.3893871460188455 -0.17585060071614875 0.39822582735639805
P 2.2516726944603045 0.7554317190413725 4.119952046343913 0.4459840685772835 1.8966444380388434 1.1452855618996274
P 0.028120973008934 9.094612109591045 13.07931122489754 0.8438136889365275 0.009506396828538467 1.2272908972288412
P 4.5520715387433075 2.008152770554898 9.253948281889393 -0.00829000792293411 -0.37199157625021745 -0.22470798853848398
P 8.149337732638298 0.43233560155516587 2.91754748638915 0.09743581095167089 0.6582471464841955 0.18747172989484487
P 7.746571220144416 5.4623713271102785 1.3849641546079545 0.4764884078137277 0.6895711534084576 0.5324232713081346
Ni 8.517101950244381 5.0222936612267635 3.6830421343249147 -0.9198268112380481 0.4534443815100707 -0.8572500169470914
Ni 5.8827313413881335 2.60948111420648 7.475639604561839 1.2707381697791986 -0.7507505531312555 0.3557656013096583
Ni 7.518197408011039 0.20883994566446307 7.852033411704375 -0.027494862986159097 -1.3234699529552756 -1.7214512684010352
Ni 6.428129896691295 6.545022784922133 4.237860832315557 -1.4193330201031877 -0.174695404065783 0.010777550231478212
Ni 2.6646166552302692 6.315863960898131 5.907573735324463 1.818425052114623 -0.20146495885014337 -1.1912170343244193
Ni -0.005835870749234916 8.41006327009937 9.302312402699002 -0.37085874819735487 -1.4376107353664531 -0.24647057702655614
Ni 4.764431108307965 5.526963952557578 0.22133641141978794 -0.45495850416175193 0.8367765795840879 0.2555026053218374
Ni -0.04399760761094341 2.142334391247467 3.633029488544994 0.17644169733292836 0.2510785081122128 0.20038689529461617
Ni 1.0442689940773704 3.287565149893022 8.126982441080143 0.02133552825298261 0.6898130942159345 1.3923451786604342
Ni 4.3861477313675294 4.205096283087736 8.459771146557047 -0.9444942320777411 -0.96904903859897 1.7744576453947374
Ni 6.165732745674896 5.647541778957343 9.392971117088605 -1.4843487628529404 -0.8914289768216453 1.727869513222553
Ni 6.4578587587609055 8.905368831346747 4.101068354429116 -0.001157253532894781 -1.1580096943345153 -0.05071321008415137
Ni 9.044500644667247 3.695189500674762 12.957522633099412 0.7208249692164167 0.8448321028987127 1.0701221891929118
Ni 8.047055301007063 8.899753687470287 11.419965096561867 0.007153837435961874 0.24549972847285462 -0.7843875244594104
Ni 1.5752602723290898 8.184912624434553 5.281886010935135 -1.4998026355141654 1.0609425795761729 -0.26319123221534674
Ni 0.9946470071559601 0.2635340329427018 7.140039632973101 -0.8006757200964726 -0.43278736738135143 2.1480476764803265
Ni 2.4862250119445886 1.9643398716241014 12.928380221089268 -1.2464877818722664 0.7862973398876135 -2.2608391439524613
Ni 6.780664883619282 3.8296943615575874 0.3547496440029463 -0.24687835398793612 -0.10203782850005652 -0.509550223364703
Ni 3.159543563683346 0.34804287182681964 6.186469989194966 0.7444089271839437 -0.059090378404253074 -2.635621138463622
Ni 8.549481381874097 7.617459852721874 3.5047123684470827 0.15241113874628592 -0.8714116531594541 0.7445099715381823
Ni 1.7924592093135918 8.07589756141197 0.6098055485269146 -0.2869420547780413 0.3598282014148061 -1.5806962258364392
Ni 1.1503010119155823 6.166185281941255 2.1398611420203024 -1.0691125169814748 0.12565752480152553 -1.1750867044214601
Ni 7.823289970443347 3.3658169822371704 9.07173963372848 -0.6303344792343273 -0.22121694466609002 0.5489189549703126
Ni 0.3499776952513563 1.5459654756578234 0.9665491227320444 -0.08225498944617447 -1.0902444138640837 0.5710430405628617
P 4.788470943029059 7.5651134127683 5.7831096382944125 -0.20345782091045606 -1.3981209048019472 -1.20008374068643
P 8.859791964520548 1.2717284982440213 9.225630594136101 -0.4603213111355621 1.8199389176559884 -0.020888413413234996
P 2.8729680464357443 9.379414423509239 11.73085566446398 -0.72884141176299 -1.0515212862622727 -0.6940417875853016
P 1.7480552426063256 3.8803507170878193 11.88613932831991 0.17636790667219948 0.526991301659286 -0.3112904017154187
P 2.4414885696130586 5.225741036974344 8.609350082826644 -0.9431873403408595 -0.8971900476751387 -1.4665230475254292
P 6.194842833666015 0.948479072553293 5.905884574444521 0.7150934660492781 0.8700525680283984 -0.5748343892844938
P 5.443614160641381 5.692472165403027 11.624274138302333 -1.475788531987755 -0.07176334588623125 -0.3296110544014775
P 7.300001044153745 3.2850161701069975 11.623990610478307 1.2314527419160148 0.305066532292894 -0.6547653585831821
