# total energy = -381170.27421750355 ev
CRYSTAL
PRIMVEC
9.17563404063671 0.00000000000000 0.00000000000000
0.00000000000000 9.17563404063671 0.00000000000000
0.00000000000000 0.00000000000000 13.42946790576895
PRIMCOORD
 96 1
Ni 5.440728768827363 9.091640055851748 11.009423679427437 -0.7387504433465858 -0.8083599761146079 1.6021163433834278
Ni 2.5344568678353108 5.131739300352133 2.477253213987794 0.8361931962767922 0.9408358093895474 -0.975689940954255
Ni 5.265896242254919 2.109478212396595 2.964568372826069 0.49509265317847634 0.014321301718678563 -0.5334673963019329
Ni 7.180217899194954 1.2985907502724687 4.139982662173459 -0.7483429721310273 0.9180262676941996 0.28150340026097326
Ni 8.490269016093274 5.5645447714288405 5.536137009160115 0.8333665254612744 -2.4780019731538356 -0.32640874541409587
Ni 3.154665483801048 0.25355762951598537 6.480832739102334 0.4678068208793298 1.2423642466221958 0.12411332024285723
Ni 2.5138575699369623 4.62102352261401 8.40902244897937 -2.145553449303563 -0.08925944578846563 -1.2709677692915013
Ni 1.6410345796106736 5.678772236701242 4.686696286466059 -0.07110231526346465 2.8527559426405387 -2.0471745577123324
Ni 1.4279488356938137 4.336780738518222 6.272944991737552 -1.2241382105324723 -1.1514682936715717 0.974987772680908
Ni 7.308658421235527 0.5459364481090858 0.4820547679763048 0.17513197738256936 0.3090370869048678 0.2710824620379654
Ni 7.15310390129312 5.7468370882869655 3.644086450598197 -0.8577999759132905 1.5205190421259103 0.48775189654268897
Ni 2.9524712172139607 6.706452398800551 6.455558455778949 -0.03249283042138275 -0.32298326467231475 0.9160627162099255
Ni 4.036590702864602 0.05677239905855352 4.145609160824358 0.5697803718003541 0.66063570132103 -0.7153567470129937
Ni 8.614690610526063 3.716847391566716 12.453373902918548 0.1638612895647565 1.3873644376163914 1.1133604310562568
Ni 3.446239599309211 3.673373238585702 10.576364043294257 0.03895324133474582 1.1070054353725063 0.044640778637826346
Ni 7.431437577216731 7.3760167490180555 6.3853226492343165 -0.14693597456432758 0.1530189475336139 1.0317019375435006
Ni 6.675218541319046 1.6618449170866 11.745922443145554 1.1269137442606594 -1.0228848534725028 1.5425263996349372
Ni 2.5531659851692674 1.4046977796250317 0.22313856831660653 -0.8638968328396477 -0.5845431319318255 -0.19243215922391377
Ni 2.6282043184488644 2.647390568740823 7.196059630963997 0.2449474555138104 -1.6882290160127955 1.1883047457736309
Ni 0.9371808858536905 7.624832410982208 9.462376034472701 -0.006866902323162367 0.30286129711145904 0.47137396940529785
Ni 0.9899866584171634 0.39765086526916016 10.847074602650407 -0.7301151362690909 1.7241411565283724 -0.9720258618391066
Ni 5.005675267467763 5.0132451653591374 2.581667338902831 0.14654362422191533 0.5824008887778422 1.8193521919145828
Ni 7.404929171146206 0.3676015821122328 9.902566973201246 1.025124541436299 -0.12756734022972868 1.4145911345428284
Ni 1.707438641477199 7.82793506531626 12.056989275114855 0.3110705723951288 -0.6129337672593765 0.3308729518330366
P 2.9163650981805525 4.685473174479489 13.111376954538317 -0.4886551250832488 0.3800476137854745 -0.3211431261397824
Ni 4.059795880764346 6.942523105405769 4.067490567275506 -0.3547662135108664 -1.6924075728705175 0.3441503856682331
P 1.5563985333681933 1.9210473965210995 5.42528984738248 0.5785550326691907 0.2373097364628945 -0.17740277569461707
Ni 7.148892285375371 0.5306094693966574 6.50312585900159 -0.8791871833398148 0.38072612790973787 0.5558740461319073
P 5.601843722857253 5.919394057675094 5.545080499432507 0.3445712752557356 0.15509819866014576 -0.41717614320665575
P 8.347321817002685 8.771584773004397 8.253616574304647 0.3903101720537472 -0.7850269578156223 -1.5379783752529383
P 0.7664104123679282 5.487386866739658 9.475443054578285 0.26543966192989127 -0.7131049748643397 0.9409075431677473
Ni 1.7165959240173112 0.45788156070984626 8.36217992082754 2.5834933074201314 0.0021160179017382912 3.0625589890427323
Ni 0.33327828872766585 6.2787394044871325 7.556613408748513 0.7213451033859447 -1.3988603540711328 -1.2142772585779924
Ni 5.871010940606944 8.304765227402445 8.597383530037927 -0.43959821965559776 0.8564545176289894 0.02247838360817419
Ni 6.466454520925625 4.782936756785173 12.338457347547186 0.07914858260670886 0.979730686682532 -2.095824714619868
Ni 7.792388659945122 7.085580412102051 1.177497158221744 -0.49052534552276805 -0.4642296450510328 0.5710378983565392
Ni 1.6583214737044325 3.1428931456257336 11.823410670651814 -0.7775357916448996 -1.1866900929883433 1.4155851230249814
Ni 7.833679012079897 8.815921435563338 2.726343227402797 3.783097794477297 -0.4604454954182522 -0.7759640762824056
Ni 1.4437951552797592 2.6848179790425446 9.415305950602438 0.33229734298438895 -0.8357867048669929 0.6103202408959296
Ni 6.118019002710975 7.799408019808035 12.932590647358122 0.07298436277752592 0.4751324080064656 0.43173964284312744
Ni 7.583505356312202 6.596161280431664 8.752910523078912 -0.004768625033236949 3.2185149077174824 -0.307416006361677
Ni 3.864290651223092 6.344831494804195 11.87017245322614 0.6766418469412991 0.292435988013077 1.025964520839091
Ni 0.883614453247557 8.286138690772757 6.832536618079298 -1.256404783875662 -0.46566689171819153 0.31294002150369976
Ni 0.8597412892066111 0.5221935780682097 3.0892606484561846 0.40866733440469616 0.8351056196395682 -0.7423926680848634
Ni 4.16395767574967 3.6284860379982984 1.0039694067767595 -0.35310219554488215 -1.1133318918111665 -0.3271674779569914
Ni 0.17023461647139101 1.5308902713827104 12.910659964994272 -0.10558980751737299 0.01019313848291793 0.30395658705816686
Ni 4.135577440382368 4.3453049023256005 6.316751302662405 0.08346135104944981 1.2769926353293428 -0.54940926434317
Ni 0.9322076923299021 7.291472459113653 2.536275478456002 0.8585090861651731 -0.756004088220711 0.7031782026689309
Ni 1.454420539229108 5.401713973876904 11.578349678041787 -0.10510026947546416 0.980598433999466 -0.7683425551814058
Ni 7.099518199855989 3.8813022763026193 2.4430482862793466 0.4223162926466985 -1.0393653676260295 -0.9528572593304558
Ni 6.305229459290042 8.000648020479117 4.259975178167257 -0.10637296554030068 -0.5230495434027186 0.8898256368902675
Ni 1.1084807934101586 3.228437579615179 1.5118756054429563 0.11426753779702901 -1.8544737182080642 -1.241203136434559
Ni 7.140689268751264 4.951667486875476 7.388892915940439 -0.7333220732421628 -1.839145058270794 -1.5730356239673877
Ni 5.38178449724652 5.8531459815833 0.5115470901611031 -0.8550920900638243 -1.5261572142482942 -0.7938532978580006
Ni 4.50888810184977 3.73544640129498 8.618656319457763 1.4116788459920397 0.4039092508944205 -0.23002168744191354
Ni 8.338173710096381 2.523868186421193 10.616867126048328 1.9682640592583582 0.017775835926182287 -1.9663951243704199
P 4.067200617247182 8.604046875309098 12.83323963717819 -0.9267484780585459 -0.1204222445445152 -0.8293437774551266
Ni 3.002643582874616 1.8019384940629863 2.4922673035873792 -0.582902511004609 -0.07330395090047374 0.27784034958708925
P 8.58945761755481 8.702996910291635 12.116468486146687 -0.34796333165642007 0.7787912613185555 -0.1292007620680936
Ni 6.504643508833388 3.05742211670675 0.35081567762437577 0.5362231046701991 -1.2033207595664888 1.0477849591482924
P 3.8635657761522815 3.5985551205174904 3.8147614974923587 0.3134565561288021 1.4904795583410269 -1.4223360685955697
P 3.7107455950845774 8.129666607449577 8.044802087925284 -0.08596329153569712 -0.6977914844357208 1.5593897510491788
P 2.6065131201273966 8.847751709242345 1.995041542673377 -0.30975082514244073 0.3964257980331818 0.6494004947268429
Ni 0.4344515797818136 8.438940520572846 0.6398554830748441 0.495373674754005 1.0077873357094322 -0.45343358287679325
Ni 5.328382308485544 7.4862069354150576 1.9168816587723911 -1.5246204658887936 -1.78852697900361 0.32899013298802693
Ni 3.9206657453377707 2.228183386967168 5.329081491781694 -0.023662633724262472 -1.3946350031358756 -0.8121796069710142
Ni 6.1190558493312475 3.6567836926613304 4.552616419887258 -0.4203424567497793 0.4870016486402258 2.0659862911021967
Ni 6.4533150133129595 7.069302837727142 10.746796853455896 -0.2562502821211393 -1.1872549643528778 0.05161746706597562
Ni 8.68552650352172 3.299557917258876 4.160663623212696 -0.9620880339001042 -0.4082600716639485 1.5347477841307826
Ni 4.80822480355927 1.1170508353865765 0.7254962612192705 1.0684520005793405 -0.5153640018330028 -0.11266702607912855
Ni 0.18442289902828032 1.4997665215068983 7.309631955982527 -1.3815511733687238 2.5471957585406777 -0.18615686773816328
Ni 2.5861615643418565 7.071349004066265 0.7833623958277051 1.4983928996508322 -0.14849946239670556 -0.7367059021127311
Ni 5.282228870432674 6.031446897735063 7.8697218192400324 -1.696955083031884 0.7307674251411093 0.5452427916703061
Ni 6.168521691188707 3.495026444264899 10.313629862407163 -0.20289963441414088 0.12395031230243171 -0.6973112023651926
Ni 4.874794026834334 2.754598674150313 12.162410884621979 -1.7846351001483718 0.7870830690137025 0.8037417606163062
Ni 5.090650812161129 7.984856754696018 6.30172436717549 -0.07991297157655913 0.3473177276526212 -0.6025431680536719
Ni 3.284069447391432 6.282446360545454 9.588666705512122 -1.2187003273463528 1.6740223854951106 -0.4608077638536773
Ni 7.209671683717761 2.1710925934154868 8.411829275361153 0.415255272034859 0.2889138337924315 0.18408995790680552
Ni 5.367103483154155 2.36526735605462 7.166661817807418 0.11045716291200332 -1.1142094093201134 -1.266713622000838
Ni 9.263995161296105 5.005418349721146 2.5607845139198235 -1.1396995831714178 0.837216495334984 2.1064132887689917
Ni 8.92308366280379 3.9257031682982135 8.347864096960722 0.7872476196160249 -0.7341155156777357 -0.16895618758916064
Ni 8.463641326783248 6.556100463227125 12.300599600019883 0.009638294420712434 -0.1263164985417631 -0.27080246890370135
Ni 9.116212403188841 0.549262615364387 5.232563917321587 -0.009402524260822517 -0.33177875147675767 -0.7368205733137246
Ni 3.340160096858071 8.530962952030547 10.321794341369278 -0.8045791689159368 -0.314601982587155 -1.2202147071083502
Ni 0.8244609772158982 5.373058469495371 0.5383757258515182 0.8874627930850458 0.9214208951980454 -1.7358923835270297
Ni 1.9884607781064747 8.313408674449324 4.971212504449317 -0.3400610460902079 -0.9076171565457337 -3.4725180456756584
Ni 4.834283603573217 1.5247150698301097 9.681343359660312 -0.04310171628548061 1.115480305612737 -1.6781865441751294
Ni 7.862563907306624 5.1391807393702 10.263229023464696 1.205513910563066 -1.709465813904385 1.829682113085681
P 8.46359544861421 2.0595260619473255 2.2482807776962344 0.10618064702383648 -0.6962963879474331 -0.604478694513488
Ni 3.164575168313394 1.3770882974975789 11.3570187095853 -0.1945785161429552 -0.23505050811507264 0.3388922225930873
P 7.792654753325547 5.053397738901754 0.6799364866737602 -0.4073995234358661 -0.9944669644514422 -0.27399552191970233
Ni 8.859982829108047 7.45857910201999 4.422887638860081 0.17429482619325468 0.6525266990606504 0.01657075987448759
P 5.923027608662953 0.03915793483785868 2.496511034223453 -1.7961796104528613 4.713442217417217 0.3591674279023556
P 7.968478248349224 3.2323005214482325 6.319262673635581 -0.28341861500581517 -0.6471466656956597 0.06288069868462073
P 5.094587159064644 5.433250627274065 10.079661293507296 1.4692155067559278 -0.6551404825344136 0.7678581593458195
Ni 1.6993732593602062 3.5077897508914484 3.7653140069025146 0.7323820779263968 -1.5736909981631995 1.5614905994422656
