# total energy = -340869.85352052975 ev
CRYSTAL
PRIMVEC
9.26828573783445 0.00000000000000 0.00000000000000
0.00000000000000 9.26828573783445 0.00000000000000
0.00000000000000 0.00000000000000 13.56507302999692
PRIMCOORD
 96 1
Ni 6.050272129844639 3.9080468781467186 3.7128011682703765 -0.15892991370141016 0.9398227947440009 -1.5635539097291975
Ni 4.749653575446693 0.9441417437426776 0.510098648745099 -1.2549030025191548 1.3120126030479533 2.300464214543251
Ni 1.694872898208819 7.048892857858329 6.733973187331398 -1.429522816151996 0.756080449984601 -2.44884257798106
Ni 7.919268314460315 2.785407217072394 2.425258311560342 0.33867316460374575 -0.06594828186635095 -0.6660468450342723
Ni 1.3515477851854947 0.6365681165864853 6.427444095991358 -1.6196145001681914 0.8124089493730009 -0.3021668421475957
Ni 8.912921241254327 1.0487065447881962 10.020668620612652 1.1188435656580151 1.9771950431994012 0.3733200652536538
Ni 1.9628468472098008 3.6738650993825708 5.3779136005904205 1.949598107417739 0.09172359105824203 1.3625190964379372
Ni 8.60458390734347 4.0737452927090105 6.904255696078862 -0.9966176922458578 -1.7812340448866228 0.33404235069995375
Ni 7.278579517981538 5.675685088623608 5.692935222261785 -1.766228572616726 0.6205606876770151 1.0203307195920814
Ni 5.4633115864824076 3.4047140780776726 0.8927917327771935 -0.5528414299531704 -0.2131567933657748 1.7512925201321838
Ni 3.894774692798626 8.043194564662373 1.2259504630433091 1.6832840133026947 -1.2162680637557763 -0.12564801171982878
Ni 7.041737741176257 8.260359770591956 7.512595394428835 -0.8916187242349483 0.594625198758176 -0.6170146221969696
Ni 1.3948677532839482 3.8271532791815277 3.269385982613586 -0.3378336994215859 0.8622004189738313 -2.732668198617307
Ni 4.730607248009312 4.512830335213128 5.657978028492651 -1.560839081901196 1.1741117421027005 -0.6581353034966795
Ni 5.480254013030113 1.962633676635076 10.184724694920973 0.23916093073902037 0.23482707925035687 0.364466728628082
Ni 5.0698913883987204 6.8813500544103725 6.6693092837314625 -0.9054931682241953 0.4652300612910891 -0.7350292857412567
Ni 7.166192283672199 7.155366925790515 12.443350348704577 -1.353320974878437 -0.9124598293500156 0.3329159504049944
Ni 3.2616488175796556 4.413214798815571 7.496235943061573 1.1353665030137028 0.23213616268175508 -0.0735075822708476
Ni 6.252719297832343 7.953579508705174 1.9542792437630294 0.04377020310741494 -0.7818002233482084 0.3686442570445393
Ni 3.152283044459897 8.806271075890848 7.169493647094678 1.6288244488022334 -0.002418379633505513 1.5177435362633023
Ni 9.473022292201215 8.031942865631239 12.283553978576409 0.8513871304084112 -0.3094698035669122 0.1471357492799595
Ni 7.00304264772075 8.080907219816975 4.840628288939204 1.1861787005695634 1.3971683110806905 0.577115986229819
Ni 2.003210232119678 1.2590595606124375 9.054767722162069 -0.16385897557191134 -1.2616567763032207 -0.5040771160652738
Ni 0.3654902186517907 8.235557837637 3.933817346973794 -0.3357678180314927 -1.1772410317603015 2.5536119464796663
P 2.2050086200973484 1.4736296465018899 4.629325273814557 1.1820955316391255 0.8141053632388173 -0.16623107534851372
P 3.301585861340083 6.115845252287206 5.154958496485591 -0.34248173971655854 0.3707829006540969 0.28994947414579736
P 4.878454944009854 2.502214742693222 12.339184083950936 -1.0529032542114642 -0.4825215013816851 0.07021502756250488
P 8.333254838862032 3.6333812267565446 13.466305888065998 -0.05992418715945808 -1.5859106801578429 0.20836065752871213
P 2.5018254746872026 8.572098565412556 2.58139278194617 -1.1789646993196277 0.1799643657742062 1.6660781909473694
P 8.82848715709153 7.728777235228925 6.154283614224458 -0.04300221459313885 -0.5848069271161734 -0.24012766552766387
P 6.067019922389334 8.84665299737244 13.433139327124554 0.43717701180861485 -1.8649298805443817 -0.6156647930372945
P 0.8921809527391773 0.34085789532802946 13.781979070233154 -0.1515603607102164 0.7406584590025761 -0.6421751806229973
Ni 7.401551134740264 0.12680127247508854 11.76677845669949 -0.4495866983268773 1.0424450349926178 -0.6207072405572085
Ni 7.597473429484212 5.158663030342876 10.204679314372402 -0.7898266931971107 -0.3063474558878466 -0.29665054031505683
Ni 6.195617388663628 6.515614226183356 8.723210551692148 -0.8406360625394943 -0.3850805482236916 0.30395221618279267
Ni 9.253484405092086 8.744080877786306 8.163718427126105 0.7183839638750918 0.479260057021594 -0.43806352817862626
Ni 4.0256984988231785 6.756302341619544 12.45283180513691 0.9462927187390606 0.10117933715450317 -0.71079046779855
Ni 3.0480704382769677 3.2049825178462488 10.599938340370239 0.9007849641152486 0.09730262780791629 0.636296096134401
Ni 2.543718126763584 4.473560608034448 12.911847369549223 -0.43644064786322256 -0.9494392347878422 -0.6632962788723287
Ni 4.404725048970003 0.3498045716663772 11.891075438335854 0.7474122327866418 0.764330091587903 -0.883482211170743
Ni 3.00050559525573 8.0953750140407 10.757957980099503 -1.24997882574466 -0.20712164291528845 -2.00390160595631
Ni 2.0493199542612714 1.1575440256140714 11.391134830890692 -0.8331546665607844 -1.520924247984129 0.679220920522385
Ni 8.419959653059943 6.276918792206554 7.9896924577207535 1.5176201233115605 -0.4089961784990246 -0.47272714099908253
Ni 7.573320276539288 6.046583352073312 3.3818816558674585 -0.12831038904334033 -0.10721474471530568 -0.9439998089398257
Ni 2.6934936262225087 8.572080028840842 12.993589943498971 -2.265239844123318 0.3037071900515221 0.6982635389761329
Ni 3.742061146722841 2.0239155827255715 6.570514917460889 -0.7014504213445468 -0.02100385594517673 1.756149334003853
Ni 1.4484013723974845 3.07238115208147 7.6515965115782905 -0.5187470593726228 -0.803343496736623 -0.5765354311360007
Ni 7.544922248671581 2.7531350457162076 11.051044349631672 1.158835275559604 -0.1080179573428914 0.7198425506984892
Ni 4.375001656224659 0.18090303751169606 9.019755845506374 -0.4976817540618913 0.7356517498166041 -0.9358440126019109
Ni 5.399323340921492 8.087719409922316 10.390737372478098 1.5643578936877316 -0.3685979771876362 0.8241388362154194
Ni 4.663680955831534 2.2351027442769973 4.559044788984911 -1.6032090622269746 -0.22555028193412124 -1.616597053498106
Ni 3.264725888484381 1.5817442010308718 2.376234640345117 -0.0939653359045672 0.3165832746832419 0.8445073725694423
Ni 4.3995626137473165 5.278529771339303 0.49252041778756217 -0.4272132157276836 0.9411458844307985 1.1449947701320862
Ni 1.813544030329615 6.41107722999541 3.4929388911562307 0.050677214639893366 -0.02337801260430812 0.7765996529838753
Ni 2.584313218819902 1.8683937460349311 -0.006292239268729177 2.2393287806845112 -0.039255860176829166 -1.5163317435174402
Ni 4.945446114188634 9.282188286393094 3.6869871384997706 0.2848422348262191 0.05757008510498472 -0.24045291007756653
P 3.801137200779226 2.413026027885473 8.758709940183953 0.3242153373072029 0.35861386939173073 -0.5977578308498865
P 0.8333597765438764 8.612313657748713 10.173207922914314 1.7109421413395953 0.6086155994999969 0.4683110142092579
P 7.078885030893544 0.3219218604923532 9.437492318366079 -2.545863412882499 -0.5293595447811463 -0.6424474604477773
P 8.07608771117102 4.055171647850367 4.362582153175466 0.9974286181829274 -0.06120973874010104 0.6327104356656716
P 5.678623135240469 1.9521697819018382 2.527404089997025 -0.15074866344219845 -0.3969209925020455 0.38362556094471995
P 5.71339774377821 6.03226385042331 10.911975573995456 -0.9014755624243701 -0.3575499469035907 0.4354934534586049
P 7.958982919360159 9.142042535940222 2.99744706092272 -0.8629514382072428 0.497611048724956 -0.06566854584240303
P 0.9803436683024893 2.97053195879223 11.046757767422529 -1.0919881360280679 0.42350928451353514 -0.327352597384604
Ni 5.267491242882895 6.894251508324162 4.0718147087648715 -1.5719007390319961 -1.5011367809445568 -0.14588105093725198
Ni 0.8080972097817979 0.9924017082032356 2.9368111543564996 0.3937683058056767 -0.8708287840727905 -1.037067058510156
Ni 2.0039516949882867 6.195459827804048 1.1909358059018567 1.2191839518509908 -0.8866564951336665 -1.4611900653482899
Ni 0.9370422367757508 6.522222513999829 9.913667187215166 -1.1576438263546645 -0.6877711240852413 -0.13171658651141188
Ni 8.070295032510016 7.540853471180092 10.122745813733987 -0.8502419610603744 0.9265499888944947 0.11479229995224746
Ni 6.387461637630228 1.3592404624473082 7.265127527887808 0.3410108115979869 -2.181987780871197 1.520682307176652
Ni 3.7210684792553614 4.860594957162246 3.291429673697318 0.40247200422726176 -0.2643119760833513 -0.6368067172222323
Ni 6.799121822281687 1.906032254902672 -0.015328817979895694 2.1361676372132887 -0.11603877076483887 -1.2267481373514937
Ni 2.9351549116737456 8.483512289185553 4.9724807772066875 -0.05481694783987978 -0.7226771919338071 -2.036952365763692
Ni 7.111472323968889 1.5685554302554974 4.432740296631791 0.025781479839478177 -1.5832945826912346 -1.25529715263378
Ni 9.428627202943279 2.3415860804950404 4.62174288915445 -1.5839610126306398 0.29819037399835097 1.827812149756478
Ni 4.933156367141448 4.531116663210185 9.276665314850545 -0.34354849041817603 -0.6562542844238827 1.488601110371391
Ni 7.3464326387450765 5.307224384354454 0.7968464375792491 -0.06851501415226266 0.648688813371799 0.8433619461110895
Ni 0.8624473648793892 2.3897533620970224 1.141517305709098 -2.382058687587291 1.8137921813283018 0.0006198929721860292
Ni 2.979179269497377 5.590101737014468 10.521504544471657 1.3500099082273331 -0.6299747819020634 0.7885557969044871
Ni 0.45804332122585106 7.9161912435555895 1.587439562690371 1.1382592511804654 1.2330805073274247 0.2627950252181926
Ni 8.714459436185395 5.370257996472037 12.13074311549912 1.0410977769361038 -0.28785248240745265 0.8083041831760078
Ni 7.029392384413924 3.1804030237518757 8.779437534675905 -1.0320017281721066 -0.011207952900677472 -1.5836262549990403
Ni 0.3283864898780339 5.462588660185515 5.5726402864587365 1.149577247296446 1.2177934992613673 -1.8971740852900683
Ni 2.9451646603999606 6.660774119285192 8.4815891198701 2.8922555433970576 1.1078868095361951 1.2479756792717025
Ni 7.986908264649129 9.066598689059305 0.7239217107944281 0.8300451743975253 1.0754086344028317 -0.40672306619413184
Ni 9.122931330501837 3.6893987464799194 9.230964324115272 1.902604769387336 0.3141625810568912 1.6206079744297122
Ni 6.153613517156954 4.19701349461518 12.241841131245664 0.31641332476428086 1.5275877760472338 -0.10540494520007652
Ni 6.289171466110309 3.010487539124372 5.960995366321243 1.9309820349784486 1.9842349807653181 1.032068833964616
P 5.953437079204365 4.751822354337373 7.439641935957856 0.7880168936818815 0.16319717361819636 -0.8004972855370796
P 8.745675022953815 1.8993590890851952 7.141549765233995 0.15463385742921756 -0.2802978099886463 -0.04136802142382553
P 1.542011059559312 6.142853037276272 12.029479677876079 0.23782781374989362 0.6512316343983108 0.8576948177939939
P 2.8211920687686134 3.694477767129888 1.4408143535944475 -0.42368026287376065 0.38414440956266743 0.15921839147610645
P 5.5697393129853054 5.706455797670863 2.21357622354412 0.5470263659332901 0.5413534839182289 0.44833919907302144
P 0.014414964994335673 5.946736108529316 2.0410276189044705 -0.31020231085756256 -1.764968732067696 0.19596125542309475
P 1.3653297262557558 5.348968743857115 8.069780642644918 -1.6311471833981392 -1.7699327609411901 -0.03917667019946156
P 4.997793392712397 9.44178816886108 5.974980282851785 0.20179791670952987 -0.916115166714416 -0.3105782061397425
