# total energy = -340870.5137176828 ev
CRYSTAL
PRIMVEC
9.24594426816885 0.00000000000000 0.00000000000000

0.00000000000000 9.24594426816885 0.00000000000000

0.00000000000000 0.00000000000000 13.53237403083005

PRIMCOORD
 96 1
Ni 8.887931798405914 5.369988797137319 7.92744002125495 -0.9410322416710697 -0.2977558575640937 1.2457282779984225
Ni 1.933289905760433 2.04957614339649 2.6944039957732566 -0.33383794799863153 -0.03909465200861654 -1.169422049936515
Ni 6.07572245639808 1.7332723992977772 4.631616955571137 0.8436846195578309 0.6233912151472747 -0.5161039653228209
Ni 5.710156322689373 7.670287203869815 11.17925609189602 -1.4766133418818956 0.07379554582491162 1.8949251413548913
Ni 4.236112455203802 2.6968661906593567 1.6529658281272488 -0.83953588749678 0.8852670709853077 0.7697008689815131
Ni 0.8005434181832111 9.228737294093683 3.423244193674096 -0.41269908127190863 -0.3338574883826573 0.28181347530222434
Ni 7.821347436874339 7.897561753232296 3.5466183719773867 0.09988761492627313 -0.09380901283236102 -0.9811705044528523
Ni 6.490014714965023 5.720881617724581 12.204523103493251 -0.9666432573709546 -1.1797200894284132 3.1752797511779316
Ni 2.0506209350680233 1.5561663420568874 7.288969679969743 -0.029345543041652683 1.8514824967902244 1.476833685422818
Ni 1.2569583484065385 5.138830951296573 6.292716440631553 -0.001153653988468981 -0.5358415529610643 -0.04405071046231124
Ni 3.056237541890831 5.116575964098514 4.894618757128058 0.7814107012192736 0.5373988701458552 -0.394220819962063
Ni 3.5468550681436812 6.553266217840769 11.927285321965888 0.20270037391914122 -1.048105061491872 -0.7061383137385194
Ni 2.4532540582561735 3.933483462274981 8.145596220648704 -0.7046061933647091 -0.8703621288490171 0.37858979829302536
Ni 5.698423219758613 8.998846142580371 2.832325742359649 0.24849429232480433 1.1129256575116833 -0.9533341989668743
Ni 4.3118182446419855 0.9474873569207738 5.88574327133174 -0.6877109602712672 0.08606407877961954 0.14250724936901263
Ni 1.769192891721732 1.2593992776214482 11.434950823913006 1.6132667035732926 -1.0677500894163097 -0.8441502463403399
Ni 4.0666158098715135 5.604937480016371 2.714269831042783 -0.23418276079813863 -0.3322880870130084 -0.29189322813572954
Ni 2.345464843152321 8.718444399017622 5.5383814767565 0.4056056647602369 -1.5160003283199506 0.7573395192026827
Ni 5.275791119707395 6.80413641628071 0.4293067470218361 -0.30820842035598534 1.2930026376043537 0.22775191757113036
Ni 2.72692475458993 7.556007336080862 3.2492179603782305 2.369225540378365 1.8746057130712488 -0.6717696064506625
Ni 0.7327031533023142 3.680717845315887 3.9834300517406707 0.20036067004237104 2.045023058586968 -0.11022602073780373
Ni 7.8695742807567965 6.075666980734105 0.8669246731015597 0.6383385804857264 0.5948139177302142 0.7317732406978043
Ni 5.923293823682167 5.381139405596338 4.0628379171548 -1.2664130600412835 0.3237178288454941 -1.1531364254026142
Ni 0.8276932081326838 5.6176691448986835 10.268378974821292 2.2744783320024506 -0.2099529417164965 -1.0862244940714132
P 8.461157515444548 5.54333175517189 3.4531233862911495 0.9524332844191599 -0.37818793486891644 -1.7478372145937318
P 3.17807134592441 5.19171775095295 9.843773790321357 -0.34188267267997896 -1.15529178118272 0.6481887338069289
P 2.628742075297786 7.575322113088235 1.099475882702483 0.4917165376173918 0.7225296106123492 -1.4696927035026626
P 4.597471684394389 4.570621463030382 12.79527882619337 -0.21498176238965555 -0.34510297938948953 -0.373318522591757
P 6.864124100925914 4.1723339335202905 9.057190822977509 -0.24580646107999604 0.016068366316772328 -0.452239305458376
P 0.7593564360592086 0.9131775079408994 9.126084200879536 0.878847540612209 1.238193145963642 -0.9038854574174433
P 2.032276982180217 1.8168372411324503 0.05214989791990554 0.9875393840936735 -0.6373834156613087 1.1382811055573363
P 3.615358267209082 -0.020367890028502013 10.520094252542457 -0.5729875658837422 0.27645426787284 0.425948232972331
Ni 8.247141649772145 4.150495013802046 10.800552396363582 -0.3514538613081818 -1.5977950903002547 -0.5289702797625276
Ni 8.478586119876763 1.5205509657847962 6.792615970061855 0.10245974652882354 -2.182480661347215 -2.303361333585388
Ni 8.182660436344948 6.423138802042895 5.384382882750089 -0.10656554116708099 -0.38797509616266734 0.33696132411896157
Ni 5.957873654226721 4.705649229146068 1.0229851126190503 -1.2802358248569887 -1.6824098382278574 1.3611409851434881
Ni 5.356480472959353 5.355592862335749 10.246347739467934 -0.09175932939218391 -0.15271555736058218 -1.1302548928187504
Ni 2.160564455122913 8.739913480976032 8.012518424121746 0.25605050740550744 -0.6572261614188487 1.5334894862436494
Ni 7.783170934115392 8.58840019671571 10.752418011921081 -0.17919406326708492 0.27373378361788336 0.6240381047026543
Ni 4.508867803081967 8.399930874303896 7.380908573281475 0.9995821741908204 -0.8594915046831004 -0.10055841574105262
Ni 7.738818140767203 3.785761015052966 -0.0757649634797571 0.8636988578962286 0.07683099021712575 -1.3028013688623303
Ni 4.8143168089295285 7.75870616630232 4.624701914056626 -0.1940010463729304 -0.8018663979704641 0.9102846760755678
Ni 0.4138512270383398 2.772220634225697 12.584471303087534 -1.4380043712604462 -0.11832036771016395 -1.3556395957092846
Ni 9.20570564759997 1.6378265194284112 1.0077792331234423 0.23972065989723226 -0.1159562383533616 0.7611290681521021
Ni 7.466793222464713 4.066181250503707 4.8125314171439255 1.4660273388359333 -1.3543561010111709 0.5787751190997967
Ni 4.31064400975451 5.108097433454301 7.290132819724423 1.2343321203463389 0.19063058723880072 -0.3270034415753013
Ni 2.1612671468665994 6.428686368440417 8.304222409625048 -1.816552774792575 -1.7945490168279739 0.3200367804494811
Ni 0.7136703775868158 4.208883150135965 1.0306527739748252 0.37238649769579096 -0.02685337274741827 -0.1846157485032885
Ni 1.4884028185111564 1.6326857745667074 5.188623133497532 -0.6622822357855175 0.5361894232187862 -1.2530595215525129
Ni 4.302304168270235 1.404985911780417 8.418963650019395 -1.162077950866618 -0.044862407730329186 -0.01911178112878644
Ni 8.70143186206522 3.066648474830181 8.243732670220867 0.13204388794384356 1.0342617278508768 2.2133788935879686
Ni 8.027559725814228 3.4259088747337056 2.2611917620075648 -0.06685253884817519 0.7194466008116512 1.498192353604252
Ni 7.8981904774240155 0.2666789134840791 8.649392915473266 -0.3349170399954232 -1.27624367297846 -0.5326343588776762
Ni 1.0026948885201135 3.116326931919991 10.088912428078258 1.7069535890054925 0.20406922924220983 -0.2668540257789146
Ni 0.40131280238554046 7.29784208782818 6.938197056654427 1.0467045815999199 -0.15878567481406203 3.0825320897305493
Ni 3.5811020447043838 2.7663124760123363 4.30773338658461 0.8405175346837589 0.2996327628718324 -0.3465101441496613
P 6.196446747152154 1.013900972643108 7.10844724642238 0.24864341630815887 0.4922713816795974 0.5790445707110995
P 0.1624632557346305 7.601811742636402 9.503583149909314 -0.9651846705475571 -0.5613073013323365 -2.0519030735362533
P 9.431879929626943 8.548836802357382 5.48982732645659 -2.0157734176932314 2.700380028007562 -3.34815044333015
P 2.3435694246331678 4.218387980563719 2.6098128541550416 0.8636705757614546 0.2842827627783233 -0.06664093705800136
P 6.101342967210636 7.821310453098356 9.1975756890444 -0.1855647426801191 0.061569693182681066 -1.2149760844172302
P 0.053082813669088826 3.3740021451408917 6.091138218822394 0.0624703506200795 0.22655301216702273 0.14640709864405108
P 5.9120784936151765 6.839640841224851 2.5365757317637554 0.012552896964346123 1.4581448507640629 -0.7016154861675014
P 0.3125970451507683 5.081700263346093 12.240560094811554 -0.2456434531395705 -0.5344007067494796 2.081097949932655
Ni 8.495302786621295 1.957458803365637 4.410443804651531 -0.8381320651707178 -1.9391144342775959 -1.0497035163272437
Ni 8.64217460699569 1.4577247763328596 10.66712325396478 -0.8596277731506485 1.6996637402122985 0.3411740766487285
Ni 7.222247249717947 7.147216414191462 7.533837411567565 -0.21353037465510968 0.4650012331097347 -0.05564921393318803
Ni 5.302003370935687 9.213527716220476 0.09983492948420547 1.9291974322742003 0.4487135516933046 -0.019455023400818106
Ni 2.324282385457783 4.013627304831182 12.392324868748563 1.047267138971609 0.203399713979011 -0.6603240836178821
Ni 3.0957639524731757 5.554953906774698 0.5581147666114997 -0.6750925001763083 -0.6424978540697387 0.46479503063619954
Ni 6.348117212460406 2.0166883206031803 9.18432717589272 0.8913135342897037 0.9677722287690754 0.22691913725718985
Ni 4.075186799955684 2.072524576394239 12.818391836994245 0.09469064410636595 0.3875210393443842 -0.07274782128668762
Ni 5.558985138356897 0.7929404784354072 11.105531708256152 0.11729372621786252 0.9381124969211134 0.2992362987643621
Ni 3.2569484941531774 8.828831724384314 12.785914534114355 -1.2898872319038237 -0.053163728507172964 -0.3965078162240268
Ni 0.6061779572852307 7.13625072461236 13.010051010084634 0.6065777431343617 -1.0057548786604358 -0.05231937822900667
Ni 1.0322356795869183 6.420901283595894 1.8043117608012451 -0.9983657852852159 -0.15373602820529653 0.46829738736250315
Ni 1.675411281771623 7.877081987281444 10.897092996002057 1.009926750649938 1.0460358376676695 0.26778913599867427
Ni 3.8432522948192855 3.0864532868693346 10.49154092829441 -0.16633649057812644 0.22924290029436 -0.3505627169524801
Ni 3.2578915804407558 0.3295984869703741 1.656524591971259 0.44916709429095547 0.13681996917624825 0.2244177109915748
Ni 1.1302057021671565 6.548587770178859 4.1728156472024756 -2.3905667250583025 -0.8991890803830385 1.8051280778954006
Ni 6.209871857834158 3.4496062291951204 11.587271279084165 -1.7728000551866565 -1.6717690706845596 -0.5023696464558638
Ni 7.154909039596025 8.989544722920526 5.645246097460766 0.2116185023443775 -0.5193247862529636 0.06227906054487984
Ni 9.151968221095974 0.07011291791508177 12.536932357438369 -0.38671037051763074 0.47274385316963097 0.6423435878800615
Ni 7.974321580286008 6.37844390876686 10.914102759171259 1.3599335950989482 1.1524337429086347 -1.5671992197912687
Ni 8.89499569961876 8.471217102512055 1.2973270644869064 -0.3542532784301899 -0.1335335851154926 -0.10424074968864629
Ni 6.406958400050122 2.113234467808055 1.0243035842328612 0.3565621290690246 -1.0604538128652123 -0.17300593217850205
Ni 6.4682959925187244 3.3320625431756254 6.917776464745149 -0.5468211919010195 -0.09267541344855007 0.736971239958976
Ni 3.8481803829690846 7.254700513143451 9.45303927246149 1.612624442003603 1.0658281898032482 1.0880782594507001
P 5.900363882572409 3.267072802828655 3.0620652603914285 -0.3708672328377871 0.3022087511291247 -0.050122627688004
P 6.1813111368309155 5.9976589512409495 5.9916204252172465 -1.2166385597213176 -0.2366952428073472 2.327650802260372
P 3.761166804023952 2.990369436864254 6.478813253814026 -0.1661518853711461 1.0291028093577568 0.742521994573876
P 3.0907711427154063 6.804617205368495 6.4978127441311395 0.3794485467488949 0.2365600027810636 -1.7442862640176797
P 7.839783849202104 0.8122626521979763 2.5532073358235263 -0.5199508498727368 -0.3139504650460851 0.35450730342252496
P 7.2565034722226445 1.6229497955390564 12.45495319499899 -0.15994189990569227 0.27360548557013525 0.5581949809555999
P 7.2716575744318765 7.860235877320968 13.204375788829033 -0.07332400550513178 0.1919343936518888 -0.5900869445681902
P 3.287802209267396 0.5725060784410715 3.947786013042192 0.17127635108190503 -0.2894738200609595 -1.639416622495783
