# total energy = -381171.47325584054 ev
CRYSTAL
PRIMVEC
9.19538910776142 0.00000000000000 0.00000000000000
0.00000000000000 9.19538910776142 0.00000000000000
0.00000000000000 0.00000000000000 13.45838144338157
PRIMCOORD
 96 1
Ni 1.2418280959849544 3.1561425794564335 6.124411406589655 1.2281830700258074 0.28339753195989253 0.780723702454578
Ni 7.606232720040419 4.726236869182673 11.43612513343902 -1.2424848313604602 1.3099055840072795 -1.3155033898100312
Ni 4.367331639122556 4.9438273603028735 5.151276256838429 0.24295305079160093 -0.8754374864893956 -1.4793263699376844
Ni 4.892866514180736 5.404378420935729 7.277606067048324 -0.009636237538183405 -1.1612269157202324 1.8963585313673084
Ni 5.493353005395817 0.3249291870545798 3.3691574449847224 0.3462548336057456 -0.5015749184687104 0.1055404423366763
Ni 7.5041547061822715 3.370827327636433 9.45369212741464 1.9524008669738573 -0.5797876195247111 0.3247892075328019
Ni 8.865890675395786 0.4224343339375309 2.2255315063728047 -2.956921616116875 -3.1835895565952073 -0.7688035539782243
Ni 6.341002358919983 8.583849702415234 1.305632141995001 1.4338888064301756 -0.04922531268471522 0.5504878421193294
Ni 1.9410362840544695 2.6129157758636103 12.991160134515995 1.435606817562547 -0.5398136502349349 0.4886286427206875
Ni 4.95321585252422 2.5249067072539058 4.015429617363886 -2.4431792090476954 0.6276358493562417 1.3627219564773627
Ni 3.316261889006197 3.5818798971411803 9.334060115857618 0.039452292458351405 0.33155840793583546 -1.2048377104316477
Ni 8.65188638600558 8.21402954555126 8.388784236315024 -0.0014963820398683906 -0.30076739069690783 0.8561112753569579
Ni 8.963269845448734 1.947086850050205 0.25194354507684 0.7273509432603925 0.44408608022362234 0.19503771516756088
Ni 1.038352527058453 5.4774633731152225 1.3542895431597959 0.5498651209336659 -0.6055678138126087 -0.4274461576740961
Ni 3.84507951795568 5.830244474067194 13.410375162746679 -0.29973432144670314 -0.143115829487289 1.7302069031064782
Ni 5.656635528779217 6.667466256407219 3.299537315399747 -0.5275898544752333 2.6470967432033894 0.9859874662255211
Ni 5.370254332166466 3.491213361095659 10.632121694046708 3.457785110340858 0.17644761087019933 -1.356614043807412
Ni 2.1733302022676506 3.8851622188301658 3.894815538256189 -0.021653316603717547 0.1697419167152496 1.4199655114808643
Ni 0.8228208835468318 9.101044359603911 13.052382115280446 0.3037881798011026 0.49761619093127846 -0.8096846084633024
Ni 9.065697284090831 1.4007979819033092 9.172667244924254 -1.679581624750443 0.29255991518545094 0.7741385930378926
Ni 0.19980201100051895 0.8857715974529208 6.827894531029106 -1.4647921808772513 0.21613567348844068 2.1218723036365392
Ni 7.566159214554985 8.309211017620955 6.28222451256536 1.0120399403381992 0.7866675787428388 -2.2201635206099697
Ni 7.625368324656112 8.983407747471016 10.585165439856398 -0.26486064949796967 1.0468272232207132 -1.4364282850225778
Ni 0.38050611848045535 0.9541411541269229 4.702950465949237 -1.0267901020641799 0.5636765728954615 -1.4935391711029569
P 7.558922443371635 9.18039137172732 4.133916802984025 -0.014881030876890501 0.21998487203120182 -0.25566792725510806
Ni 4.529740600546086 2.297918528523307 12.671065883024575 0.09728128765167762 -0.8563146496170156 1.9392054513295054
P 4.061796447116009 1.8744524719342237 10.412870515663847 0.9908931310572547 -0.9632116059815863 0.4834396423205803
Ni 6.379135637315599 5.431550795582232 9.264439986272642 0.059900533010374256 1.0933189390243494 0.6505595480319506
P 2.899591224926002 1.9748293388178866 3.5906293098234636 -0.08219791095599391 -1.4523259300894409 -0.25024367091574323
P 1.8711329364867153 4.893565363748633 12.76106207520826 -0.03464870042212097 -0.16250117599243627 0.28177413742385665
P 4.828039021369283 0.9259113097395243 0.9988868367893077 -0.43589274577955256 -0.3013800845802423 -0.24898331614608088
Ni 5.203679859502711 7.853597880908631 12.934783204242661 -1.519686776032602 0.2641286564279515 -0.8215150254393271
Ni 3.6176775467177746 4.009428706469028 11.677218119435363 -3.8957092847281425 2.0788472062252645 0.9082167378029455
Ni 2.005486765914821 1.720383728380196 10.571490976798254 -1.2469978887394653 0.9469545206927755 0.3196997088250365
Ni 0.5336387714290639 5.615706852112014 3.77831915436565 -0.6408065824102447 -0.39976488970874374 0.7265487590740712
Ni 3.8099899133360338 7.992512623306167 4.426798220117119 1.0471159581057257 -0.06841551245992089 0.36450812338897864
Ni 8.331077652784874 4.317409871963212 0.3223333287254063 -0.6294788161022514 -0.1619638154317275 -0.36107698622024265
Ni 2.203757744638303 7.058316268031448 8.934884598986368 -0.8017951784128965 0.4100732136132873 1.2990845821323755
Ni 8.824851654059968 3.5607856746575672 4.550776892078676 -0.7939427722480132 -0.322370056568348 -0.6498229269762421
Ni 0.18063514206205186 6.24539789895393 12.176174641979753 -0.7051713218395598 1.3402294318018015 1.4246168942099464
Ni 5.705913618704973 3.252445888990384 8.127758405472244 0.8796278704216592 0.5765806825516393 0.48167637977257044
Ni 0.07802655425564597 7.836071469376911 3.8261912693054665 -0.4458398296899354 0.3804646467182351 0.3943632590771982
Ni 1.7388204834279921 0.2022810878887413 8.680319448491012 -0.2462666885458662 -1.7674256782486204 -0.9513588204080583
Ni 6.989939355046205 6.507944647145789 13.012814356192832 1.1443414528188034 0.026673138415812127 0.7932742854260789
Ni 5.01468702833196 5.930216743832601 11.39106588800999 0.10783772301128525 0.5562630540402097 -1.7353213415149082
Ni 2.502598693415525 1.023566341464011 1.3485433445416573 0.859350608229862 -0.14220077387218735 0.017440306963634484
Ni 2.397440224225202 0.7662297007086012 6.094170530616744 1.5008758139736862 -0.4487441478209239 -0.4989981588804696
Ni 0.8758506922055055 7.793432450346172 6.465634823043085 -1.8172886245173347 -0.02843331564002845 -0.5958672986953931
Ni 6.040644170949301 4.497299267973205 3.295756171421865 0.973312441861014 -0.3677579977848441 0.42901093105805466
Ni 4.048196466709181 2.933448647412778 6.871109181414454 -2.267548694762153 -0.5247356728558898 -1.6541981516803317
Ni 0.3282946994473446 3.5809603582360534 11.682588226641304 -0.29010065501168103 0.03160579983073912 -0.9053237325258665
Ni 6.988063495679746 2.386258631138858 3.2233093792425294 2.3782187450159107 -0.3384204251629914 -2.0273202419905667
Ni 6.755925899080436 2.1865439763343257 0.6821020058174376 -0.9320873737729561 -0.6632517987876383 1.0660390202624737
Ni 2.9374578370391315 7.347943436979297 6.808540995692898 3.67533129102358 3.021227734394113 1.75605523162815
Ni 6.090759041278723 8.186746826236142 7.866827287136694 -0.28926401804299856 -0.1235913863011162 1.1826650309893503
Ni 6.526114735911098 3.914578268405178 5.536212713763787 -0.843241104262509 1.4317617327848438 0.35987319572012866
P 5.651320593907583 5.589739073431229 1.4925210681508216 -0.5418610196822667 -0.04935026829835372 -2.1531497735935825
Ni 2.559665277867706 5.122889171298254 7.3896877446553475 -0.17897063440236918 -1.350407657886384 0.8101728609536304
P 8.020080399681873 6.9783439694525535 10.331743276220113 0.4872649296039415 -1.978668542421134 -0.45674079287315533
Ni 4.01885398024658 0.027793982946368524 8.166559269112984 -0.1388200303254125 -0.0745517072646458 -0.6148348409368315
P 6.881792384414219 1.5029403634848157 7.58592470332069 0.7596447702970917 -0.9775236517288842 -0.28968362207892046
P 8.771895408513705 4.199359467323008 2.4124287083787714 -0.5974904361211129 -1.284704916371936 0.47571681975502583
P 0.08905642342264426 1.405901422826764 11.485705751664563 -1.2976208531026556 -0.8877836667595741 0.43722946231310506
Ni 4.931312435804096 3.324114751255981 1.5766496825808904 0.5619140816784 -0.2543726054824522 0.09307419154886551
Ni 2.6576605389870895 7.116136874385834 11.794791283383807 -0.21328406297225846 -0.6004060671060112 0.1326601813716038
Ni 5.060047882521875 0.2571260663461358 5.834948835105823 -0.6640732662476693 -0.44181708168378747 0.8344029371455888
Ni 6.816459145204947 1.687234350850368 5.3674313477277265 1.0707677931967108 -1.4370661757168928 1.0989478551753524
Ni 0.10246330065939584 5.816295068876417 8.563501225983678 -0.4967085915153445 -0.38910226778857504 -0.08482275017335068
Ni 3.1787724319116086 9.130837420130026 12.87244398370848 0.9301773012344366 0.9894697683471668 -0.06713484597528438
Ni 0.7856384083791166 8.364070708700831 10.662267857512392 0.038759894377017115 -0.1250890538925652 -0.014316930843304373
Ni 3.980417254012271 8.046103350696967 1.9409544450919132 0.3593384062625811 0.11199005461676198 -0.056787955523321554
Ni 3.4271674763535636 5.414456567335921 2.5646556155058304 2.7260599492721695 0.5357119693617355 0.07302138666304844
Ni 1.934553534773324 7.58372240764291 0.9250506213243255 -0.050873132700783356 0.22031294479458186 -0.32785499094231924
Ni 7.577487933866149 0.1395584196311239 12.739690151975296 -0.16157635018532174 -0.9717134728050105 2.0048254033221604
Ni 0.8451914260307614 2.0164200834967807 2.574413762367038 1.4598857447145697 4.726217771915332 0.7886025909820225
Ni 0.9515204682473111 3.4953880677249356 9.06613130645405 -0.7828556611959163 0.6493961238514687 -0.4794595746269098
Ni 7.74063252641378 6.338390868429422 2.0240596127205754 0.4918800597784497 -0.31141767132190235 0.08230101219276148
Ni 8.212834144974595 3.04352664974553 6.89458041196782 0.14634590638881248 0.8382421083860209 1.299515756132523
Ni 3.273282640580561 8.967426161299908 10.461818491122663 0.6482082741909546 -0.48978049693694353 -0.008334745117940485
Ni 1.4734415554083415 5.4115140428395145 10.554049162845807 1.2407123128410695 -0.768958848609166 -1.189230857132326
Ni 7.1470977493214605 2.3237299855902216 11.9501814043445 1.1209546984637468 0.862321775043044 -1.606173801282253
Ni 7.308623953396068 5.768892838317121 7.043323186183352 1.3182326158157363 -0.45111753314910696 0.5057599030843354
Ni 5.803752558210485 4.38806724143317 12.900342794090033 0.34535520460961167 -0.6750737311232309 1.6258897916539419
Ni 5.513205850357509 0.5996405154223642 11.567599886555174 -0.3612613343169069 -0.8599355341990544 1.0108775445989817
Ni 2.7586075199919313 3.516611025655266 1.6801447058918386 -1.8729671490265614 -1.4274145115597416 -1.373337784319996
Ni 5.857398457935594 1.0010652244555536 9.385820960827216 0.4488292513355625 0.9764808122866667 -0.8712599580729382
Ni 5.661095292469083 6.875217681242562 5.9248503147822795 -0.7900058990874524 1.6682908823279718 -1.9407180313192898
Ni 7.6460579500214685 6.359770147973625 4.777644611212703 -0.10276673624628106 -0.789663171036053 -0.44249765269057983
P 4.147120462122744 6.367788527226332 9.062672001092963 1.3673358011002903 -0.005513216508745343 0.7906815849982384
Ni 5.427201376560981 7.952650611768911 10.162720071452005 0.02016387654238463 -1.4577131625432829 -0.481297656276913
P 2.120567059891464 2.0485211866747637 7.893879202186625 0.7233040268845284 1.7802819653859985 -0.9596758249141861
Ni 2.037523501369445 9.065163951525857 3.4626396091577427 0.4164230670907151 0.7450948975073749 -0.5394873772437677
P 2.100925708877951 6.849691281236236 3.0100885369994925 -0.6742545776560452 2.4493398293324526 0.14084785938871872
P 8.710019635587708 7.917294340866778 0.787263233624476 -0.8861479309283641 -0.7079740813956775 -0.332653183661911
P 0.7735979659553839 5.525601234798621 6.315385844100955 -1.5196296975424217 -0.5295346369064299 -0.4990079290724825
Ni 2.540373351638142 6.233011709901869 5.124588479194928 -1.9224801681550245 -1.99504749799979 -2.4186434286898604
