# total energy = -340874.71468432265 ev
CRYSTAL
PRIMVEC
9.21702545440855 0.00000000000000 0.00000000000000
0.00000000000000 9.21702545440855 0.00000000000000
0.00000000000000 0.00000000000000 13.49004842373758
PRIMCOORD
 96 1
Ni 1.4058913365842869 4.679115175375522 9.988368891057277 -0.40167367669568244 0.6146877738360058 -1.3990922675762807
Ni 4.278967229459449 7.091791426511759 10.02449594428464 0.243783002892064 -0.6412670669864311 -0.37363219717743396
Ni 2.2628350672610464 0.8523472000500413 4.501467147209682 0.4645276359074258 -1.8404516928973593 1.7430575338169012
Ni 2.022888241904408 7.174293021939381 9.33709663293672 -1.2975272649475846 -1.9425833666628027 -0.41458061456533757
Ni 5.004365571917797 3.020834028982883 12.225545602676338 -0.40008344939042706 0.5302584024463319 0.3112922014876316
Ni 5.233049192089254 7.400958113522004 4.075559458370907 0.9083643191244034 0.3266062061368827 -1.6279358755496929
Ni 1.5773740963799405 0.6369324098168705 11.912238627802605 1.536816236624037 -0.2655337643055943 0.2780524655978953
Ni 5.195305472585723 4.22768369946735 6.35010291314974 -0.15025218342175414 -1.447243630470527 -0.6720691399689522
Ni 3.349199780150846 0.8443348397656897 0.5120914859615514 0.9094148718761047 -0.316609499935487 -1.306615086181466
Ni 5.719625186304377 5.306342979022607 8.39460047138529 -0.633624977060141 -0.20752813432508774 -0.10557952310472783
Ni 3.3671361118123535 7.858684817860191 12.303814739985274 -0.8878685131638967 0.3623630520215179 -0.2203656524093882
Ni 0.6244037070278229 3.632743136216081 1.7117389727048564 -0.05847305653522832 0.3385428096734686 -0.6055598433928087
Ni 1.5918171753694481 6.602791354584933 1.9556122509329243 0.13074522373707803 -0.6785406066259089 -0.9116794995405654
Ni 8.271275748227977 3.100856244545681 3.251641251834099 -1.0109186822495624 -0.0774043462220925 0.8695059514963089
Ni 5.509799600346406 8.677940131186539 6.450091049393503 1.3167801996399258 -0.4894575663798861 -0.07047033810642056
Ni 3.002187986356352 8.64699857651661 2.4786885879089593 -1.1081516331618075 -2.0491419658513483 0.2711593380224879
Ni 6.985187309349893 4.848736096016178 4.651814345785909 0.37871603945824456 2.1106260412987585 -0.30296079880380083
Ni 3.768998424475105 0.33709058752499466 7.472920040267749 -1.0062688421823767 0.8049401517997814 0.9603841638351203
Ni 6.6214558312625025 6.441382803682407 10.73921175416555 -0.9582385782470271 -0.3132693798186605 0.529508668764501
Ni 0.0007926641947017587 4.09904167428767 5.949435126994352 0.24302786989359434 -0.018664666289038824 -0.4754026309487168
Ni 9.495932712016673 8.375455787678138 2.2304989766299745 -1.2398962446976778 1.577306997649232 0.7331204987543181
Ni 7.765850936824888 1.2524094276287787 11.792811784737609 0.5471405229136513 -0.14720774016847551 -0.08327443184962433
Ni 8.962764653799024 1.790674500958872 6.908550507260513 -0.4280722212938692 -1.2043859676062096 -1.045538586316277
Ni 2.105933641837697 2.079204267830312 8.495547178283111 0.0717224653459668 0.5183405679628234 0.6563697269558245
P 4.502839562309578 0.13850516418840464 4.572330404513467 -0.21480101383741715 0.28030912284255594 -0.30042337709392775
P 4.099115410491828 0.9178249493426144 11.943212442061851 -0.6956559261499567 0.2740644274844247 -0.024640681366815624
P 7.184708260776741 3.169910199739932 12.571456883623771 0.3434376758719247 0.9456931374818487 0.07887244612718673
P 7.3372961182568295 3.069048289476893 5.747812693748991 -0.1539067494552059 -0.3841297542746481 0.08313507805828264
P 4.659556647222532 5.371230838681914 12.114360623831137 0.3394825478789186 0.26484342310678904 -0.2899715856329844
P 1.3283485008863112 7.610046337438393 3.97859266309253 -0.002477000785582831 0.19198478727385002 0.5102549627412116
P 2.6434705701517265 2.9568770889010745 0.6610635043302272 -1.0515048312020407 0.3109361036997935 -0.3958059050609958
P 1.8948176723069554 2.035921115989388 6.321207538145204 0.00855585998981107 0.6086102001833583 -0.5289414834071213
Ni 5.982688311664643 6.888002992269249 13.013000334554313 -1.4472878534449012 0.28168774835763744 1.132020212249289
Ni 7.774892838859799 7.283477906246788 3.499547900429626 -0.4349167550195284 0.12645996609816285 1.0626400218832537
Ni 6.434414732389447 2.5044778253133253 10.1491709616806 0.6682248265221976 1.2163626803521115 -0.06307507408361396
Ni 6.4549133971454555 7.477560812616962 8.639162261419687 -2.1656275943456187 0.15940556778624804 -1.80045535501008
Ni 8.145914984133341 5.29407511805577 12.251190132780044 0.27695820409245203 -0.6976649861601856 -0.20506861704100166
Ni 7.005335727136149 8.638832291906079 1.3629943781126421 -0.992973153514735 -0.6951720445350027 -0.5743782755836818
Ni 1.1203110178791789 5.290756988868646 13.53213731482319 -0.12843842998077235 -0.4803301501573211 -0.6438975626307427
Ni 4.306563003865695 2.0331375742824123 5.504546817502678 -1.0634640604464458 0.0635180751583035 0.5603667917959382
Ni 7.6522326632424615 0.5429869555038804 3.2654013492325906 0.006036436002067023 0.04198560040316641 -0.5255705100523594
Ni 2.682384851896271 7.290473628616307 5.76981557706983 -0.06227006168381534 1.8990304217725165 1.6749443830887476
Ni 8.219798660699961 2.2064637391820234 0.8283644996475532 -1.1782805287684095 -0.25160918380470215 -0.3753910888500696
Ni 8.24070287457884 8.497258779922136 7.5944253225874565 0.5786774171796679 1.1711608870044927 -0.4334401704740019
Ni 3.271076271845124 1.7616593046225797 2.7421627926074077 -1.0827321646474386 2.8831816061202478 0.31552912238711467
Ni 9.302928197632315 9.213329492554458 5.218558184567043 -1.511798631533777 -1.3436168602167957 -0.7882655193575779
Ni 4.506802883283086 4.136932866199518 10.151841133973685 -0.2550884006025543 0.7060259565303713 0.25235068995641696
Ni 7.607281229782457 8.627716559129214 10.173331550675622 0.42997946561891104 0.9599635313579338 -0.480315751979618
Ni 2.7169302635444366 4.3975258287204815 11.839392788309514 0.43862608555031557 -0.901859685236666 1.5711286367526618
Ni 5.8406355143536715 2.9087365646112224 3.8979086650974106 -0.44297099278257257 -0.27677616998863297 -0.04554117896490866
Ni 2.233432755852923 4.8893463104563635 5.827849656552622 0.7841499545273076 -0.256763474312132 -0.592581943075902
Ni 6.767895932720893 1.0067480464498721 5.256572884620857 -0.19471658438271627 0.4609016091190643 0.7074922566632526
Ni 6.2014175442747295 2.2429447261893443 7.395042626543405 -0.12650264641064018 -1.0517264602945438 1.212634323657931
Ni 1.216684236714081 1.1976234279391595 1.40679644849033 -0.05794855149032601 1.2168643025788786 0.533387949214249
Ni 8.329905247559347 6.835005095530469 0.5332482463396726 0.5302110941481643 -0.3814216113148657 0.9077652520878238
Ni 0.7446674560100153 2.689740038261062 12.636776100077402 0.2111898994473911 1.0117900291109219 1.057002363981502
P 0.3800400830421023 1.3146980860915052 3.504660584485453 0.3674733766648897 0.6147366247960703 -1.203163150942702
P 1.5141176502376363 6.3652225218124 11.624131922402523 0.8816610988016041 -1.258599991754768 -0.08525186729096931
P 0.9007937295871504 5.455142639014063 7.868759026753319 -0.25646188391131314 -0.2975848792038681 -0.5471173829851996
P 6.458747679761687 1.9456403510230658 2.0763340860834503 1.1833129489859944 0.6065507465511683 -0.9207706632085562
P 7.345490053943921 7.5376189509039 5.8710314211128285 0.0021026481652996047 -0.2714431878114938 -1.405074710411961
P 7.5825150822107865 7.996958634708049 12.188987192654652 -0.336872106839265 0.6046378457991717 1.3594088329437297
P 3.955928919041924 7.3243369803760086 7.7764062744501485 0.1519308566757577 0.7805167286500945 1.0945327568267922
P 6.277264447277063 0.49138912494155584 8.956528414332334 -0.5285267644672058 0.835137244208452 -0.7094712347664942
Ni 4.844957115553065 6.433253387173954 6.074649340383223 0.7369558133400083 -1.0136188547895446 0.4050996716580959
Ni 3.171993247507404 5.236229065893581 7.981724734928943 0.06432180200652148 -0.004938060731565689 0.6060306123816401
Ni 0.20861999901998313 5.465530226774864 3.668213937226433 2.236998332779122 -1.2409146586598627 0.8458764850028272
Ni 4.991369565934895 0.48251036425834415 2.4024969681521844 2.3289499806877694 -1.5892032348661855 0.16109812499732257
Ni 8.884945307335455 3.4690487629846483 8.292062905882755 -0.13960087435549504 2.7806107879348563 0.9026091618081808
Ni 5.096674082498472 5.039657562633064 2.896097257515937 0.387946556917577 1.2231568204558096 -0.9011402905721384
Ni 5.954290656038176 1.1460080850283474 -0.09547179373906695 -0.2542165395205622 -0.05438525961909988 0.4689507046757859
Ni 6.371619137523132 4.866644776601126 0.723691349332082 0.7975289469373749 -0.8287089720846051 -0.12317872424372979
Ni 3.0757675010808185 6.324501703065977 3.8134208006702752 0.7854856426195956 -1.4821383854651828 -0.8215237671900754
Ni 1.45225297494882 9.204849829076252 7.0405908497493375 0.08593398095965846 -0.5514684608650439 1.1771207041323533
Ni 0.2619128405753967 8.010581398426295 11.198750525720927 1.6090135847238936 -0.37300664777829307 0.3099038057805372
Ni 5.51741286342575 8.751409041604767 11.315250041480837 0.513942696005444 0.010288526410201634 -0.4260636755042727
Ni 0.4077934685847356 6.611639699083929 5.714492224792406 -0.500880206394531 0.5903008603512092 1.0131156899008809
Ni 3.454568815893061 6.082582434248104 0.5214900868840792 1.4656193047642372 -0.010565177110355997 -0.13973945681588837
Ni 8.64528420976993 6.63199089143162 9.300942850335352 1.2981358450658609 -1.1269263426661495 -0.3573072347651653
Ni 2.6184924309931015 4.457215285986628 2.2300537942973686 1.8761501747402332 0.11858442000482805 0.774279489491131
Ni 2.8096996254011013 9.225689523776492 9.783832956045114 -0.9632234330561282 -0.23218681341403238 0.7019322460769718
Ni 8.672861550125136 3.4878883631470945 10.671154159429989 -0.17560686013645888 -0.4810847689351586 1.1090332644358125
Ni 4.428384430160731 1.497176757332266 9.737359791671789 0.27779175573734094 1.023025235705109 -0.3426563176212099
Ni 8.506779967284077 1.5080897155476949 9.453003493955709 0.9223814593391018 -1.4781418627112801 -1.238371323412719
Ni 8.936468479991069 9.29712147155485 -0.029331340311621008 0.2733476039230583 -1.3406834886200847 -0.32956683142710336
Ni 4.770732409042212 3.0424018686991867 1.3577462037816748 -0.09464539269072732 0.4863125929930011 -0.29686908408376617
Ni 1.5065136041838114 3.1017134279190213 4.186798817666674 0.24634639274386605 0.8126699163438714 0.2350548789904468
Ni 7.862952300675853 5.762438269843791 7.032173862044668 -0.9480127867539608 -0.08979114992221957 0.9878360893984857
P 7.890437470775861 5.409251068951039 2.392392343074841 -2.321919299093233 -0.7687264208833857 -2.032197624687526
P 4.95335855269129 7.523129786786793 1.535639404826341 0.23127818555683394 -0.05710008744710166 0.8478878590059011
P 3.896009036137783 4.1358729082647425 4.372124628090498 -1.0175179327336348 -0.2376195543938295 0.3686308873081006
P 7.3484487191357735 4.791608971844533 9.62018558964383 0.4410606631337372 -0.7570201881900511 -0.2244177109915748
P 1.8489721873715304 2.546986747010587 10.729850021345102 -0.5562535409585129 0.4973235993915241 -0.44896706246500745
P 4.323172083852353 3.265278762793178 8.197228008607103 -0.1231167606575428 -0.07122084311919992 -0.42522755275622254
P 0.6124787194103213 8.900522080463896 9.164599078631339 0.17449794334299626 0.39858269647518446 -0.2515986422817409
P 1.730966609641686 8.331767086714345 0.5060819853226497 0.35453070046129265 0.33655149027505266 -0.4681806592789808
