# total energy = -381172.59423981945 ev
CRYSTAL
PRIMVEC
9.24651982322646 0.00000000000000 0.00000000000000

0.00000000000000 9.24651982322646 0.00000000000000

0.00000000000000 0.00000000000000 13.53321641383958

PRIMCOORD
 96 1
Ni 0.20460698882160516 1.3307128884789095 1.6253930000503296 0.049661886001501565 -0.07984920821815925 -0.2686733383758405
Ni 0.17967282368890722 8.793227603425688 7.001572007266349 0.7622410702693582 1.312147843074237 -0.19656957843105502
Ni 3.1272007158547237 0.35320410896605964 5.854360926300959 -1.5274407089464082 -0.5839512639840976 -2.626680384330567
Ni 8.258621571579216 6.801712181679605 6.539899749178381 -1.2751524967968104 0.3451461739225991 -0.5534507814023952
Ni 5.491461841386804 8.688880628152196 1.3438697614179125 -0.8514856036594883 0.8527251324935443 1.294014880918952
Ni 0.4978437186615062 3.1899845848938915 3.1945292493464326 -0.3558244795720517 1.0576166005267333 1.0480538965389625
Ni 5.94707485508871 6.94418255784389 10.99908105136846 -0.06124779106688806 1.0329090704777244 -0.18115992874420414
Ni 7.398630510058471 0.02128641309500259 3.010991380405924 -1.058769483184254 0.6963341831639039 -0.4300419434257303
Ni 7.816582448856617 6.933095980674823 3.5997135936866576 0.22414774515963978 0.538332437703718 1.0477386792913892
Ni 4.262747312167256 4.599893914951663 7.0789006518575945 -0.35711131670427526 -0.3372143206700321 -1.1865826208762016
Ni 8.140978100918637 1.6487284419198651 4.599114433337524 0.10662467653979057 0.926592669206972 -0.5209486950096318
Ni 7.461451365176601 2.927707052449711 2.0471286147263585 0.374702033202845 -0.5326574988061278 -0.0038373714682191974
Ni 3.9199880719002596 6.4833360139687635 4.163967666429623 -0.6305674211807398 0.4597479551305953 -1.1812349834110432
Ni 5.1209168092990875 3.371484520883556 8.797321037714884 2.0465929741772495 -0.6737694104895106 1.3109905895413423
Ni 4.392365025892005 2.345462950899293 5.772986004671195 0.5033474369881008 0.934352515658049 -0.5159610119870534
Ni 5.694922261760566 5.622290849197582 5.536736500645034 -0.2574018792270793 -0.2512266036543028 -1.112097248073117
Ni 2.732734937197887 8.218445443305994 7.943077612864942 -1.4571086961900648 1.2290713861680318 0.5236776639050207
Ni 7.832366258053945 1.0552498188845296 8.799148150015641 -0.5503999103912134 -0.41180793691620693 0.23192198978841994
Ni 8.790823508293114 3.2609053913048514 10.94879107980289 -1.0640988658169674 0.952831548298843 -0.23208319795663254
Ni 6.178080657769936 5.731307316940113 7.939369758448932 0.010844656023987775 0.400555246820523 1.5314968812936527
Ni 6.5430130523750645 8.864804912738235 12.853267161926071 0.31058437678732964 -1.2335037109077724 0.22300643246634497
Ni 4.413095723150593 5.154121061687843 9.964994666866383 0.8374514941639254 0.29564781008215535 1.0439265046341504
Ni 7.724283688805222 5.615901504056778 10.212151365578642 0.6421083319408037 -0.6150305018874053 -0.4200516649822379
Ni 5.132965024521183 1.7708102420559664 2.6121677169953075 -0.09197221673393838 -0.9371293070722376 0.14306466453437944
P 8.911925177336704 8.70198294662473 4.835445306737403 -0.5655141403248326 0.10633414188256525 0.857611256941252
Ni 5.922266442624485 0.8678903633352011 4.793383813089057 -1.9492252974593525 1.1544602864203601 -1.3593810650295877
P 2.1137636592375166 1.3840005817444063 7.392032193571527 -0.7054752262332237 -1.2310645053386604 2.855595468971863
Ni 8.779441042492346 8.451883080679016 12.830206341692834 1.4944292870173939 0.08882852889863412 0.08537965111808521
P 1.3493908583550684 8.454351901449774 0.619326344318412 -0.08373363087422998 0.8603646513166731 -0.0037638379178064215
P 6.486516816759555 3.7448959740908814 10.661142946494252 0.856383555181738 -0.8053165613025938 -0.8438347719824499
P 3.147718743159277 3.012895238820528 1.5773508574337165 0.8986797448467877 0.9559017025837344 0.7773879532131257
Ni 0.8398586140893778 3.6805771827747624 0.9505246609536447 0.034438641293843913 0.11094233007853795 -0.3246398264391312
Ni 5.9194185145443585 7.792143897182019 4.659446125341465 -0.34333200353199583 0.1958545546419014 -0.742819728319953
Ni 8.57949429962004 2.1617253571323856 6.858187150299711 1.4215400550568358 -0.46019275597749776 -0.09147445116191343
Ni 9.149856623303693 2.0104892802539434 12.882742292903414 0.20704322426886923 0.1770309941774951 0.8552072754854497
Ni 0.8484449323205665 8.929650755679573 9.334400513591987 -0.03112783175305607 -1.1660724167379917 -0.3198079522681266
Ni 4.647920338484717 0.3749491494401996 7.330577974071068 1.8096861295797284 -0.25871622716312864 1.3611610397481462
Ni 9.014764969892465 0.8031480814149592 10.922848119366485 -1.0327972274902084 -0.33638848233462715 -0.2754641360454288
Ni 3.5243757247955787 6.395540309031076 11.927108005141074 -0.9753112174585977 0.20612148378554826 -0.8037494739257899
Ni 1.700231556875412 6.30295490686772 0.4224004394453837 0.8972576676882805 0.47785314937173834 -1.8367750153767208
Ni 5.414678741460258 1.0788099511837634 9.493009765311642 0.7662923575205964 -0.5059987585680189 0.038061325648095744
Ni 4.604776077374738 1.2655434173466482 13.50007323826179 -0.47052936201681544 1.2068997351669988 1.2247300784802004
Ni 0.317703945725695 5.024346157127502 12.451560433660314 0.2590715536200183 -0.4517831917575639 -0.22273183864871962
Ni 3.0724705655096827 3.937343789453502 12.352551474233113 -0.31595772528410104 1.6693162382686928 -1.281762031693528
Ni 0.3543312597224476 8.585208648819775 2.842814754710595 0.20682622316205668 -0.8283037662263862 -1.9725390324846288
Ni 7.505658976056758 4.6310546864777296 6.422431037740901 1.5147692841263267 -2.361979657449229 -0.06517103738069421
Ni 7.758921151753783 4.706866901831505 4.056513860523266 -0.6310513027956939 -1.6765711200588933 -0.6081949670228106
Ni 3.750804500205171 5.1970711458832675 0.7049694594604706 0.4289988468731966 0.2116357287355581 0.0737286971427182
Ni 9.345457501897883 5.724927218319049 1.743267633704425 -1.869597718333696 -0.23571745227511015 1.1777004878952233
Ni 0.7007900325376866 6.732649925736521 10.782184513159526 0.5620809462735674 0.7863281931255489 -0.17967023157255507
Ni 2.829425794126101 0.7531207110100235 2.037087818939962 -0.3704023773862266 0.17759586554202964 0.07847341091655517
Ni 6.218386237319528 2.287755421197754 7.163131823435252 0.9653970436686793 -0.07035335291258206 -0.1946708187464454
Ni 7.448802126171361 3.8315913431794284 13.175370601744378 0.29376396279588113 0.3678114767305988 0.16662471124250658
Ni 1.6326672371303168 4.4687505254697015 10.105847826728024 -0.517819919572663 0.4909187243064449 0.9313481816140864
Ni 7.51243667502667 7.852005865983134 8.735636579872883 0.13086837957850367 -0.2693539093826329 0.4252157256816806
Ni 6.980160766154848 9.253824491267817 6.466644196532901 2.207958751013662 -0.29022921016974534 1.550026564666724
P 6.206282542978987 3.19381264406653 4.957812824333491 0.12027080656831544 0.44914009770776203 -0.4420636504769548
Ni 0.8759921639319785 4.426179548583645 7.666431913395729 -0.19235579746002357 -0.9475978107037294 -0.6386928785013516
P 7.094651173583856 8.901032777082191 10.762411755346072 -0.17791828187845488 -0.06241224368863444 -1.5154174592332867
Ni 3.49758855710685 8.321960231802823 -0.18238852653674278 -0.739010896096824 -0.32368337606313285 0.9871192658371193
P 9.54157618559755 6.206365761656654 8.68578027008315 -0.8912533704757295 0.6545910377888468 0.6164770045259448
P 4.242691610849737 9.018759466420436 3.5689661415929983 0.012639543140881459 -0.4555938237529057 -0.21720525240353558
P 6.670624271316088 1.225922080257866 0.71733205635375 0.7656151289479136 1.5658956704884965 1.1029302368618683
Ni 4.729188000485489 7.728000789740973 9.034139202705097 0.6964575961156457 -0.19562238402643728 0.29441548033695103
Ni 5.382778248354938 4.8086156050578674 12.077326040196068 -0.04326343867432549 -0.39867525618899086 1.1156859938656398
Ni 7.641314667172166 6.378156851918612 12.648346716085257 0.311138963739219 -0.3583996964983957 0.14495622513013745
Ni 2.487581959313432 5.1488597919554 5.330098051436403 0.05969330209557461 -1.1538864161947613 -0.046452635035584514
Ni 2.2853420795454387 2.2008843682341346 13.411254868240784 -0.6545761253905114 -2.2950245315849185 0.10172852478975385
Ni 3.6668923335585664 6.842045500788419 6.437629542238644 1.1695791443396697 0.379706685506288 -0.1852929770759712
Ni 2.922464275756749 5.804095920338688 8.592293332245077 -1.7495631961459028 1.433161698456164 -1.2125193953466216
Ni 1.2985997254195534 6.543438392283136 6.744995878894267 0.19055242570269762 1.0977777461266514 -0.09190125428668688
Ni 2.27834246410175 2.8417514049404176 5.962748630701125 -2.116447790186858 1.2332319453036245 -0.14034160917626154
Ni 7.7539465241333 7.517411302647153 1.4230856206882294 -0.6658442421051629 -0.37115339661963825 -1.754635725572804
Ni 0.6463058396177469 2.277510277325089 9.109140498277615 1.6333369919606064 -0.7825599843323684 -0.970323020215387
Ni 2.927633080291786 3.3862974455081134 8.467719595038865 -1.043381430763958 -1.7694828178879656 -0.008807828099617089
Ni 4.696011487655955 9.411477652846287 11.640568529549343 -1.0919254011109325 -1.7142017859274734 -2.91762564673073
Ni 4.607346609862645 2.4741929987289377 11.337492578053391 -0.012649313332894345 0.8011272058115945 -0.44584368634467736
Ni 7.998923818142682 3.6277703085357804 8.526508042898088 -1.5307342920960152 0.5720938504248791 1.658901213582956
Ni 5.294788366502697 3.416598290698298 0.8510663206670471 0.2902775469091775 -0.028415317917899453 -1.397945298456031
Ni 2.4820710335479905 7.554147725576845 2.3321248461733726 1.2014320271842085 -0.4223245201768146 -0.6628406793921487
Ni 2.3586854741284546 5.112252820302078 2.627189612966004 0.0725462467988428 0.49966484593019106 -0.5872247925290468
Ni 0.659133536453982 5.755773608173933 4.074797004006498 -0.2047935090027441 0.5322654055740317 0.9990191025984989
Ni 1.8791239742982064 8.11997925458757 4.440451551803373 0.6062373290758075 -1.0787911777218195 2.194192293357189
Ni 2.9036106220055182 0.8432530114861787 9.778438733882519 0.16435108471698148 1.0872485644605532 -0.06973603104355731
Ni 5.095128265742351 4.180721435547747 2.998053649984775 0.781807165326744 1.0442280950349692 1.4150485337952212
Ni 5.30308249471008 6.672621519580074 2.3144908083759357 0.7650368878469406 -1.336755357210272 0.1073867515167957
Ni 2.978026612878452 3.293536359469685 3.7468331199765523 0.3227408096442055 -1.6142223826183424 0.15198999204846728
Ni 1.2452103204369092 1.2367959874728969 4.124585814202124 0.6874695336844225 -0.43318357437850563 0.4511319313268102
P 2.9512209521502415 7.984212605235272 10.379260018243922 -0.5309268892682664 -0.2469575439653037 0.3775526152777627
Ni 5.380993670044988 6.760870303985055 13.339515744832774 0.2522383327482688 0.47012749859270647 1.2642975563601775
P 1.693167215793538 2.547379202476362 11.15383357970428 0.18290725045261402 -0.7833099751245155 0.40218943998983636
Ni 6.951662992314094 1.6854926044087797 11.682562523603583 -0.735202063873695 1.078226306357285 0.04801072355132377
P 0.15313531203317662 3.6340579419594383 5.483266650940647 0.2598997059482685 0.7437527816571836 -1.12052481001518
P 7.104064130679861 5.159696713091469 1.8618995573252812 -0.4461396203185414 0.4226415371966012 -0.19249617969262978
P 5.764308145894574 7.584947882833026 6.846278557525699 -0.35899464976991724 -0.47395072899353863 1.0636229546218132
Ni 1.6588533810359019 9.509028436110382 12.096002160768279 1.2154160001681262 -0.4927040983416417 -0.17908607693431094
