# total energy = -340889.854953813 ev
CRYSTAL
PRIMVEC
9.13146240344653 0.00000000000000 0.00000000000000
0.00000000000000 9.13146240344653 0.00000000000000
0.00000000000000 0.00000000000000 13.36481824981199
PRIMCOORD
 96 1
Ni 6.672085579047781 2.282883844872656 11.250945046332449 0.10154366247245739 -0.11354840024281736 0.2295383200475918
Ni 4.580350635082795 0.5319277698110052 6.144648662409584 0.641424675610218 0.827251156592156 -0.21860676073675256
Ni 2.502513776780709 2.1477290709590062 4.816627222814413 1.2972968941043335 -1.371851943803089 0.376947377593596
Ni 3.845377495243473 5.013145423570824 4.845749282470207 -0.9329936876373094 -0.9644056262896874 0.2529389583597192
Ni 4.053611362166442 3.3110682400573794 2.9372261723575748 -0.0642796359146764 -0.42435389190201755 -0.09231057390996361
Ni 5.174032658324192 5.311305931497889 2.2065448198123145 0.07586065588405644 -0.36548180015615767 0.935264485949357
Ni 5.731207095179077 3.4434379179610524 -0.13905025574268548 0.6410932604127282 0.06127992985640414 0.9163247116220608
Ni 5.4753800466036555 8.30168634606554 12.692153700919299 0.6713857407486824 0.47958684423339343 -0.642552618567074
Ni 2.572040730944517 5.426471934376003 11.572141494273833 -0.9520938988018699 0.5257106351746494 0.6517756798272388
Ni 0.6208234687182931 0.08356840378525406 0.6613434196516372 0.19365163345331166 1.1534308167145815 -0.8853118081803141
Ni 8.235264089093182 9.300211751609597 6.956094146659233 -1.7423682210593605 -0.6073282481471411 -0.4529779833966135
Ni 8.763847917399751 2.807011519563261 1.6158871368938825 0.5420327693734407 -1.0445659379903622 0.21486117765139123
Ni 0.8007543681562705 0.1829844604403911 4.799051897272112 -0.5610388781622982 0.7242288526916429 -0.9843383606578725
Ni 2.104811198018384 6.8809403854090405 0.3237395601996753 0.7955959915807201 -0.20646035518220573 0.3248450004714018
Ni 7.670866665537015 4.133411211449016 3.948060789119494 0.14193389336404588 -0.27979001711429236 -0.6286591484144334
Ni 8.040252579620857 4.338248174386046 12.955921469134967 0.45502663839552604 -0.5807047320223419 -1.1423529616338648
Ni 8.143456366849561 7.501359330346212 9.269837768468662 0.5194445996602797 0.25498709913799955 -0.2624787795293544
Ni 7.07531269251842 1.3497853669072302 0.43931921832123705 -0.643430393186337 -1.0091140249406556 -0.7810052382507388
Ni 2.0644410030672153 6.855947573017873 9.30160612590705 -0.4653236494461599 -0.3027648807429108 0.17284600956187007
Ni 0.23473063115952283 5.101008354088839 1.6501675596186463 0.2873727145575567 0.4541262380684437 -0.6793569318796171
Ni 6.5725435082125205 2.20883681685659 6.872777771234227 -0.9450074242687337 0.6819763717803352 1.765878645476475
Ni 3.7721066415252698 4.404204726779687 13.894332631882703 -1.182074448593203 0.8996477651870118 -0.5087133292857045
Ni 5.994147552907847 6.053228114168662 5.023407360934797 0.8545256760373929 -0.051480170157162955 -0.35187629355758104
Ni 5.500290675833873 3.448177146909176 9.346926486586115 0.9475746707752777 -0.8155058431307696 -0.14027861714881001
P 0.530828341746739 5.812449715509443 12.525186738548088 -0.1534382944592196 -0.8058420947887605 0.39543977997082863
P 4.23298067667126 6.334550205563278 12.62702628530502 0.04237332275988831 1.2473017931331294 2.1195174302511175
P 2.690156196154507 8.818225775561752 1.3712306061840498 0.252412653542604 0.5907767715463632 0.6483003196841287
P 6.319163691540948 8.213120292948286 6.07854691976493 0.948503096126818 -0.7672770900313689 -0.4279084420224953
P 5.089621420566083 1.4724391688941323 12.560616812379921 -0.26566849011124566 -1.500003695781378 1.0188420508616969
P 4.0252307772516644 6.349197071137056 8.330718917390524 0.9070818528675539 0.5600520887689967 0.8680859312203308
P 4.900828436938983 1.4933776120117592 3.9061355061339023 -0.31570241474018534 -0.5483669391215845 0.015197276565728666
P 0.3072472260894502 5.977793103878772 3.6168005565466492 -0.12041633100724422 0.8521980563454806 -0.07401177560077576
Ni 1.0304489978420162 7.827389061297697 2.574878789435995 0.025506114690904462 -0.724434540944546 0.5925647166847214
Ni 2.1725118597166335 6.897084810804576 4.889411369590546 -0.3929234413068782 0.21715588722283893 -0.9711398596897276
Ni 6.034855611965144 6.064131080188045 9.398581342681968 0.5838774733233686 -0.7312212248490761 -1.725031786663442
Ni 8.88907679176309 2.551202733912496 10.345585211480156 0.6768238810451183 0.9928332855027612 -0.5580098615279874
Ni 2.391648692658986 5.689184105546578 7.0840752437681695 -0.555125855111973 0.31207278840739805 -0.43610306201814575
Ni 0.4179269415259187 0.3776745424387788 9.087127251898105 1.1791745013375885 -0.9929577268957674 1.5569142929254929
Ni 1.529611254528438 1.2888876446431852 11.517225792980724 -0.514456916637701 0.9532195277658808 -0.15093301153886265
Ni 4.69207407666333 7.560120290425553 1.5300176046020246 -0.7934905152019431 -0.5061584240743348 -0.0037376126655613053
Ni 5.619584099684147 8.40305470936636 8.218735229133646 0.30673466402393623 -0.5893269264737141 0.12556625063929988
Ni 6.8389447901635245 0.9576712430895138 4.841578943625104 0.38329080331312054 0.05700701351266312 0.02887863070756317
Ni 0.878667657321923 7.888925985924688 6.743526487715494 -0.10566154129557287 -1.7772130966526876 1.1692328167438444
Ni 4.8620927737444894 4.64906488909943 7.145874241363967 0.8625912266543467 0.3661495156471436 -0.12618768627338267
Ni 0.9840246433675215 7.67742305548837 11.516424050588345 -0.5276201934925365 0.2462371208595114 -0.130903089471181
Ni 4.521078313113097 0.7687613767446185 10.296844205013102 1.423180418873736 -1.4811510818512492 1.523831394328595
Ni 8.176302236842629 7.6712410554924535 4.711846432041699 -0.29576273839346484 -0.4496741158343611 0.2521696842938625
Ni 7.500610550435333 6.337298775723943 7.055501071852042 0.3246521677343054 1.6661285845693308 0.7734582791414163
Ni 2.541231177050547 5.5089381706582925 2.409717117166988 0.23404597810995822 0.3768831000145638 1.0021818165971965
Ni 3.5375832945605876 4.543696945299038 9.510765009963825 -0.7036528283125043 0.19740261585531163 -1.2089090522875439
Ni 1.0822883094768914 3.794716142248883 3.940562945402144 -0.050153995146571685 0.2746964046414689 -0.6796616076042294
Ni 1.5985720580279232 1.291353139471689 2.673966113447331 -0.42411837885244374 0.5559105557967974 -0.5969903565562429
Ni 1.2312772488171455 3.7344119650361445 7.969641720878739 -0.6479156826512003 -0.33673789525424586 0.942790362012757
Ni 5.573068430586376 3.286851601964075 4.893020123502488 -0.19729925750822794 0.4784056794410986 0.5509897214564123
Ni 4.217722003121519 7.174964340901615 6.390936072291161 0.34628877216747456 0.7464064172299467 -0.8494937700404402
Ni 8.521982874723523 7.292678021769182 0.30751021220449065 -0.558731055964728 0.02787924290877134 0.3137661169494209
P 0.44596144401847293 6.001014412578347 8.093145662008359 -1.2359411167046714 0.35846474540837614 -1.0731380932011003
P 8.755008661866448 2.079471390058761 8.016150997952883 -1.2340120180027585 0.46165751344848227 1.6230770047954948
P 1.9466907963503377 3.6179675574321406 10.62269130671803 -1.1862149531241375 -1.8898130169393064 -0.30446952213884343
P 4.04174959260264 6.7822384091079355 3.662427734359927 0.4833887344779868 -0.19029017318024646 -0.5018045179810132
P 7.384357903540212 4.311931299957349 10.543531572944634 -1.2960887327288455 0.20403606201142924 0.8731116665696963
P 6.328057735848217 7.9590099592904915 10.486009752303174 0.23707036675857884 1.559983932989752 -0.3022941117540794
P 2.604311318810934 8.934615394391788 5.881562101283568 0.011431638875709344 -0.4380095350122392 0.2823071271091912
P 7.101200388217711 4.313164047371601 1.5957595676309633 -0.6992904375787505 0.6820997847320769 -0.013933836472272776
Ni 3.0635782165872327 2.089397289609071 0.31211155607146507 0.1446615767078541 -1.1226981635174147 0.8697553485029537
Ni 1.3106479193703136 1.1729363360048826 7.091653444354003 2.064538760022393 0.7481843350659759 -0.6746983500616831
Ni 7.175831829822754 0.852869449953445 9.111665317465349 -0.6781821948452256 0.522860567320364 0.8878533436552452
Ni 2.6692999361978296 1.8086961376527448 9.376008367807666 -0.7748865269475106 1.217559014653058 -0.4626579296885387
Ni 6.382243833301335 2.3859323972417883 2.4880212329202704 1.0868523574633993 0.842351245458388 0.7956047333314684
Ni 4.202098071078667 7.1595139066429905 10.460108359410393 -0.19669247716216448 1.4341304901273366 0.39800034160915326
Ni 7.451930724765874 6.409026412308749 11.44262357205513 1.37555304680376 -0.3655987853499961 -0.0743951270821235
Ni 7.6346878117943024 4.156312918967118 8.400603824877582 1.1536915265751357 -0.418614418315079 -0.5001980927258418
Ni 3.0107709699456118 9.02654182564567 12.51929329276173 1.498740512798238 -0.8746684695338549 0.4851242291118548
Ni 0.2840113070501507 5.3187754676820225 10.125974455642991 0.010266929143646833 -0.8075894164971703 0.9454098019134749
Ni 8.664068428543967 2.4705901844827483 5.9055787603518946 0.8775085100858112 1.5230616060421058 -0.9685078213835191
Ni 3.9405912529353597 2.896572902074245 11.541709982920233 -1.0279087890496557 0.9419133587244424 -0.9622104184105814
Ni 1.2786147495244193 3.44344704942338 12.933882684806843 -0.43250120359950023 0.7152747288221487 -0.26253842912269626
Ni 3.2014541662745644 8.755638732767066 8.295516216970652 -0.09961636354275748 0.2519683669163338 -1.0858946215358203
Ni 5.783667346252241 8.170293734630942 3.755527558522931 0.06723640455015517 0.20646549738852826 -0.43485633409523816
Ni 3.3827684822552024 9.021409943817451 3.7350657777388143 -0.12192762544544809 -0.4239563993532827 0.039908920379795786
Ni 3.548586706665577 2.6279161489282767 7.1068755920544335 0.09993003812843436 -0.3836846963174295 0.34358088631800826
Ni 5.135917934567988 5.046201317197432 11.273411183097515 1.0973506858915618 -1.4473346475224362 0.5720149175578279
Ni 8.119550198475402 9.364405931773973 2.7838249104205315 0.8180589485699267 -0.012859115350855274 -0.03713187185529089
Ni 4.780420974684717 0.8658562156760308 1.7241680171768399 -0.6471415234893371 -0.5584040116426124 -0.641624707436166
Ni 6.365158867286036 5.982833671083713 0.01633435981195433 -1.4148418171010537 0.06288404111873042 1.6392682698433767
Ni 8.262001010788957 0.1420033706594934 11.485083045586897 -0.7144627744438147 -0.36923175411689313 -0.4194572259313485
Ni -0.029269076199271698 5.226465515010374 5.570215761755172 0.9503265224888021 0.3642314726888243 1.800723521069802
Ni 7.336308148771371 6.351854326674443 2.5300533540150965 0.5706938847535592 0.9312003431823125 0.08109362214822163
P 8.712547362042214 2.0162725392881127 3.816523900580116 0.12639337452628555 -0.08009989077638463 -0.7404098333268797
P 2.1600656765638533 3.3483793951287377 1.9849698864284415 -0.824295930618574 0.298148465016822 -1.5272717874687118
P 4.972163420643695 1.5861258748751426 8.384552540397788 0.2576471624686659 -0.7604580102270065 -0.6881827577013632
P 8.91632507534922 1.7377355439034734 12.785947516219213 0.37776730239173006 1.0965886109145566 -0.1375596755557502
P 6.7441328168140595 8.543880121385568 1.4667484415714525 -1.2416695345480164 -1.7113848853039688 -0.7699191556399063
P 2.169388899600529 3.8557690993725 6.035818981240726 -0.47399160953380304 0.2919778174297359 -1.4332246904836154
P 7.0614146068555215 4.449715935021403 6.273205041645172 -1.1697128417040565 -1.221306140400316 -1.519984509778679
P 2.4855840456249827 8.754360328041175 10.350570076764898 -0.39128256326934546 0.9277378385550086 -0.1295766573502736
