# total energy = -340863.9123675241 ev
CRYSTAL
PRIMVEC
9.34874628702856 0.00000000000000 0.00000000000000
0.00000000000000 9.34874628702856 0.00000000000000
0.00000000000000 0.00000000000000 13.68283517682331
PRIMCOORD
 96 1
Ni 4.28867187517433 8.107485115395349 13.408247579135468 -0.9359936508058976 0.6127651028919964 -0.7165636228369014
Ni 6.310815025635662 1.4302366339481918 8.366232233549905 0.01870683238088391 1.045495134672851 0.44852920359664045
Ni -0.027270292647263328 3.9122539584278746 6.310098911677218 -1.5998918249282834 -2.4052037582451864 0.7889458332540542
Ni 4.172840909833366 1.1275616271782918 2.9838570852873043 -0.8260087995446227 0.9145233967472637 1.6005901365468886
Ni 6.142107551822664 3.9396270872832693 13.61324408104887 -1.0360663851597833 0.34661247405548046 -1.0689058002873073
Ni 0.08599911623660451 6.291229402359688 11.837690939191699 -0.8136420504491536 0.11193529011942657 0.3105717783818393
Ni 8.41591894982062 6.087034087995092 2.2290841915830417 -0.8013424071461941 -0.5032109114102365 1.3447185779214066
Ni 7.036623633882349 9.29275655282786 12.010833458199027 1.3634992009630196 0.2583824979727937 -1.908172750393417
Ni 1.7110449233708342 6.411164467279723 10.07951524675953 0.07099869980606482 0.6812158394652268 0.17827875054166717
Ni 1.5497042615585372 5.013910209903195 8.004061806002774 -0.19255300107249418 0.018193640189891246 -0.380042471579152
Ni 1.32306260758267 2.4885614468153308 8.673371266627335 0.12129436273682336 -1.1494715749565172 -0.1172513030157013
Ni 4.308752981998575 0.30986045309444094 11.41579417683635 2.5641282726299583 -0.14004336120955235 -1.204189278214371
Ni 0.7769247478104302 5.889214618534656 4.166368772843411 -1.2013489805520987 0.7646563645790702 -0.298082387665577
Ni 3.4161627416548104 1.7524692177554841 9.493944375541915 -0.2751090666988552 -1.0646040875881602 0.23565163203418127
Ni 2.7830936956504457 7.196094546455888 8.00839868936207 -0.937248092038289 -0.25436489217296837 0.7400709619302221
Ni 3.9575860287215257 5.973325288040116 0.5231072235238567 0.6133631414873114 -1.4058295863001145 1.0196223806711473
Ni 7.90515955026951 6.378696271748717 9.56302880529011 0.6863742437377147 0.007397835125967904 2.5759252652648863
Ni 8.540509690345157 3.251306951273651 8.5648940250424 -1.0839053590199332 1.3825413051961353 1.6057379992964151
Ni 0.8240368193793773 4.177103938097731 11.975053001891565 0.7158658254389284 -1.2671486526557274 -0.1277408896931155
Ni 2.5261060115295613 8.54513731971108 11.516828881576416 -1.7606256246076517 -2.2473539649818326 1.4185508905215247
Ni 5.712542012964556 7.82530256028222 10.728327581354225 -0.14432784751751915 -0.9359250023514913 -0.7372820863311754
Ni 8.064275210487686 0.07499096759342572 6.145289865027028 -0.6378127898892435 -2.165815799097025 -2.1224006653361833
Ni 8.79111218081569 0.39296613238406974 8.212095715554536 2.0496399885336896 -0.6347968858810552 2.227957305622776
Ni 1.9765867102590302 7.373496354229104 5.880335179399802 -0.7171884009050938 0.4096155572505784 -0.7701158450317447
P 1.159870894024004 4.144317885196136 0.32001132171164987 0.1860159712849248 0.6715119819139016 0.9672407817456375
P 1.7422697356580676 1.1615443195926909 10.909393162760782 -0.8899917301544865 0.3225605753125993 -0.4265971794102395
P 2.6862780800676354 2.797415974819321 3.480325056531978 1.144268947709655 0.7092534623287333 -0.14748747619242342
P 6.388746173907032 4.897452878567249 9.25423504413638 -0.3715470325136311 -0.816703977203929 -0.5841343265291811
P 6.514785970091607 1.7706338316100034 10.776860662344626 -0.7639043169043941 0.724364864048875 0.1033352071552414
P 6.6358615820472835 7.781269965709505 6.02202103721429 -0.5633446434773395 -1.8132604771945482 0.4128536045719019
P 4.066470875640509 0.8418284182607646 0.9714665468553261 -0.7635574750879366 -0.6718341411400107 -1.4282493487562111
P 8.069688134533887 8.595442922979823 9.764509243760031 -0.3842842775746414 -0.8033406685231455 0.6282207753254342
Ni 5.437427109973927 8.742087355775494 4.592849225457571 0.06958870683241564 0.24545113462310628 -1.4106727733250286
Ni 0.04101762392522038 7.145171925938356 7.901892163474784 1.6307352926717014 1.5797996821640987 0.5498473803218531
Ni 6.181250752136032 5.445710099101618 5.368268825130802 0.05334576261099199 -0.04715840285335749 0.04018737085216304
Ni 8.1096633732585 7.523179129537755 4.356669045740187 -1.1283566473547728 -1.1254186477723715 1.3921022094116928
Ni 2.8955591123616484 4.965670679543279 4.388974573087422 0.49476098087067044 0.3822986146031803 0.23173944146396863
Ni 4.540966488705936 8.572529146058862 7.0721236278039985 -0.6666371703201035 1.2352448619685952 0.4160088623714319
Ni 8.146899429348336 5.178868836492486 0.12048196657237098 0.5945778904600083 -0.6301161925759342 -0.8457615566915176
Ni 1.0034383239634426 1.1656951629027303 6.334509422863803 -0.010689104282729978 -0.13623504320705568 0.18579408508210582
Ni 4.253660820678615 3.429400566265206 8.111854719366324 0.48151697137657073 0.6371432746260446 -0.7244553668801523
Ni 2.197749998965341 7.847963921055949 3.2422022073555263 0.6799750250795903 -0.6192016025459595 -0.047775981832698364
Ni 4.884551608819828 8.35096386126622 2.1566884359330096 -0.2181809860532436 -0.44761389087122266 0.21678204882318794
Ni 8.853113065572854 1.3042529302407797 4.30015961449725 -0.7342286442168323 -1.0262712534462326 1.3959562930504603
Ni 5.447533104609406 1.2482165455552479 13.157044899159295 0.3023383347284535 2.5445884028248176 -0.8387930957934844
Ni 7.357528695730124 0.7234676821997629 2.339491014382373 -1.771864944966897 -1.084650464716074 1.2486277110334045
Ni 3.377589814859264 3.0727739452109883 0.8525271234049292 -0.035626490954358 0.6722259772617907 -0.20555635531069757
Ni 1.6141638665646671 0.871820130925038 3.1226149157939003 0.06983810383906036 0.6347403216115068 0.19852335972331617
Ni 1.5365505756638853 8.800685296918122 9.440417194334795 -0.8382279673186338 0.7229209325134969 -1.040890031800672
Ni 4.320279986055509 6.8386545844828115 5.488403953219383 -0.5326204749206053 -0.5211207018111219 -0.18214877502003468
Ni 1.295081810224679 4.4328482389748425 2.3969315807462115 0.4333869486385633 -0.4682068845312259 -0.8255549998366557
Ni 4.453873569164659 3.412591520608786 5.462392936684423 0.5093568764069745 1.152328584789338 -0.43166148130702425
Ni 5.0195848988428216 3.533554947610136 10.433654166451582 0.3049960840662747 -1.1965363896548038 0.5079908492973831
Ni 5.909744465176202 2.3944289213901353 1.6114415116730374 -0.6518988356686644 -0.4506225957905594 0.8783988831105646
Ni 6.45127058845105 3.8363888830653305 7.260796283988437 -0.003511612697684275 -0.4104077141345706 0.6383010423795717
Ni 0.8506143699336813 3.2504749128624044 4.292058925920338 -0.40825621500920656 -0.32288736252439876 0.7626367630458801
P 6.999855015102201 7.80515601223462 2.2833910582227235 0.5352360581665815 -0.1895764349426735 0.22906472284528293
P 3.1628023710571127 1.0411605148553547 7.226233969310024 -0.6146214393744448 1.0136263109887123 0.013185645452338583
P 3.9548935898177167 6.478709158529801 2.700950937218777 -0.7910860195255085 -1.2306698410034032 0.7835632287859021
P 6.2144294523777655 7.087854763024276 12.960477226814206 0.17312111760012766 -1.63847508451812 -1.3768817929175123
P 0.9943700401554737 8.39061189387405 0.0913363154386349 1.6387095691264293 0.12623139502712452 -0.7710933784536655
P 3.890574216004493 4.066171715762309 12.41821255259005 0.2457853780340735 0.5384748768188533 0.04190152532979235
P 7.378170727325995 4.78591298772923 3.7697444760737135 0.43989132541598436 0.17551301487107193 -0.9793833306454423
P 0.4826841798565609 5.820548077741324 6.272198159733006 -0.1640644067144981 1.809565287731148 0.1271215109415617
Ni 5.0900463989053595 1.267287987790564 6.002769164177434 0.6715320365185596 0.7458466880717348 1.6481100365047228
Ni 3.175021182332386 1.795753912632697 12.501896919269075 -1.4882840933516046 1.8740192444401595 -0.04522904704112856
Ni 7.013279814636473 3.0186260072566005 5.115177698423485 1.1849661683187012 0.30762323727647667 -0.23157077709658827
Ni 4.47582442522766 3.9613255271990386 2.75223348446477 -0.972310997179693 -0.48850600109989417 1.1226732238167505
Ni 5.868021010913352 5.474223774992654 2.000047388832327 1.7756920320224707 1.302354511132899 0.035871517085628545
Ni 6.602514604374061 8.206039597770204 8.168091167220402 0.7268084404933611 1.1847131717676307 0.8192665957247827
Ni 8.8172606239197 0.5544049560314015 0.4606267480869507 -0.9467899700904533 0.2999526081050963 0.9736505419267231
Ni 2.3807984494396006 3.181238098551252 6.612571985529333 -0.2228603938067839 -0.18299312529820097 -1.121650953199823
Ni 2.5004810982124033 6.093624954061708 12.469838198821355 -0.13519348931641878 -0.3803954840431965 -0.7655282256610622
Ni 1.0903723148194253 6.484365149977039 1.1335326713722607 0.966688251676277 -0.096394257061034 -0.6154902151326432
Ni 8.77252687338245 2.4117895430719893 2.4561512135107257 1.152980873661356 2.4333516814343126 -2.4541246523156057
Ni 2.6591480186132785 4.020718111768138 9.917523912212145 0.8560662810516354 0.5429642800487746 1.5964102941375862
Ni 6.418073190716928 8.851430291257973 0.334260680660213 0.5558293089369007 -0.0038173168635611677 3.418603040824758
Ni 6.121820772582156 5.3506146528184635 11.437441198648054 0.0021427573746156644 1.2243001900316333 0.8936339548927642
Ni 8.578110347536551 1.4473822344675884 10.728779125795384 0.8540623632477292 -1.0436933055774218 -2.353237392480225
Ni 1.8559224431358805 1.0869600224586948 0.6933516312111122 0.03149549950511995 -0.7038688009780524 0.5375446516951001
Ni 3.060629923905265 0.22530291352091766 5.180212251320532 -0.39734933828871566 -0.4927681188103578 -0.42141949186404193
Ni 9.109128480089586 8.550942891097419 2.6417041930903005 1.654272713672009 0.25486934261321265 -1.5191018500634097
Ni 7.417697226233307 6.122793042186309 7.420092375008155 -0.9282538589594788 -1.4740023866216099 -2.3418702882938636
Ni 4.930257628961231 6.537082729763777 8.247301223971082 1.3371682763779746 -2.0416302308553353 0.15218719566093789
Ni 7.915742330960873 3.617534734668884 11.254131918154988 -0.56470141461555 1.0092294674725975 0.03604172411490567
Ni 0.36970458210470036 1.8430679171194295 12.592435786657381 0.981473894625884 1.4049906353385868 -0.2564665118970035
Ni 8.388788888366262 7.640814402894118 0.1932507371955346 -0.8510711418298892 -1.7908088330592513 -0.38343632775204933
Ni 9.241104730107212 8.532423024887535 11.448838255132893 1.3783740611923228 0.42775417583281816 1.5149348631699138
P 4.944879068008307 0.19145671280094775 9.397822436926683 0.46819377190510336 -1.351735632669188 -0.9336215510292953
P 0.6647388586104217 8.75099671089817 4.690175282582563 0.4674306684868337 0.5986957692831237 0.2656317233360393
P 3.5391828928187934 5.222069392653955 6.899459764601792 0.15707074900548432 -0.26171978987614286 -0.7594658215170662
P 3.8828521516484287 6.7006764394087766 10.174569558559432 -0.836800490843488 0.008162995426766587 0.41577900574881305
P 7.732647136755643 2.495984351293194 0.363195985004589 0.20118522282619544 0.3887184020865951 0.18937408912388032
P 8.028778021189895 1.8804629018945591 7.076967213206997 -0.5283565574379288 3.58706300550379 -2.323863824414114
P 5.966108055978516 1.5113744021640292 4.085092643183905 0.9773511307067618 0.21158507800328077 -1.445366210942156
P 0.5477766949800098 4.5351702660657915 9.915731757566798 -1.4505644673136437 -0.12096474731154652 -0.3949582123487198
