# total energy = -340871.7513896542 ev
CRYSTAL
PRIMVEC
9.20361299170292 0.00000000000000 0.00000000000000
0.00000000000000 9.20361299170292 0.00000000000000
0.00000000000000 0.00000000000000 13.47041792881581
PRIMCOORD
 96 1
Ni 4.574600617121434 3.36209823403098 2.7639683105918915 0.10038178095387228 1.4468129706910116 -1.6287522008034012
Ni 5.584918029953876 0.7426901523787084 4.471141883091603 0.41994599264230903 0.30296234146569756 0.901485332616383
Ni 8.261153820039237 0.7958143269429052 5.320963011084855 -0.7113949341517684 -0.8579699258322514 -0.551310852241257
Ni 6.24763338721892 4.3048887383245 1.0398030277821688 1.0550249285401572 -1.568793560861582 0.830126421257422
Ni 1.8766074859176318 0.9232512339066955 12.594840663422792 0.20296442621380528 -0.7770261989983327 0.5937929326648677
Ni 1.2630394220419636 7.430380489498916 2.3461564932977423 -0.45244036572558854 -0.33580432769638296 0.12294089720131085
Ni 7.4488981588433765 4.9751510582448395 8.089551535399867 -1.2798267623440283 0.2796051547969959 -0.9291581159413029
Ni 7.3443359116155325 9.101784220096416 8.72150289587028 -0.6894665095097933 0.0025248233043827484 1.1449479760545507
Ni 0.639802042354521 5.714330032266236 4.418081213457066 0.5990312982456716 -0.3256086181103038 0.8126940847135875
Ni 3.702880412369628 1.2288111853162922 2.6140285698571235 -0.4143407306403897 -0.6523513498250507 1.1337839890179313
Ni 4.592115092649521 7.011330786257037 12.815876473815658 -0.5674494096743323 -0.5507999740431095 -0.6180638893970904
Ni 8.962275854329349 7.8618734775090395 4.212697987683547 -1.0335778144099748 0.39699478316277437 -0.21129402912542317
Ni 6.069736751652773 7.784995698167945 6.9289271576741855 1.4536891289855547 -0.848577685984074 0.6418777039872364
Ni 2.939072569975579 4.588129928223004 6.823076404627145 0.7023842460127258 0.8457070493044984 0.2973977028937265
Ni 7.9872727045559 0.7231260322367993 2.9641119194877765 -1.179535227111117 0.5718477958523441 0.996488108646529
Ni 8.676291987758553 3.0238378456527593 0.7220979886653399 -0.6260201681296896 1.2154229421466616 -0.5560234272255778
Ni 6.941742268407401 0.17534447368283781 0.03897453994681384 0.17359111525801071 2.3156157254727088 -0.2813684173450058
Ni 2.7822522081662986 5.5847523649199795 3.0204177830640906 0.6848416091432721 -0.590554371122912 -1.4220275362162156
Ni 7.35432183171431 5.761931118672575 2.5427834016685185 -0.18277946662549813 0.8577850635149551 -0.43307533093541545
Ni 8.581301498044743 3.7844152198858216 9.61886160534021 2.0063043018605318 -1.0069692106835109 -0.0061526498649571455
Ni 9.043516146229724 7.9636286227736335 7.438189755124549 0.2964165699273798 0.4241849704243211 -0.5784390759166167
Ni 4.879608351751375 3.0410025838870633 7.150609982060549 0.17210476052047133 0.10768962746919518 -1.638231086828114
Ni 3.1099468488271027 2.975546488271851 10.873711652539876 -0.5589462572993277 0.4593838869229573 -0.8520772144969003
Ni 3.9161925507377076 4.733252497916574 0.34991952531935505 -1.1575996033802902 0.17985972187554186 0.26610634897961266
P 1.1876158135539625 8.534040945319193 9.493708114760297 -1.310750448506078 -1.861928888934529 -0.5890669879441081
P 1.1375941769301323 1.5997996215021189 6.074174733838607 0.8342458427424341 0.2541311788956075 -1.1434803903700888
P 5.008606191478993 5.637157737309324 2.1190582630255537 0.10047922576368501 0.511303458610384 1.2691222314423305
P 6.874454653806329 8.064021633315075 4.93984507843754 0.5461447346592853 1.1851217200599589 0.18541690424834517
P 3.069460155265331 8.616275227422951 3.9166186780193417 0.5725576774351752 -0.45356908001339297 -0.9527258759589141
P 6.52234282787174 2.0752214543338696 1.43560992676833 0.2952423471136205 -0.6990019598040542 0.26321154393032087
P 1.4390309097182983 3.92774308504551 9.035013848545622 1.0584408962002418 -1.3031366407145621 -0.9046246495763131
P 8.715508582727114 0.7481764260845898 12.405473564981891 -0.17242923373942565 -0.7484653566415046 -0.06275522885034998
Ni 4.7012699427615035 0.6826282943394346 0.16802023846200173 -1.5849724846142896 0.47257724568477966 -0.0655001385853388
Ni 3.0511449654067433 6.434577174358429 5.075855150905488 -1.0450315647728712 -0.18033589018101198 1.149399069847369
Ni 1.1690429225315355 0.77627597691738 3.7786270676737286 0.15871651213902344 1.0146015304177882 -1.8058816682319738
Ni 4.705071034928134 4.261659368090437 9.218722565717648 -1.304493668963089 -0.03941552568314502 -0.6005155961006818
Ni 8.549797530765375 5.6756840613033175 0.20997122685116087 0.1043893594513686 -2.313361125110577 -0.19658243394686145
Ni 3.9937974155053495 8.229557816629926 6.3827148151357465 -0.580101294110388 0.5205679146314454 -0.19134124015258014
Ni 1.3476206254592586 4.692876247710734 10.978821514740881 -1.4220239366717895 0.6182454092802772 0.19652149880193898
Ni 3.0861186947849504 2.368071216198387 8.413151488639523 -1.9901261494387725 0.8288683804806047 0.4822389371442598
Ni 6.0121957632126275 4.784986006557337 12.376795106891763 -0.14613173349547737 1.4052729424656958 -1.1993188374959474
Ni 5.78540033180795 5.08758239458278 4.332679047760683 -1.574682158431875 0.6793037100441786 -0.7512799432721642
Ni 2.31531610651526 -0.006708513511519732 1.2663205100744193 0.5898730287851712 0.8518298743727846 0.43431254577662615
Ni 8.668082364967669 7.840870832656127 13.412670032647979 1.405116876503806 1.5861559633994295 -0.1832425223048457
Ni 0.12587965564516077 2.8697509569027755 4.656252310522655 -1.473904684701481 1.0659991681634737 -1.1499562279024196
Ni 1.682853025162366 8.67464454103258 5.524460416555849 -0.9517336872489739 -2.7086137287712644 -0.09120191422681713
Ni 1.9249632685895 7.429506146264461 -0.09720856044542654 0.7658295589515649 -0.13816028525422658 0.045045984496045
Ni 0.5419271403283096 6.037505698946856 8.79404117168458 -0.8125555022531942 -1.1132239054783923 0.1475694943832684
Ni 0.96439138399106 3.6458732334831514 6.9319312169555145 -1.840948944248752 -0.09540463945425504 0.1365590022053777
Ni 0.829579621934965 1.4711055010033118 9.361119025242317 -1.8120338038762986 1.7791383386998583 -0.029576428105536158
Ni 6.501653105860633 3.66022166614121 10.385328371528303 -0.41319041908603027 0.5521654869320684 -0.24668269303736226
Ni 7.634461404033747 6.101912582680722 5.869438522058584 0.20636856679934779 0.17008207366348774 -0.017711044126517885
Ni 2.322301648777907 7.1068642891375085 7.786373479033186 -0.5396557845008318 0.30905816995079033 -1.201043276386222
Ni 2.662816922339722 6.7238467307681775 10.199490858670703 2.6532835887403916 0.2676855205412745 -0.8624529013042694
Ni 1.8804822069882174 0.22080111826151247 7.569485737016835 1.2050961062993568 1.239789286806168 1.7518293664722604
Ni 2.4079320640765483 3.2460774886252755 4.2211036474312085 0.4981900611568775 0.22682400644022227 -0.6133101767621888
P 4.512255342698284 3.3483296289915594 4.838937585929719 -0.03934919122158385 -0.6756198334346881 2.214610194891909
P 3.4243790831631706 2.6302177251140355 0.8995905856210392 -0.3639167696618829 -1.3708296731861618 -0.3428514643511515
P 7.864294027726531 4.644971442075584 4.2537967215094366 1.963402874511315 -0.5940330737001318 0.6078468396547725
P 0.6400284512341798 6.114319052996992 6.4796214970749615 1.1740996579178424 -0.13010553327055013 0.7570312439336446
P 6.714633914160919 6.9679081401500955 12.211257082854313 -0.11610304834387103 -0.03984027192538945 -0.6188663306937277
P 5.049304568139633 2.4015907747234997 11.393441519048617 0.1420763324791811 -0.36617754067160163 1.5035582459018557
P 1.770738325644602 5.605985100097748 1.0024133499929673 -0.6830698619548301 -0.43915290458806305 0.4794899136442129
P 6.900279991868236 2.7749537430618467 8.047065817095742 1.044617617163904 0.25655958583144206 2.2825654798859594
Ni 4.967953832883325 7.469891600083295 4.188962790132636 0.1277570876430316 -0.0053260401986037305 -0.724182829945056
Ni 3.3623743424208077 1.1907726528109952 5.427676142669458 0.18189217892453838 1.3486778196794706 0.08125637297833103
Ni 5.692811985085645 6.282561098532155 10.15743586945471 0.2589445411238508 -0.6655141124592537 -0.4954436087599918
Ni 5.075663715755208 5.4611938604719725 6.541827796941898 0.8378461584991829 0.5361953367560572 0.26437111145606085
Ni 0.09824764835247905 0.8718131612430482 1.2246520726041839 1.1419582972986075 -1.094263819436122 -1.4565528236865948
Ni 7.88923581894099 8.28653738467742 10.936672648672344 0.3505411196859253 1.5975858025029261 0.32933543214258765
Ni 0.9278898548558051 7.059935066479751 11.401779072060123 -1.888198107043703 1.2137347558109612 0.1126001773969351
Ni 6.438341452073083 0.9609768435701876 6.9632096957165235 -0.39759359308903786 0.47437624656673144 -1.5365907508767924
Ni 0.4135431815874093 2.4146138871103844 11.54165650270826 -1.307765140625509 0.07455067882338129 -1.6338599543436119
Ni 4.528076353435425 8.204772486836369 8.845228906074782 -0.6804573640326474 0.4775893541873904 -1.5674846122421715
Ni 1.82090722007634 3.3474000640791384 12.889640670880793 2.0312555724892305 1.2702463177444445 2.926112858266135
Ni 5.183916611793752 1.5987504096207725 9.463588370875264 0.8916212953381096 -0.46887614268410865 -0.3351597521338486
Ni 8.766680670975228 1.4224736099416158 7.447659352534349 -0.7804480801956881 0.8095691659313605 1.2576191158987375
Ni 8.166071294195484 6.042889812548501 10.711662718188554 -0.9867420850033586 -1.8497374890746592 0.06035330427707671
Ni 6.996319693463392 3.4756063930892496 6.035703631522579 0.6917473351241699 0.40588231546039133 -0.1803765136109603
Ni 6.893064359280732 2.4663105812991706 12.574365385594449 -0.048517230874097095 -0.2302841970746808 0.7273486292675474
Ni 6.517741021374608 7.381840634567162 0.8484580729088014 -2.6594730053805553 -2.826076119356507 -0.040766383284084634
Ni 7.606979415632871 1.6273000171289824 10.289135889957443 0.47118447910231115 -1.1731159538483344 0.2088406824889242
Ni 6.751972972078651 2.8898884621342273 3.781038414278226 -0.03404551962048331 -1.4079119227504397 -1.2826557471523912
Ni 5.285846625705237 8.433390233613911 10.858032377442848 0.3637792156427542 1.9840915132089183 2.3823561642230517
Ni 0.2727536728915393 4.685642207897241 2.456479281898697 0.7684585119339797 -0.5172918149833349 -0.8064625019815789
Ni 5.818367673553408 9.126219812596188 2.3635329146309143 0.29668242199425676 0.16864945498201922 -0.9193359876445586
Ni 4.155017104325889 7.5285554293087396 1.65357449150501 -0.9459024252791773 0.27262409549347244 0.6499730794008612
Ni 2.5909182976285243 0.626265368362556 10.276298690553041 3.526686561298262 -0.42921019155305434 0.44569121992721306
P 4.409598243360252 0.9199793494872344 7.539851023536602 -1.7315472191844568 -2.0072316987708074 -0.48637429946887195
P 8.305257533507755 4.1144935963121405 11.947735554157322 -0.20900677575314328 0.47369130468456494 0.40104092820769
P 7.964125617875324 7.868444857186945 2.156156186282837 2.5086176411571635 1.102208271094179 0.840913741680913
P 3.267816422517729 5.160125272203578 11.679835866758959 1.6077964244873406 -0.4695657125519655 0.44144041507065906
P 7.413620710236359 7.02320344701964 8.6128238725501 -0.02231820388122608 -0.5393179415454389 1.1023645941663853
P 0.9280647235026961 2.6093163200040594 2.3626843415128436 0.28087605108961944 -0.6557953425095931 0.5550230109855215
P 4.072230605442476 6.130186081799104 8.357357345945688 0.7583767022179455 -0.3975941073096701 0.17628100338534802
P 3.2055355733855384 8.463449233653181 11.84180380931593 0.44172272219776826 0.1105929171589192 0.38029546813022247
