# total energy = -340863.22462904913 ev
CRYSTAL
PRIMVEC
9.36063539108286 0.00000000000000 0.00000000000000
0.00000000000000 9.36063539108286 0.00000000000000
0.00000000000000 0.00000000000000 13.70023608237502
PRIMCOORD
 96 1
Ni 7.868138096404177 0.5445680587035819 9.602741495594588 -0.17853200420305382 -0.275072557033965 -0.5718627082506795
Ni 7.086581219502257 7.559985985023585 10.97677977862757 -1.1446150181951642 0.33299771148552326 -0.7906982971687866
Ni 8.471215741602157 7.712264798752002 4.402789751860268 -0.3704926231071877 -1.243690421632787 0.9112814927711984
Ni 6.328753552878278 7.818339517043766 3.2922355650105177 0.39230406255532435 -0.02109101634234432 -0.6176987927481878
Ni 8.209801281865648 4.123837205979086 6.32533036857901 -0.7808612564737067 0.9951927868738732 1.1802080848084253
Ni 6.954867721348055 2.5391191060918192 0.3343216392598979 -0.5948185457159046 -0.09073165945861794 -0.5279066143847038
Ni 9.033977130915682 3.235241465357935 10.647330349998706 1.6646890239093266 -0.801676136336529 0.4010165027276577
Ni 2.3184608520950176 6.364548621952378 3.42111372675715 0.5432823255098256 -2.4968250193976096 0.27505635908404885
Ni 8.45000454219789 8.492164843220314 2.2395366562534176 -0.5726780050631234 -0.6109851281734381 -1.6388805474866548
Ni 1.2425494401240171 4.855118111124471 1.5840900012641308 1.8244825711626127 2.08196492591864 1.0272346458007662
Ni 1.1938647763545618 1.078251570775531 10.272409763670769 -1.0318616030498164 0.17860528064315045 1.020771663784242
Ni 8.889720381569195 7.552656607647795 9.224478226430257 -0.3503876248271966 0.17617327416289016 -0.6832377549912619
Ni 2.8082841717889315 8.153422175946897 9.686614659276009 -1.5081972873357639 0.2129577899810913 0.5892145692655659
Ni 0.06655505246437281 7.313539181000856 12.85427327442262 -2.5081941804665 -0.7627342078556929 4.369817365235151
Ni 1.4210193111927407 0.7229302824672972 4.948621496318296 0.1326540107240167 0.6837918277225191 -1.1214362660858557
Ni 4.832109669758325 2.9096130480251077 11.431531606349747 1.088439499444861 1.831949568963619 2.7968570745903896
Ni 4.967520618823685 7.564469729293066 1.147587667963208 -0.1363664265785974 -0.6124629982705452 0.3982008876557335
Ni 6.654681510538086 7.648930740866185 6.536108472103083 1.5422530913688923 -1.2704738603742183 -0.3552040723792334
Ni 6.032564333306445 5.290378288131949 10.731065912342421 -0.5523601194413779 0.5555991952039657 -0.4928838184526157
Ni 3.0231107500448435 0.07457711684630378 1.7166262992540056 -0.1302914240291111 0.6771401267339564 2.5123907350463504
Ni 4.151919111633453 3.3436001786429217 7.458696423455324 0.6952311799077123 0.8624894109691597 -0.1242956114569924
Ni 1.6944621871845351 5.309679917951717 12.562773733095069 1.1477844170620815 0.9346217101590356 0.7873869734073665
Ni 3.7092733934388766 0.30970036044567023 6.568413896367868 -0.5781701385259462 -0.552192740625578 1.0400353971098604
Ni 9.110285029213815 2.8699333153354862 13.14204728293336 0.9858113456589732 -1.0821392682584459 -0.14810299828923526
P 4.432925380881492 8.65361707946249 11.497621435243778 0.7175753519308674 -1.287556526888118 0.6141447568483422
P 2.519536657215507 7.768793674834243 7.393934868698745 -0.3535313126625008 0.17158334079936255 0.023957796367178097
P 7.041631449184833 5.85879350111722 5.385645217000869 0.39299286109223286 -0.44748842103695197 0.08147620229862097
P 9.376267478936766 0.9205819672249974 6.518353219221349 -0.6886674106472656 2.0555748659608857 1.0486154254693876
P 0.26284663692487986 4.610768089390601 3.7566456961507515 0.689750102188483 0.8015817768505098 -0.24858145272197185
P 7.105798603605063 2.232455335710908 10.671374077619975 -0.9281790398574853 0.20081909773602835 0.061417998096165195
P 3.3044727234311693 4.711067295752783 5.593039450893591 0.3182899729617034 0.31773384334791727 -0.50875215294344
P 9.337121302454578 0.78000207539219 3.21855519701811 0.8103788063168496 0.9560122600196698 1.0402164027724148
Ni 5.006292369897149 8.44622284556977 5.169290983077359 -0.42770532487275376 -0.5083034954417955 -0.6248642001483754
Ni 1.6991050622527242 9.053578301062428 12.35272201486392 1.1789713841878469 1.3430561026173193 0.30263838246737557
Ni 2.9216601855508317 4.566417399727136 10.923719017893644 1.3155545547629408 -0.8576696209830132 0.07724956581178309
Ni 8.672263464816991 6.196057188026174 7.4607098960907425 -0.31683138613830597 -0.6797901627622938 -0.9300472034144758
Ni 1.214570501457049 8.183413651185761 3.032629579998152 -0.20398361150693903 1.3315797265466036 -0.07584368660319196
Ni 6.946714608073071 2.627857927959621 8.02246033680071 -0.5934005823224555 -0.8152471901527443 -1.0539517500806364
Ni 2.541683920141585 8.053516116263875 5.0603462940277195 0.7219943069341694 -0.7825404439483427 0.8416169383955248
Ni 5.493691285069569 1.1683383241147418 4.155322638598763 -0.5495401334940794 0.5220442420666557 -0.6517949631009485
Ni 2.144587052918392 3.0118311846070056 0.11615705848520393 0.7986730878441471 -0.19780396505878836 0.13675440604563546
Ni 0.9810039314944563 5.804614144474726 5.584339676521868 -0.1327113463245134 0.7895662404468724 -1.1008227036005624
Ni 3.5405853861730914 2.345616054862791 5.29707301443995 2.4646335222667295 0.7296865333721045 -0.6579175310589186
Ni 6.165625762932057 5.0887876480744625 7.39963455948306 -0.0032447321895427987 0.14727124641655925 0.35264839583691526
Ni 7.566735003015851 0.6889352635456416 5.1279843719868285 0.5708643488931524 -0.3356282071298349 0.7041986735136453
Ni 1.0156850849776002 9.391244495285763 8.31508409041796 0.534535175444815 -0.5662163085981797 -0.5930640249186431
Ni 3.41819508069614 1.0764730500840878 11.038211755437066 -0.7312014273547343 0.6202590972761963 -0.5841978327772649
Ni 2.1772275879239853 2.03546076754552 6.993368014000193 -1.2432610474048524 -3.8878275679872205 1.557766356513143
Ni 8.523382561672753 0.47178911988267946 13.645859135897238 0.6056192358758344 -0.2976357870464616 0.34541305443074066
Ni 9.163528322334496 8.586594931300734 11.179269039665996 -2.050830152187049 4.236189934854272 -1.2290325625102962
Ni 5.096257434978524 1.4483617266648765 1.5426055381044557 -0.3421454394230624 0.730600817656258 1.166778698776397
Ni 6.713307168909186 0.3940303231257358 12.088279389634351 -0.777750478758867 0.2224415611018105 -0.19980094088415912
Ni 4.349494039182366 6.570239220235402 6.7622857566244905 -1.1109788181979574 0.01587090559398557 0.11349517840737872
Ni 7.277528817316738 4.087218401005791 12.048741002536524 1.6253470317765943 -1.65635402168107 0.5229166173692801
Ni 5.023684430132421 2.2473387457077227 9.469959012898476 1.9824668331213022 0.24203593829397027 -2.2793228045789453
Ni 9.028950469803549 2.771852579519999 4.88088700381644 0.7809818412119711 -1.9044703618411654 -1.2697981744634323
P 1.5948556678284938 2.7505664950339885 11.705467787817536 0.4812053536734228 0.3920425813638216 -0.35667885715254705
P 0.5164009712687295 5.043313682184824 8.975572383535727 -0.2186278437826751 -0.4059039127269461 -0.2637213936872039
P 6.297198851557987 9.210949300349505 0.716778473001947 1.6684117241765526 0.3891673166985556 -0.5152755558842546
P 7.2267286499879875 3.213496709746237 2.315011458017139 -0.6863811857162502 1.4744798404786605 0.6569191717013912
P 4.651131148451145 2.7083781121059105 13.539285495748349 -0.3663395201707626 0.0893967426972783 0.020979173354828386
P 4.1568240844877495 7.431717200629652 3.2601903664047973 -0.3699457494647822 1.3303103729158767 -0.1894964736343575
P 3.6310933680971176 5.628194252518771 0.4029060774395596 -0.48252304404358193 0.037891375729134744 0.5589673403452502
P 0.45660242530479755 7.095473822959474 1.185263288652629 1.0884685529105835 -0.9456681977811844 1.6866668137319984
Ni 4.997746109943003 9.253821009648506 9.372577516533783 0.25013594169328535 -1.1152131679942794 1.4134115124124302
Ni 2.6490878486343226 5.48491100923497 8.708349649646374 -0.043450614984467104 0.6321954437024662 -0.7493829833597675
Ni 9.15797746565015 5.065751124802663 13.57774179341496 -2.9596336157314 0.16690496148708675 0.2612608479618533
Ni 3.796411546684379 0.6388362077947283 13.384664651088356 0.25559207971185016 -0.10781021220745948 -1.4236419318911868
Ni 3.6056418009390425 4.133122956115464 2.764488567793902 0.8607492883496014 0.17780412489809377 -0.7863621316872779
Ni 2.194001846234861 3.088616475301264 9.422748649175876 -0.03841073856771449 -0.5636382634583583 -1.2298105783269013
Ni 5.423842225071939 4.816767588635822 13.151321800307477 -0.35951555527039375 -0.1361710227383397 1.0809966700135705
Ni 0.24505019724818533 8.24404248549354 6.376144576860589 0.6065998546215489 -1.8489502172866736 -0.06221324030395091
Ni 6.0014963850174965 0.2659936824852126 7.410361847443028 0.7195075359565738 1.75345250389798 -1.0590399632368213
Ni 7.801827356518998 4.381413805276163 9.13542675934617 -0.05527923218827899 1.042475631120237 -0.35916588524045884
Ni 8.941035383834942 5.687306663921215 11.038786498439459 -0.05372397188601716 0.0668777356591558 -0.5734899594414574
Ni 7.57526254169956 5.326463536897811 3.285398557047201 0.993263173951328 -0.1408136637166736 0.9887367468358843
Ni 2.704484087855171 7.691596516190387 0.35583986749931784 -1.103361925082648 -1.7271961413046124 -0.8029424046434622
Ni 7.322272653659364 1.0716336016763184 2.516678855283414 -0.5976097353077967 0.7987628193444759 -0.09181897898552574
Ni 0.4449428180771042 2.8516894372953656 2.0121949087108764 -2.024231318652598 -2.2086853447670416 -0.09697044127947815
Ni 0.16522082798099302 2.350614634069268 8.301123639053653 -1.5490341188464676 0.3491432108971342 -0.6160921103827003
Ni 7.604055855630505 6.598686190663276 1.197270175446915 -0.6236053880406098 -0.08838192827951875 -1.1095999355725599
Ni 1.8911197724820707 3.1192538343701792 3.8958261730184494 -1.1496050152105879 0.16693401495280927 0.4459215907704642
Ni 5.748777955398626 5.175972604496055 1.9978094845076657 -1.1429098625785994 -0.13815719993043304 -0.8412610977180028
Ni 3.9860860981091957 6.330897138343229 11.9139581520943 -0.1163015375079223 1.772905213305953 0.4343652533914325
Ni 1.7545949078257541 4.021001267472792 6.8603384105343235 -1.805192355474433 2.8924347492873994 0.5970032120720493
Ni 5.848712096987302 3.78713515718322 4.227865689412169 0.8196628027219368 -2.3638984717384965 -0.1608636403890133
Ni 4.6073420969007675 6.722340181894674 9.509922372835208 1.2674271031280948 0.13657211483150028 -0.7914143493992047
Ni 4.945869469564168 5.796854177878903 4.421764695510924 -0.3176037455279563 0.9711498869920565 0.5677641127012738
P 7.271800108563247 6.29713332711146 12.676499834614127 -0.09400981598925745 -1.1238965547008901 0.520899072718619
P 1.242474555042272 7.186908507770094 11.281116495093258 4.055668668135331 -2.07766938386708 -3.0581027530435914
P 4.585924963521704 4.444457683470218 9.36715302842488 -0.14663232728097972 0.49483065776634133 -0.45059251388357235
P 3.5375431797272014 1.827935484759744 3.2106913273713653 0.05314470234377943 -0.3053133581963774 -1.0482991797805494
P 6.623772693047845 7.762241230181557 8.676304451040654 0.20942586556843287 0.1175760333449717 0.5769313810228386
P 5.841242310083239 2.2647027240373396 6.025527943812984 0.17055001443884177 -0.19524417475141212 0.5447136586397134
P 1.3414726331091356 0.9291965598162355 0.5095901730840235 -0.036479068762640406 0.4358528936805526 0.07682301979732577
P 3.380546605848851 1.2568431301020901 8.721008036651842 -1.7931757906295311 -1.1093333121747349 -1.01690061086461
