# total energy = -340890.02429215953 ev
CRYSTAL
PRIMVEC
9.11079023813292 0.00000000000000 0.00000000000000

0.00000000000000 9.11079023813292 0.00000000000000

0.00000000000000 0.00000000000000 13.33456244629526

PRIMCOORD
 96 1
Ni 6.448079639649332 1.9305490728992307 11.495472799154177 0.4411740487831499 -0.18110182181275908 -0.6570140454080426
Ni 4.442967861225212 0.25710740544756927 6.3381042043951314 0.41708306927221717 1.0275946002433463 -1.007249460928091
Ni 2.615206721333288 1.5216750383750437 4.848473636678952 -0.15763150660496078 0.6565605028103918 1.0430708415020746
Ni 3.7274337454128754 4.429866545176241 5.172196405516835 -0.07328518184739637 -0.6160797690875262 -0.13930494038163105
Ni 4.880121787971937 4.854511357225304 2.666952364331719 1.2083125563541255 0.33304064890831675 -0.18796846702560532
Ni 7.119881963364961 6.212529274468435 2.5431276171678916 0.016295908946546128 0.947017255609911 -0.5981555805089376
Ni 5.261845668236086 4.818295966895216 11.491819372356096 -0.48683041316968423 -0.8483784254890743 0.027581766273010563
Ni 5.835342567634321 7.704639799228099 12.489524676961429 -0.5120467645343117 0.740480538663815 -0.1757960933291295
Ni 1.934138724167169 6.397150323436707 0.5263686047820155 0.44253441946578626 0.9069928926981734 -0.891979964229109
Ni 2.911589831478712 1.7770869257998636 0.40345220338319726 -0.529962468472468 -0.9493268775796941 -0.3295624605517292
Ni 0.5656716418499306 0.09295192410155459 4.712434053335112 -0.834803257907801 -0.18328623105858757 -0.053809589621287984
Ni 8.56853401972852 2.541992412731381 1.6496716162890963 -0.056018167236832554 1.0884664960280543 -1.103181433640726
Ni 6.6142695604068455 0.7802562570364646 4.9262005195778364 -0.00738215139668406 -0.019440882333431036 -0.2347710292014408
Ni 0.5484076058407528 7.667422221995795 2.545127435577314 0.7503204075723724 -1.0483189772748915 -0.7454463673095226
Ni 7.849993343209535 4.25519447890997 3.612533017073783 0.754026652779366 -0.820271125729897 0.8495349076910207
Ni 7.4047308133448775 3.8039006060519744 12.605854888254681 1.9439838465547552 0.35614175370215434 0.8675668254920671
Ni 7.946339947672596 8.87263396902101 6.907076685469361 -0.46998917324262934 1.1055599611752314 0.2132673508017101
Ni 7.071248566237413 0.7321020874639761 0.3680431179698933 -0.40578075688552045 -0.7968229220092856 -0.251640808373586
Ni 1.5598401377694422 6.669900044269867 9.265720826598285 1.8966351820674627 -0.38234515157039956 -0.7970327240272467
Ni 0.171702859798705 5.121849268786495 1.4145303255801032 -0.7567350528494644 -0.9162347230114155 0.18956666475066064
Ni 5.987328766750424 2.258646843104789 7.051556504687865 1.0634005541983622 -0.9334168912176569 -0.967509976246624
Ni 3.5897423758383837 4.116892686404127 0.5215799735474259 0.28156536384716024 1.4211338207573525 0.16863042881862572
Ni 5.974992757063145 5.688995947540689 4.91860029854303 -0.060824587486540405 -0.14514160166806617 -0.10976347927908839
Ni 5.285223955427784 3.393404850904201 9.276374984447846 0.34903059657866986 -1.4877469899012121 1.006743210715634
P 0.25623641392164315 5.519498810005862 12.506886198423823 -0.6460724587948744 1.2457843280473382 -0.2704641117276761
P 3.8917012894761376 6.069489871152116 12.75628223119834 0.7606369590070319 0.5716930154420348 0.33374770227767037
P 2.3392044484629344 8.604958958229071 1.29427518594617 0.14386196362469417 -0.6995220939735823 -0.2352924489225496
P 6.378910521816371 7.767458696417017 5.702312278234137 -0.8325136905426759 0.8964297724703464 0.6433925979698661
P 4.887082431547332 0.9585917719698371 12.771510005638014 -0.10839076730127783 0.02429769620510009 0.03475977207868853
P 4.321174820235878 6.143934136406743 8.264495112729167 -0.7874054853501278 -0.09695809998430399 0.6391587623941767
P 4.51930717080403 1.0806945798198562 4.051973752115566 1.8458651506034467 -0.8910427971268202 0.002376727762292681
P 0.48857249238343287 5.7189886682870155 3.5041893243121907 -0.8074181810266288 -0.09233602783126034 0.7689382797838757
Ni 1.0991348188206351 0.9269864413899449 2.24331338350088 0.4085804311178447 1.1310113113688005 0.7173889469516742
Ni 1.8570978837568002 6.700238975036959 5.0163818524342645 0.21540907973506127 -0.25499018446179317 -1.301420943575036
Ni 6.251204578103961 5.586873102204853 9.257092908449206 -0.6812346085183042 0.37922691765639205 -0.5873908857932658
Ni 8.702845286205537 2.115835209538974 10.209847397253133 0.31598600741887517 1.1774071250245206 0.29202049774221317
Ni 2.2574624404021697 5.405595713173975 7.0959342517970025 -0.20156497476311738 0.19709922568227992 0.15765001854772204
Ni 0.3703508810819967 8.84369809991702 9.238971547099132 0.6355769585801894 0.7239735421477274 -0.6997730336421238
Ni 1.3943881910035605 0.9747087595154783 11.297734034714894 0.8671024842611388 0.6694828672990147 0.7511912402130999
Ni 4.015507815059925 6.981270403998433 1.7187450708268457 0.5130116995507422 0.5165006865406073 -0.26823059441146707
Ni 5.849464292165549 7.886290730649803 7.9416387800222 0.19751137351903403 -0.15762405040579305 0.572833299694065
Ni 5.72545732920132 3.1025702118810474 4.32641170233946 0.8439180757248756 0.5751331514718353 1.7305568302467293
Ni 0.6121102496616252 7.495237401405024 6.849111106124177 0.750909704416939 -0.36131404193171324 1.00270889274526
Ni 5.234604406075844 4.457508682097369 7.202783774995291 0.08063416601329984 1.1173574680307918 -1.158778711290056
Ni 8.257209213950055 6.816656649914406 9.170725352295213 -0.5141463273758178 1.607992599658547 0.45547606722811884
Ni 4.75684368820932 0.33763858951465653 10.671062920443068 -0.31178739595649524 -0.8475315041077468 -0.8490101455358023
Ni 8.207309417009707 7.108384146359534 4.643307756215246 0.19179838229465676 0.6275252919203064 -0.35196551083727773
Ni 7.503036237662271 6.3501568685127845 6.889901935202381 -1.4934751506342407 -0.5929735220873659 1.1960324534351916
Ni 2.445390706147755 4.97094725368279 2.867424365777044 -0.5849547655479475 -0.08572057939727172 -0.5666325701999918
Ni 2.3836833253412952 5.3537826503293955 11.296387459949916 -0.263161664528992 -0.1818800947396803 0.42480949138219737
Ni 1.0313596518607564 3.0407626123843654 3.932829217785088 0.40951271312412696 0.9982310594795647 -0.8677660859870668
Ni 3.987783681028615 2.7566972903461813 2.94180485550153 -2.178104643766707 -0.06047260346376036 -1.8010191979333499
Ni 1.1820247864239384 3.2240261536396355 8.223384494921255 -0.44456816206636335 0.22558576315774698 -0.0978189053227025
Ni 3.5483611675668727 2.4928305897826646 7.192702685837998 -0.33005868346185735 0.9569396569299454 -0.704865874783999
Ni 3.987975007619038 7.01121757079466 6.2799117663784445 0.7135140373773001 -0.7374870032531299 -1.248482957925424
Ni 0.8030058997167734 7.4459480273960255 11.337644761477154 -0.31899034146283767 -0.7384771350805411 1.4499833979991932
P 0.2168395357165206 5.459814024583874 8.03255353147525 0.7150039916592653 -1.0143606180515756 -1.0607348344407408
P 8.741721027221509 1.4784170073593825 8.081091265307586 -0.2526715636309455 -0.30361180212423844 -0.257427333148376
P 1.9518318783862958 3.224354142080361 10.678730561324025 -0.7934154389896336 -0.24210792918248625 -0.9544132909636658
P 3.777579533683768 6.267203125379341 4.020544259783062 1.082681256804845 0.9817921971972511 -0.39053385802877905
P 7.149765354631045 3.8018688998774817 10.410946221051844 -0.457716012302231 0.4269244808426712 -0.3392223522389964
P 6.584285950450539 7.753628517166432 10.352313731877185 -1.3510725451638925 0.30908285254113865 -0.8121677798964722
P 2.281924911606266 8.682200236019883 5.935186804386118 1.0891077291564792 -1.1223194400217575 -0.19005466013067268
P 6.804767068938113 4.076796099525458 1.703023491568079 0.0385169251282756 -0.1901384780937306 -0.1479729004692742
Ni 5.584094311248708 2.7862253608014798 0.30797476828805775 -0.765089852572063 0.5554480143380821 0.6229361298877272
Ni 1.646319756640684 0.8683648851633087 7.422884062460022 -0.1624836924909395 0.382757813627786 -0.18666106106809144
Ni 6.896193846790295 0.7974045860123866 9.215769098154823 -0.7248369185892871 -0.26173521649511056 -0.5260574769911068
Ni 2.934877010770209 1.7221853051384537 9.334379740190117 -0.9994839580500593 -0.7069831782373179 1.3898733200811741
Ni 6.317257805750033 1.7354506154077887 2.406821998755464 0.32500672286024673 0.8163147121853103 1.2377989958490165
Ni 4.2522699153135015 6.867841068247595 10.610817821434843 -0.26178586722738784 0.5147312533450102 -0.9730728150463822
Ni 7.990727716650755 7.270647316618365 0.23501191749070713 -0.03773582398787695 -1.1077469415242212 0.07173454953082485
Ni 7.72569483496466 3.4242813182824814 8.206742725870454 0.18707937955243265 0.9653055123961376 -0.19431626362050405
Ni 3.3707007621739935 8.471768318924532 12.556850681973316 -0.8547681310655021 -0.422063553205944 0.4402489658657192
Ni 0.16224677083679373 4.6818436647634645 10.138454335576254 0.10881551354352227 -0.5547144786061673 0.6282549709974793
Ni 0.014500733396067032 2.354720123867246 6.036076048753224 -0.8814993764127593 0.042990644628913055 -0.16235899398761713
Ni 3.851176495466521 2.7827268174337427 11.53447609123043 0.4195955512814258 -0.2876128555928208 0.39921467363222857
Ni 1.378808740069108 3.6833101893453 12.842143227427211 -1.0215365669747245 -0.7444924880366856 -0.25361490138082127
Ni 3.4846949669060807 8.304585322054823 8.244426775551789 -1.054638748845332 0.24359865479539983 1.542014235885209
Ni 5.473461988034056 7.80467627364932 3.7009814776683787 -0.6696566738727177 0.5660216760888703 -0.2738024320722897
Ni 2.870336174267483 8.573262519748978 3.561154538913164 0.5273224597464595 -0.459751297564705 -0.09441245074431483
Ni 3.144206522273122 4.305577147721386 9.049207457164485 0.32359210190090726 0.7798628971161794 0.7169413178912943
Ni 7.380286563720822 5.938066725111486 11.2903205848755 1.401992214831895 0.22598299859616564 1.6598818323286704
Ni 0.3548634491267477 8.957947406769673 13.400435129360822 1.6307612608136302 -0.06421844365943778 0.5233251656616085
Ni 4.413658449730398 0.49437151023125686 1.7275460939863083 0.18364592839085148 -1.192088124075463 -0.14447388617708024
Ni 6.011909678224782 5.647022537917868 0.3657672426228604 -0.7217379679489894 -0.2627371753970636 0.27479359234096545
Ni 8.142422370486214 8.989379632339183 11.113503838638486 -0.5792281474768154 0.15251321154178896 1.8290341950890372
Ni -0.06651150038408403 5.19365140493528 5.802335086470328 1.8863654247103385 -2.120140151436781 -0.9208297985812658
Ni 7.745738573008985 8.894299427688921 2.8896000286860835 -0.237228746713314 -0.13891490403206397 -0.2526409675033262
P 8.479430493331478 1.7016586952230608 3.6455095215517073 -1.062682702195731 -0.3475216161333112 0.9582388353573433
P 1.8345669000369753 3.2412182144076547 1.6384043022711796 -0.24418049544079878 -0.6375533655802698 0.765115820713992
P 4.820582775190273 1.2678666499937699 8.608500322309903 1.0365335546041892 -1.0326738145384666 -1.0214010698381248
P 8.725667815206009 1.6384571448532965 12.559091025239269 -0.5558887014199265 0.9638052737015272 -0.16420427472647203
P 6.227607631951779 8.0255218237377 1.4904569163710077 -0.04715865996367362 -0.5995185222947352 -0.0038386570197998407
P 1.9349860276390427 3.5336927956344346 6.040249701661454 -0.27210550398584105 -0.8393962765951221 -0.44068296807934426
P 7.19145632976324 4.059904694828104 5.902917297213756 -1.3426344416988685 -0.5577800049053683 0.2713513994286359
P 2.431651634797373 8.483001923019375 10.249411002915625 0.7921617690881906 0.18463066090162397 0.1542474206240763
