# total energy = -340867.05366219475 ev
CRYSTAL
PRIMVEC
9.28472365336664 0.00000000000000 0.00000000000000

0.00000000000000 9.28472365336664 0.00000000000000

0.00000000000000 0.00000000000000 13.58913158094688

PRIMCOORD
 96 1
Ni 8.490972661037516 8.166378720862044 7.356068387970049 0.45899230791149337 0.4367152416808479 0.5226908745117193
Ni 7.325024914315109 4.218504923477856 13.301272873853712 -0.5650680539263494 0.0791059022942315 0.37027433644879454
Ni 5.056414097536086 7.842397572450059 12.697644204173448 0.6786629911363861 -0.22666845469896443 -0.7707365093348791
Ni 7.532547773493083 9.340060642417576 2.2282919041585427 -0.35055886029773825 -0.20826012739510583 1.9668723211171546
Ni 2.329500034732992 6.5130201193498305 7.148154641924757 -1.362924302296156 0.5611718041957368 -1.0674811520256389
Ni 0.7818350138094955 4.082595138114911 12.17928643685507 -1.3379612045929152 0.9552964648995677 0.24480758750183645
Ni 4.419027100994151 4.178348493521937 9.977330651441026 -0.4868887772114453 -1.6012030875405392 1.0563397906968388
Ni 6.331624472633348 6.374436333564387 0.6958278328590534 -1.1276524221988966 1.481198904370049 -1.2819772330281276
Ni 1.187906118247435 5.37617069666947 1.1447200829517206 0.9702536004300321 -0.03358374949271636 -0.39681172061769077
Ni 5.0423291716995235 8.530237757519268 10.12282969943021 1.339504894930951 -0.24107228882912027 0.28069504542706497
Ni 6.396144017549806 7.324105726669875 8.287223113566844 -1.0976360783424646 0.28255498145393915 -0.8388375758781748
Ni 6.1715186973362695 2.5302728997888964 11.70278327545537 1.2745655139450887 0.3723813554894684 0.29659577581772145
Ni 5.986167758328176 8.326716614251351 4.169784264390992 1.696125902262369 -0.6798798942626227 1.1261861220660152
Ni 1.4713965866506875 7.209810778055457 12.296221032414335 0.08006595221465565 -0.046707945579500205 -0.18424370987585045
Ni 2.4998468602592907 4.593542767456914 3.1261794647768277 -1.139386165696057 0.49258197094148076 -0.09116103368655268
Ni 8.68161589254847 6.049517428059791 13.401778150844885 -0.07928819350836668 0.8922116206239408 -1.1058818632910246
Ni 1.2009697244781812 7.634057657587432 9.587839278094945 0.2913054739530596 -0.15659072404527224 0.42094280933793954
Ni 1.6240095899305573 7.772854992017727 4.658476411049911 -1.358125595355932 -0.6367365261059292 2.122178264912732
Ni 2.8258706478829043 4.520991936549272 5.668529933140674 -0.334188903580147 0.5242271086505875 -0.6424975969594225
Ni 7.655068987296159 1.4656214885159866 8.074566730661093 0.3252257808495883 -0.1758374880900262 -0.11871734603826652
Ni 4.346197728375833 3.281109935089529 3.7590661557465923 0.7891093554151118 -0.4188532737987625 0.926622751113959
Ni 4.733166442295551 7.687630513274288 2.111601496832303 1.5743466294693276 1.9130370204642537 1.4300748320007242
Ni 6.960404530315367 0.7303521494250852 -0.03753628093081811 -1.9416829663357205 0.1841076985186184 0.8211491574594761
Ni 2.8717743218024565 0.22431799585942228 1.8138097685305299 0.4317224164519468 0.19338629560706697 0.14317727885284376
P 5.230335541682738 8.149963329379483 6.579599015980559 0.5618102091106841 1.4080384210259749 -1.2985611055287378
P 7.33742002044023 7.7111580031027955 12.871217471181755 0.40114582921667047 0.906238273920336 -0.35113170208207267
P 0.16735900144310442 6.675279950542809 6.082128163073473 1.3055933297851707 -0.10068182869279434 0.3752476212936699
P 1.408464729485088 8.131254611145685 0.8255818464160394 1.9012672815228353 0.1058201783606242 -1.9481081531357738
P 1.4130513829875675 2.2046297858365405 10.602431173125003 1.739181852911579 -1.1272181628749554 -0.8760347537537622
P 7.0952187182829825 7.2131718480309575 2.6943581076591787 -1.1983353905367555 -1.1158356320696268 -0.30321250980329073
P 8.262252777677029 2.43295042607839 12.947371703353184 1.2959437225105488 -1.231895228770072 -0.44628308787494103
P 3.299326562967798 5.255766399867538 8.616310860007903 0.2789922038033454 0.8806228873450769 -1.6510158972976083
Ni 9.194485459694144 7.245742658732776 1.8957381703642935 -2.5584273655904393 -2.577286150168155 0.2908393329499185
Ni 0.7897632393677286 -0.3280664268352446 2.8637058969165157 -0.5378156459682997 1.5340330174519452 1.6346572534339265
Ni 5.557324940570031 4.399844861852203 5.4722480889332505 -1.1918508112536763 1.1465970816221995 -0.054266988873680734
Ni 2.7449449962075776 2.9842030409553395 12.012561582039941 2.54339283985482 -0.5197667588863888 -0.31453256280180025
Ni 3.788557223600693 8.389128526890355 4.477292456033544 -0.25856067542187083 -0.005128322365500845 0.2009078007950927
Ni 8.432970992150898 7.516819451563528 4.391762509880728 0.5176959924002891 1.8761170075094526 0.21314933716660708
Ni 5.078864559416643 1.0797205178205298 7.616165066565918 -0.12357261724803878 -0.36768497845506354 0.6443336217268968
Ni 2.8157688685090227 1.1899394727353763 6.145209504290468 0.6325065471849816 -0.3235810461573137 0.39035773746223096
Ni 0.13661356741858896 4.640653455456065 5.025029874521751 0.5875017003395173 1.8915253716447231 -0.7084607912241089
Ni 3.8622779296931777 3.485810238265978 7.415249216765199 2.0405951047226014 0.5784848415528875 -0.5792314899109251
Ni 7.682440352732009 5.621008860354459 6.691166112775082 -1.1390817470817607 -0.45060536939937884 0.9331646659975348
Ni 5.213641608489502 5.566878921246249 2.8459042961871552 -0.7655819617171331 -0.8208442246245475 1.1031030149943066
Ni 4.641145545811595 0.7395663092142769 11.87941493044691 -2.499555530954895 -1.395399649216042 0.3480936865866973
Ni 5.212536726370484 0.8358516792886964 2.890557317825768 -0.2981937164324606 1.3679374392400312 -1.9483230973600576
Ni 2.838980677732097 9.522226921200264 9.705534292524359 0.47060958043544754 -0.25140426688274764 0.8258157096972101
Ni 6.085180051750123 3.290273957370799 8.653260346401561 -0.3519734812570777 -1.803374585539404 -0.24038040496841825
Ni 2.6667676227442634 2.233458852891599 8.70650266592508 -1.485607574960706 0.2832473795352735 0.01698445037313849
Ni -0.2552027007392762 9.006516228605687 11.703829663815148 0.9046339055476936 -0.29786821477224185 -0.33269509264343994
Ni 4.639669274745008 6.031328654352589 6.724323718014059 -0.05873273795451821 0.5944609052661697 0.16587857710510143
Ni 2.176924170347879 0.4314360410845464 12.080507189997723 -0.018303169184562026 -0.39406269711764386 -0.45416814704997266
Ni 3.595193568048794 6.832089648930211 0.5093543707569316 -2.2354510428966594 -2.029004057450893 -1.3699485561327889
Ni 7.43747220291537 5.069561266280035 1.9845159128636018 2.0880777236845973 -2.228685699148368 1.535649984230078
Ni 1.3399527533822617 2.6996726834988936 5.098057940227019 -0.22436680314898133 -0.25207069682215294 -0.3153920825886181
Ni 5.084602518656587 4.152936204784515 0.5529665748699816 -0.3199218521381716 1.3343989411629533 1.531705397760033
P 5.095029263359592 1.579238652301091 10.118386030672545 -0.39695441684314214 0.6613047023635965 -3.450253834960819
P 2.833539829650208 1.6102032058046725 3.868377064684632 1.0223364371682007 -0.32435391976759625 0.03896866795371353
P 0.5618808380840111 3.4439454191512406 7.376764965545711 3.3042128614069357 0.24837267914527544 -0.08600391496564544
P 0.16630147141490115 4.343922971071971 2.7571265536878475 0.3355428465048802 -0.5808793099269931 0.1377658780292853
P 0.23827479250907246 5.82831817088758 10.85671097232957 0.964348804909823 -0.32046178380204166 0.573524926444451
P 2.8661384945230943 4.289560913871531 0.22924911261077222 -0.31475830565936114 0.18310342562382012 0.05959534306512962
P 6.218462260309016 2.7408782872316952 6.480806770510047 -1.1297998075592024 -2.0885392367020486 1.384760938555273
P 3.1502788935845927 7.556975881519447 10.686751319781113 0.36195270395697665 -0.03491069583425601 1.115380546810079
Ni 1.6218833882057235 4.4300944916317135 9.606931455417108 -0.8383698922131368 -0.772855612560411 0.9525428134138305
Ni 0.5433271747358233 0.5359393200963032 5.847443773215025 -1.0796630388038118 -0.7230865115570837 -0.12254623286605348
Ni 5.741320309919497 6.033779821406546 10.614470674332829 -0.9681028726356165 2.195220477511387 -0.1333178695602607
Ni 3.296216180531906 5.531420561477081 11.747246888730723 0.4542041424942307 0.065254598233436 0.4383581766009096
Ni 7.552825610030361 4.586179981571355 10.940514888348558 0.9866258711404685 -0.006909582635639714 -0.11805554408455152
Ni 4.532867098147797 2.027272993924874 13.57313701125331 0.01632496241226866 0.37841881993279985 0.7962359391575642
Ni 9.055530284961131 0.283352126020283 0.5388797920886822 1.6698919082665047 -1.1013639208160129 -0.5224458483804487
Ni 1.1480003758311255 1.8481428197885639 2.455107490690368 0.097300056704755 1.6647075358520877 1.212134758313693
Ni 8.305575298410975 2.976552428635414 6.128562923188048 -0.62845217460995 -1.308118667310186 -0.04927467786541191
Ni 7.168902285480709 0.394095667823571 5.89442168966542 0.14706350128112736 0.18945045088777052 -0.3951962965014549
Ni 6.792731705211566 0.04790453187458099 11.460679462896861 0.10987660781818498 -0.25662360630015807 -1.5271422038693827
Ni 3.929740732019121 7.790273133658722 8.364926037649639 -0.9143243933625802 -0.657736525396364 -1.1226423705788149
Ni 7.287431068097417 5.488228026874784 4.399970205622007 -0.3669694404452777 -0.2793650137617318 -1.2416710772099133
Ni 8.437409090074349 3.704521189489474 8.826494720995212 -0.3321371632574409 0.21893303372791972 0.4012941818690766
Ni 0.4962257714603606 0.6691992453183423 9.18133364858835 -0.5282349442583999 0.037502110710516054 -0.43133366565396036
Ni 2.463255764200036 7.190554261123993 2.6359655519052434 -0.17548010475060744 -0.848563544916687 -0.5513938988733665
Ni 1.3933770534900898 1.883499047597151 0.04869001949868983 -0.28065287933521993 1.1810526921969078 0.6412207871295279
Ni 8.394448673564282 2.319834637372504 1.508407352220695 -1.4306708137135102 1.6997372737627114 0.9863155389889013
Ni 6.8133345070779665 2.89402980448554 4.301069328884331 0.668779413474087 -0.7207560636516942 0.36634491948740133
Ni 0.2513402556845566 5.894880355015669 8.257884315181245 0.10019871840878873 -0.5390297208810588 -0.6995894568764081
Ni 8.04129492332074 6.941621534292055 9.794788341348927 0.1714730404737434 0.40228174259332655 1.2007162320641063
Ni 4.970001174160424 1.114203981602329 5.115438014500888 0.04855708297309702 0.6224190810419926 1.287054904661351
Ni 8.710751355485273 2.332406153247721 10.822112377974026 -2.098549569750199 -0.71606097216887 0.18583213740889287
Ni 3.3839103957766814 2.713516206519535 1.7845926000252617 -1.1352582595706127 -0.09625027528400197 -0.43051528351772306
P 4.732442233847791 0.05976298097046525 0.6867891543475881 0.6474827088788397 -0.42475446977454595 -0.17196283562596837
P 2.1311411978362873 -0.2883036691637492 7.654173939932518 -0.907232005292173 0.2992334705508847 -0.044959852540141926
P 6.172382176639368 2.971696518145947 2.378968114076839 -0.9652728593859893 0.5515188544870051 -2.565812088090284
P 6.7998995118996515 5.2391838833585735 8.841061523991243 0.43430354691556167 0.9835785996737125 -0.12053383042171499
P 3.435422042804528 6.165910724227976 4.384506498317594 0.5462252101882336 -0.11406544908855194 0.11409887342964865
P 5.453893118672012 4.4816247081069385 12.044971767021934 -0.37942643526170783 1.0398250808712672 -0.08790910240815827
P 8.498084759383465 1.5125743362124215 4.082745550638676 1.3166662997698808 -0.9977320083559591 0.23595656486910974
P 7.551841429319303 9.096011680246173 9.442408008588696 0.7348081708693861 -0.26720446713979784 -0.5039459898040483
