# total energy = -340888.3263988149 ev
CRYSTAL
PRIMVEC
9.08421215196061 0.00000000000000 0.00000000000000
0.00000000000000 9.08421215196061 0.00000000000000
0.00000000000000 0.00000000000000 13.29566273063417
PRIMCOORD
 96 1
Ni 6.794545520561219 2.07275375789587 11.63839820746034 0.6088151171053128 1.3147410577227099 -1.9615316256305313
Ni 4.791958216886033 0.6224574801093538 6.0746689499466076 -1.0539993154891203 -1.1159952975759426 -1.3261968649681353
Ni 2.7107198048935657 1.487194530473411 4.415409449763279 0.6028666128313618 -0.7350233722039857 1.6003733925503922
Ni 3.613681402910367 4.497993113496425 4.687386217777284 -0.03703828370022008 -0.34850557731313525 0.013391076594925326
Ni 3.7270705382783857 2.7415879575918933 2.62439072051371 -0.3409136238984903 -0.34403854268071715 -0.609529369563518
Ni 5.066401348483791 4.654414161557787 2.441136726766556 0.11798946673330647 -0.20430217118862232 -0.44534103567664596
Ni 4.925677818922345 4.987023503198922 10.976646059513469 0.3468960667341703 -0.9269724211438939 0.4742667175720606
Ni 6.001284867801925 8.029707670674886 12.386691101928877 -1.5016047217199107 -0.34085140320198715 -0.029412905944478377
Ni 2.169382521948876 6.765875747189847 0.10848547767921454 -0.07688832581762242 -0.30635748319017564 0.16782850174262065
Ni 2.688854106381242 1.8303143055082969 0.3570894763943585 0.2338444036221134 -0.6168606131176085 0.5291700544781596
Ni 7.97608356667894 -0.42692889897962766 6.8937342155825565 -0.2087013286975825 2.0126680392950305 -0.05308890940517954
Ni -0.4755448768476798 2.39413501338776 1.323141835831159 0.6558002276055996 0.3410046409503998 0.08206935579792962
Ni 7.019070906697732 0.6787041961370867 4.818786620465778 -0.3185036316344063 -0.1827110752814079 -0.5502577283863943
Ni 1.352239475592199 7.226009258218601 2.25029105697173 -0.6459261630249973 1.6096771864498214 0.2691986147516912
Ni 8.042461904456067 3.813979195389894 3.7350710038703276 -1.411459273782066 1.4693443190243083 -1.0482310455467754
Ni 8.01391022584193 4.048778825405691 12.995286982802686 -0.8294761892679327 -0.00946191674384822 -1.064460105811128
Ni 8.344993419851129 7.6431017723419155 9.010909770622282 -0.6083232650705588 -2.630942244930714 0.4124358003081929
Ni 6.985840858854742 0.8118760201840781 0.3430280244927277 0.8646051717605818 -0.24132837070398436 0.20155134791636253
Ni 2.014033410914707 6.763532020469373 9.011839993940795 0.30923917561334485 0.16924106581943113 -0.49779925347636206
Ni 0.5332750447105031 5.317098349665591 1.1745840817591064 -0.9898001551033921 -0.3460164923426944 0.44580614823852255
Ni 6.415252412964609 2.0603628925984836 6.845484331461926 0.4362457582435971 0.13443218567036203 0.5370898235458685
Ni 3.5706131533686447 4.347603982266048 0.3999969353820018 -0.4652835402368438 0.6911739791192032 0.4386965337769348
Ni 6.160231326825657 5.378007991761614 4.503626233416446 -0.18230766919540214 0.9891751199248835 0.04564787974610203
Ni 5.344387322798545 3.0846804799904946 9.549875165789006 -0.2583740133323615 -1.1724094146996134 -0.8352339176873165
P 0.3497648761822745 6.113983603050735 12.184769960748 0.001725981552171221 -1.3468574786412806 0.41300170011399195
P 4.21336658014033 6.293042507652483 12.539432135670612 -0.49668442314562844 0.07749407772242137 -1.073441740484448
P 2.6821317894310472 8.719789842460782 1.2235052891535456 -0.15508045804833293 0.559180999017953 -0.2991717640750138
P 6.232895939372426 7.945987572008675 5.941658824874905 -0.6140668524225553 -0.06571354014772554 -1.2860902267552368
P 4.959825372186916 1.1699829283330607 12.38159940104971 -0.6208825897928082 -0.31619992320189416 1.385652082910975
P 4.3030731745770545 6.319541154333184 8.15098553582608 -1.0338740054941549 0.262701951283754 -0.07169778275561846
P 4.976976364622009 0.885954136132808 3.6933626608792056 -2.162966245463372 0.06025560235694784 1.874723726706352
P 0.22693996971132635 5.873969635292488 3.542935375958031 -0.24586122557733142 -0.9952020428452537 -1.006867394998324
Ni 0.44058519502182786 9.015426440875846 4.717035269212481 0.20967217725128404 0.41294873538886945 -0.24414784243065052
Ni 1.9189398787057328 6.71479522258046 4.643071614336146 0.22453803861952298 -0.420077890234483 -0.05744384393976558
Ni 6.279352600025532 5.614388274681917 9.03819238480677 -0.8250837166271919 1.8889990056784434 0.1683036416068263
Ni 8.927146067738015 2.4529552867019664 9.819351958634503 -0.12809107394368263 0.35035342915515144 0.34713260822500863
Ni 2.7275165130569583 5.2444973266034856 6.714961463661796 0.009090649447358537 1.3063898575445372 0.7708748346849563
Ni 0.6495820290033906 9.329213295056434 9.051155555466133 0.7717130143155355 0.6219624531205482 -0.32423462058091257
Ni 1.640863062270031 1.2447823307221226 11.31653639714863 0.4048137649865608 1.2159729011128608 -0.25734865739164065
Ni 4.476681551921888 6.932834481281245 1.2516763392809103 0.27670340776916863 0.8772943371924761 1.1993368352180764
Ni 5.720073998193497 8.101999830525768 8.104915862608218 -1.1532310419989493 -0.3080356422235469 0.04086459942484575
Ni 5.39849289003552 3.003531213347127 4.47968115875561 -0.07161884988856698 -0.525260177900792 1.2542725680240074
Ni 0.7949884698997369 7.474943922253996 6.784829955725768 1.007681149148871 -0.8191043591153054 0.32800102960188027
Ni 5.319124128962745 4.8551389120057715 6.856507114417828 -0.8108423762168294 -0.13263781277410058 0.06169850545106148
Ni 1.0692935214736534 7.811904601488569 11.018009202444984 -0.27213070079682167 -1.0160336348786243 0.5241525466589103
Ni 5.083370656676987 0.4105246287787329 10.461745650607234 -0.46044729519046507 0.4765745397696309 -1.481962779119267
Ni 7.988855968884311 7.051456122815902 4.69188017750061 0.6748045366222443 1.0108294649698655 -0.8322722639558312
Ni 7.4049773206994 6.347702211827244 6.7568823772159385 0.15569675147609316 -2.327755446159036 1.670250577157504
Ni 2.5535447672283302 5.230652987370921 2.7203454360292776 -0.6830912021110688 -0.1905375133043622 -1.0452611642851741
Ni 2.4694976369267034 5.485038178663233 11.387682129433141 -0.1588239842511652 0.58780303363002 -0.6185243739732768
Ni 1.2645859130889132 3.2654563006781707 3.7260958023206077 -0.05717130700466928 0.5076092975882485 -0.17426063052120955
Ni 1.324905081398771 1.0918768727414707 2.330184885503588 0.38868394930423383 -0.2556640706003661 0.5866591498335638
Ni 1.2173570944077456 3.9017508526504123 7.899830690354701 -0.23772522673375834 -2.203166728941657 0.10459247660111018
Ni 3.7756529045616873 3.0010784760815152 6.774325881280484 -0.5514162674708696 -0.06744209280305803 -0.2564423435272874
Ni 4.209305937333929 6.954155127067876 5.481682470715392 0.7009521415518897 0.8216538650100366 1.8959625814804701
Ni 0.8117052369966948 9.132449261081808 13.281834827016844 -0.1465179131903025 -0.45519633120417086 0.7410356398363367
P 0.2740897557472684 5.665305283473597 7.994309221404854 -1.1200329579804258 2.6506134981073965 -0.9240141098465183
P 8.542520527641722 1.5682529549958302 7.606129937537053 -0.8236117600673557 0.6580016061322926 1.3848429567461182
P 2.072208705170179 3.47839931639374 10.573269797232177 -1.55532123740676 -0.18039733954656675 -0.3385150417593267
P 4.2007122726921935 6.350654580758072 3.4845938406212236 -0.21602563027313762 -0.8884961194455665 -0.21821003951896611
P 7.226036510854884 3.989577015183501 10.259797256790073 -0.7628149404949572 -0.759823204856485 1.4241245279545605
P 6.522991168409626 7.740856978694684 10.199914130660765 0.006086829624028227 0.4889497735055321 -0.10588188483649506
P 2.419271028254233 8.55800002505136 5.623120927768705 0.3024146964923437 0.7418529935313095 -0.28309491311780927
P 7.000557282448412 3.942075670139488 1.7338744930668641 -0.054563694178493126 -0.49284139525045445 -1.1115159216483503
Ni 5.412482576661601 2.7469113058794803 0.470541292825832 -0.01851374253347134 0.6853000368369294 0.5755710103402023
Ni 1.396861125402142 1.1690381702751955 6.825580822762093 0.10394610126636292 0.6841772360863958 -0.8712848977736027
Ni 7.100029404887108 0.7474262606346883 9.059771022216895 0.03879820381412028 0.6874139978561388 0.6206187946084603
Ni 2.3170463895507942 2.0537314177692374 8.983241077423763 1.4728325346832247 -0.6760993441742679 0.1392532612080892
Ni 6.409947233101211 1.8777702294918357 2.682413400005988 2.818583153413572 1.4312667954262963 -1.6319563095629959
Ni 4.269788621461494 7.21862379378548 10.36892862194923 -0.3711040314389415 -0.026053759664258356 -0.7211646119440225
Ni 8.081605774372811 7.3957205085747395 0.07079235643401978 1.212132701431164 -0.3030934677269232 -0.08724704334412717
Ni 7.418967007325481 3.9043489373095417 8.091022468630342 1.8743619724915588 -0.6927048139414328 -1.0890714766019052
Ni 3.1347526570573527 8.548116402292155 12.242765387603992 1.6981197927639466 0.8724915164871943 -0.03668604256712392
Ni 0.10539048661849638 5.057489736418735 10.066904005589063 0.7862618586639878 -0.08175182455751082 0.6661332341004915
Ni 8.6978514702517 2.544533228830231 5.618866791244683 0.20798964734253855 -0.4730773252496498 0.8800266485219749
Ni 3.709974051115863 2.939187739079247 11.786498117242811 0.9674955780689208 -0.19049868964662678 -0.5263629240466676
Ni 1.2612792598863847 3.8502706227088517 12.69052347649592 0.20842005001173783 -1.0017442148391458 -0.41137033515815596
Ni 3.068383403492319 8.851347402018519 7.695024403412496 0.4535891346180511 -1.136626857783365 1.0253276585860407
Ni 5.8680285605824505 7.736342125283539 3.5551536412256155 0.07182042437641178 0.698725566214216 -0.06402766780487038
Ni 3.2600421102696355 8.414923684557346 3.3973345329228546 0.7162936570049665 0.2202018731380143 -0.2503657983159043
Ni 3.2189360505404028 4.651089339931069 9.190427427934821 0.7508089171730166 -0.4825017038873432 -0.9473759245009105
Ni 7.206868823334735 5.932399287486615 11.308505953656777 0.9529307928808685 0.3460779417082491 0.7483527423230402
Ni 8.390369059264945 8.576222954513646 2.5805148845167545 -0.795353793662927 0.3915345313791515 -0.34137642246752176
Ni 4.873961399466317 0.49085813317598215 1.5367389148175579 -1.6242645973456928 -0.8965750397989591 -0.9291162069597741
Ni 5.955809302055065 5.212602657938438 13.344723918928336 -0.5049410067274659 0.14717920092338524 -0.17018208957646175
Ni 8.170994421386215 -0.14907646258266904 11.373362685908017 -0.7343952517016836 0.2528721096775258 -0.40397635668693005
Ni 0.37566759854955284 5.010715128342311 5.631271282860211 -0.4880642855767852 -0.11801183533080965 0.2566110078946677
Ni 7.150583045194993 6.084959545407663 1.9141098031348964 0.9150792692507336 -0.22946247250433385 1.9760958965979518
P 8.559344488441399 1.7300427724052532 3.4766033676625865 0.41072473115435715 -2.133799136981112 0.2691070834791494
P 1.7630366307337777 3.481333516900379 1.6400863621359205 0.7844895972549134 -0.9607790852806939 -1.708820724121218
P 4.402381781198043 1.4473693446495532 8.064537448267782 1.5153195002028417 0.25345343610229254 1.54561969384828
P 8.885821986918504 1.71904179155838 12.28863611657698 -1.0802142833215913 1.1938369884457698 1.0814818371801054
P 6.530830843447489 8.065108845208549 1.4154692254572494 -0.21238443397612458 0.36133255387447444 -0.06797071161301843
P 1.7761814856350375 3.1775120433878494 5.8146188439919415 1.2381990595009127 0.350550375657306 0.3900551186201476
P 6.98366973216407 3.9538124721660446 5.857736148278977 0.5681598054777957 0.10972825516577876 -0.4761485079758058
P 2.601273217574715 8.871950395049657 9.969473105608083 1.098576844989179 -0.30404400456565056 -0.40127644125726375
