# total energy = -340866.4218489641 ev
CRYSTAL
PRIMVEC
9.28986824433331 0.00000000000000 0.00000000000000
0.00000000000000 9.28986824433331 0.00000000000000
0.00000000000000 0.00000000000000 13.59666120985285
PRIMCOORD
 96 1
Ni 0.007849938755791729 3.717712415006262 9.326358023941541 -0.8169544026518382 0.4278243669491213 -2.3658401688458994
Ni 7.027729667602257 6.182528155246414 6.383890696667909 0.0324159544368603 1.0601321678597355 0.9985527044850415
Ni 2.0170069262943717 8.300701747872823 5.232566655480734 1.0413811125044776 -0.7175054179248804 -0.1450035334283051
Ni 2.1409895092941307 8.322375010733488 10.097628905994021 1.2237080649735892 -0.15131610590989422 1.9322547310432852
Ni 3.213300433203631 4.577387542251482 13.549276704494362 -3.4922476628941013 -0.07061303433187194 -1.4350643147955158
Ni 6.867999671191508 6.5430772357801805 10.637823602707371 -0.6582129508121503 1.0186880417823359 0.21805860154276638
Ni 5.474593737630902 0.9848003640520349 0.7170895828744868 -0.16181983365469552 -1.5959127856758772 -0.9518709841577865
Ni 4.07848445238043 3.8598752703670676 1.8012450889302998 1.6640174517635986 -0.7246327729982811 1.5140192933341796
Ni 0.2531786401175658 4.937518578709496 2.4243667244572022 -0.2881167918124328 0.9612843070518864 1.1274469910563099
Ni 6.4171159108218605 3.2010099373765155 9.828523715577129 1.7311492124150896 0.07926299669738607 0.2512674841945673
Ni 0.29553951080695595 7.239863811375635 3.9958687241566055 -0.9699121579302136 -1.0630627112429691 -1.0422064366192503
Ni 4.21775815868437 3.265026420176706 10.584742223942024 -1.276885163217201 0.9021980424126913 0.7187937977190008
Ni 2.2698121137042655 2.674580967584267 8.51853987081313 -1.7121772992982771 -5.121749597379335 -1.988872993757962
Ni 6.498783143487145 2.2018195672502543 6.567703747789326 2.126978771625169 0.05187534871305259 1.2848861791448065
Ni 2.156020516284511 5.978504066542629 11.390969951608906 1.0501814844049269 1.486389704542369 0.7728147320201465
Ni 4.526794919217113 5.533454343496813 6.573469040087367 -1.6076179899279475 0.05399933703459088 -0.7437741218134223
Ni 2.7301901195276628 3.3642329242868834 3.6313287161796577 -1.8188407994958031 -0.6449563429125602 -0.21265439980805956
Ni 6.120527573878184 8.807659153603367 4.8224635591941345 -1.2492954265243905 0.033756270514838635 -0.15144363262669402
Ni 8.165645641799806 1.9031410099278163 1.8422663606036127 0.36984701910338885 -0.0776516863462082 -0.12701018217467802
Ni 8.03497435358801 4.68244666342219 11.372764596603314 0.7196232355988316 -0.9530205243811974 0.38648899853544405
Ni 6.067463845862703 4.361240175350883 7.770913561685198 0.4549348500126681 -1.4755031395368525 0.2083074356932735
Ni 0.7212384380796188 0.7780106815404406 9.211669954226005 -1.0673880780912004 1.4784038581234151 -1.0907023273371086
Ni 8.226020496206777 3.9639961148344214 7.040310007321893 0.6144543176689612 -0.8827093375604603 -0.3674618067006639
Ni 1.6064783540373395 8.246551105260385 12.754063044743301 -3.026332916831162 -0.8703443882372043 -0.713067693868501
P 3.461256309334799 7.737717146123131 12.137657984033485 2.6078375405924508 -1.2922984124484775 -2.4581980510540307
P 4.48487903322169 4.149561235126658 4.400219533960855 1.0179781601995048 -0.03771705493479956 0.742244058322141
P 5.625581967924254 6.283267487634349 8.354278276621228 0.32190005891046497 1.3790788005688315 0.46243115838971327
P 3.5777048091026677 2.268948155947711 -0.5228282168197692 -0.6630214279443872 1.109767828608992 1.1849504845894174
P 1.5950053666250286 8.688693099512635 1.4955647578324298 1.3287222024931504 2.019702834654625 0.16913642192076678
P 9.369761217859805 6.73874044296892 11.832562914641667 -0.2658584946348647 0.19137260761114783 -0.8235747361818332
P 2.868293302419497 4.282462091742464 9.218468279884572 0.9574577342169445 6.383038963040807 2.2269772010976934
P 0.31999323126479096 2.8724737431770193 12.68161972236278 -0.6468288773449247 -0.6315138442544092 -0.279433405105822
Ni 3.3533916479223755 0.8302420373517583 4.127769990937947 -0.5551595365633858 -1.9152108881871208 -0.5257988240130815
Ni 7.234113382866954 1.8790895407695387 12.648199420973478 0.5948707391100787 1.4309608341501032 1.264068213958191
Ni 1.1859724631723543 0.7437422151707785 3.486972522901406 -0.6583728734287823 -1.1677032674731953 -0.1679380307372914
Ni 5.694791487132122 6.041489373955964 4.572068163634244 -0.8243558373222319 1.5028517067531342 -2.1044595074767307
Ni 4.989207406209171 1.315705474680794 11.729281874273159 -1.1042525552177176 0.6209257843259176 -0.1705315024960805
Ni 0.5860699245995654 4.186014678532252 5.413823134832218 0.24727610364698702 1.014831387040407 -1.8463600879619944
Ni 2.930581869706578 0.11588832070636103 8.09772276935842 0.9323570824945748 -0.2530194338886675 1.1465698279286898
Ni 1.222416616709598 3.116862309861768 1.3511695471071075 0.8333984071404743 -0.3259246066888258 -1.2325919977267803
Ni 4.643401346746932 1.658510906665966 5.512752800865564 -0.002535364827344021 -0.07035078180942078 3.2433029132954405
Ni 8.142253753294382 5.730743277646813 8.410010983813681 -1.0467179513363585 0.08325000636959212 0.7112136713788977
Ni 7.522424447110737 6.643918756719967 2.231348342787721 0.46674058439834454 0.31362522049618247 1.4299493621664534
Ni 0.5861646812567359 0.8138352008587361 0.16275106159818511 0.22158281264594096 1.4124897719291094 0.28006975313824023
Ni 8.887793557990895 8.866649817626183 11.155665947183671 -0.2894429668230241 -0.6433488892161242 0.24057683724994053
Ni 1.5301342159366336 4.928869711275601 7.563088058852573 -0.8216556647822494 -1.763317312507202 0.45657855626367816
Ni 8.646544966808461 8.932459245017933 2.3595104375581673 -0.0644434151860503 -0.7221601430880724 0.09696838439694912
Ni 7.8949481679477165 8.963543144517196 13.37249329675343 -0.20136031495147905 0.1326090164186942 1.16736028231148
Ni 1.3765819819786675 1.2544852422539683 11.351593915620386 1.3817221517289495 0.6124822815442548 0.8721325904858787
Ni 1.4009771762658971 3.907829570790023 10.965122386442642 0.931817407941021 -1.2499199474822666 1.1246812553857146
Ni 3.198325165423351 3.2451553917759504 6.169444304662205 -0.9618234673848081 1.1236471576942455 0.16767474977357574
Ni 4.786437449732643 2.43428923284189 8.416891060313727 -0.8638677793739252 -1.3608491649346823 -1.1197421662128844
Ni 3.2044657684027342 1.2281670452182785 1.9109426413681878 -0.5802257355033943 0.7501214041876887 -0.10869312903304507
Ni 2.93290433679409 6.785115465772367 8.230657069500285 0.2787150388825587 -0.028013197383474332 0.39660654658542016
Ni 5.724286819143528 8.257197294389544 12.73512286115122 -1.4819558371407315 -1.0746342181306525 1.109014238272419
Ni 4.400452709656442 6.191948081753364 10.181614889799476 -0.5030167931215596 -0.7599270774242008 0.30418284413636004
P 4.476518151706646 7.659357106590464 3.826589672068841 -0.8681399243867177 0.5795503067029245 0.10899214833070262
P 0.719778999761826 8.093612002613522 8.529824273897937 -0.1461060224638645 -1.217021139871717 -0.9978749616917264
P 5.533380024550014 0.3940836473037748 7.266137417043244 -0.8551314279421918 -0.6407474470375352 0.15910037784100342
P 2.4698601387542287 1.1192247590772495 6.379866325698668 -0.3771178417331892 1.3017999241810094 -2.000412361856129
P 8.14372155249369 5.533370734681664 4.536294738591874 0.7113075166442847 0.555543916485998 -0.29908383234689784
P 8.233889014699269 8.645188646029355 4.710848577928797 0.5470016833429417 1.6003258271419085 0.46692827492911837
P 3.441227353172092 1.2145945475588564 10.10695593381747 -0.9933336221779473 -1.2178899156299154 -0.5815516534036694
P 2.2093908099555444 5.366376061221176 1.7832023066208338 0.9058574935421496 -1.422276419002228 -1.381299205258918
Ni 7.872280889173596 6.610428781318039 13.44437829804611 -1.0747563455308133 -0.7055166209941204 -1.2007928509383128
Ni 4.191755817172582 8.01785312621887 6.444015653616264 0.7068116856564601 0.31675142482998997 -0.48448351020406244
Ni 2.313381596265997 7.1152588071964225 2.9148522646162744 1.7240892202445146 1.2748786743101332 0.3156823601355273
Ni 6.673748523991975 0.6717745340497809 9.376910700542005 -0.049885057755901185 0.7410312689609625 -1.4887039544978427
Ni 4.773784649039876 6.014976089684923 12.940173480307685 2.7485617299191114 -0.4233858715617934 -1.9355426577659376
Ni 5.057850243447686 6.259875599128925 2.1070062418828153 -0.6947532118300292 0.12590923580101543 0.5126766848088268
Ni 3.5770545183181643 7.271003450085 0.6359704524418557 -2.3571943202454437 0.47872372490214976 1.959359043459245
Ni 6.61613276048497 4.123038660987267 5.176045238465364 -0.6002091206038567 -2.430250416801169 1.1281190774226701
Ni 7.978306156652709 1.8064520601405023 4.527008586189164 1.3392009905372873 -0.7060359838327003 -0.02972040988256817
Ni 5.2898368358851195 3.6931500030887316 13.160833865252737 1.7813057786648228 -1.149847213128381 -0.05015039560214588
Ni 5.788786375097922 1.7470433520419366 3.721039116862415 0.5086156273655756 0.9751700638950432 -2.57622916965855
Ni 0.3239711528922821 2.1492760718623747 6.403959599264521 0.331741470480919 0.46429083730627135 0.7612267700722309
Ni 3.394350677477743 0.15993808946179017 13.495502301550102 -0.030856580369540403 0.9621065458428655 -0.5452494765385254
Ni 9.435440587094655 6.715032698939595 6.290522874815738 0.14951761924857473 0.10926828481022473 0.8485972263680999
Ni 7.533628028340896 3.9223124755477494 3.082825161214022 -0.5119112673977119 -0.26808095620748024 -1.1299931545169313
Ni 7.994544846528597 3.88851593449027 0.40271114804046565 0.5900596908746806 -0.8618116681758449 0.055418328869304555
Ni 0.5210157635046745 6.975539187211679 1.0015815822395642 0.10070908238630397 -0.5066261077393727 1.035059541161824
Ni 8.401106645000157 2.0848879943281826 10.625831311654293 0.5212983650395667 -0.8574711318189621 0.7809304191487453
Ni 0.7622039705428316 6.206430986511091 9.50307361564352 0.008696756443049538 -0.12467099251854015 1.1599305655063121
Ni 7.928345244666144 7.941880582852167 9.106092458401365 0.12904135367209388 0.5551325399801924 -0.48327252061509673
Ni 0.6098157570891265 5.088237402820697 13.151425086587809 0.9254379867772384 -0.8259242102506164 0.3423081902531718
Ni 4.90060993175475 8.545573387711775 10.356930498341104 -0.8738837688490305 -0.07387113625785344 -0.15696199134176195
Ni 7.478409050868203 8.749281620891658 6.846258592291887 0.17107940457975052 -0.11152185673109181 -0.09088669697924348
Ni 0.5710621422800606 9.281646816559588 6.756099490967823 -0.5115104324148675 -1.5220642751258433 -0.08445996751729325
P 6.115315957733807 2.6357307381443604 1.5910543856157524 0.6512714864973107 2.4905846949148525 1.2306924667112222
P 9.801089805352598 2.69024368562245 3.31566827951333 -1.3812683520209825 1.4247331080728367 0.9514261833108839
P 6.561099580379277 5.208931372424538 1.0007891564693048 -1.6244435461257183 0.7193530126565806 -0.382168002562587
P 6.718971603120015 0.21499077829101781 11.451257481253386 2.693439077913355 -1.069635222254164 -0.7851015198072996
P 2.3606484464310484 6.19676952342704 6.169009538823422 0.6917702179423053 1.071676163943593 -1.129088640424791
P 8.14573745392565 2.0561915909948802 8.330851086616073 0.6351900075544158 0.4459555293321933 -0.29459545755824107
P 5.772538395353685 4.715648652905267 11.18370276986412 0.6597437856343799 0.6633513004799801 0.8895294458060874
P 6.5520791182113785 8.712252205648362 1.764411689909189 0.24838167800633998 -0.7111720195076849 -0.6356407219385891
