# total energy = -340886.36006720935 ev
CRYSTAL
PRIMVEC
9.11083794992396 0.00000000000000 0.00000000000000
0.00000000000000 9.11083794992396 0.00000000000000
0.00000000000000 0.00000000000000 13.33463227732748
PRIMCOORD
 96 1
Ni 5.305914963307757 3.05864486035926 9.676329117114333 -1.4136197717684944 1.3843472480566223 0.039723800952183204
Ni 4.577457939314117 0.5072941733859425 6.204164290925343 -0.28947767671570146 0.65386161582199 0.27293262787282674
Ni 3.2039080557886215 3.2358050983876048 3.410931797453341 0.8707508796470036 -0.515492299880751 -0.3987829854114487
Ni 5.2167380844277655 4.9343841149375915 3.350246330060222 -0.49478720612291555 -1.4193859848283101 -1.9222387415681796
Ni 4.951302940446393 4.637671465317169 12.518751934121374 0.5558763601247524 1.2758605786074284 -1.0261115879399167
Ni 5.909562622387522 5.72702699014798 5.305730013303541 0.4980288529886649 1.2039316536776103 1.3479450552785044
Ni 3.499062752171561 3.0168443372389695 7.744167356077492 0.14966777167319384 0.5417334929654671 -0.586657607171667
Ni 5.669091173556453 8.343951108911547 12.753481733067872 0.2001740079528617 0.2964314823257153 0.6191121281559467
Ni 2.351744078236285 5.484614932898292 12.289609811903228 -0.7884164431131454 -0.03197115358995784 -1.3742466692875106
Ni 8.152477744941185 7.24179485718797 9.951808959600529 0.21582277023371216 1.5489742121428098 -0.60150727058999
Ni 7.991689682162875 8.995221116367457 7.424283113071753 1.5041467714154741 -0.7686685710622568 0.8165661660744841
Ni 8.558538667990057 2.6570300260816837 1.6738831800264773 0.16045432076573657 -0.08144072107499523 1.128466947680392
Ni 1.4197053870406209 1.32550843661763 3.058110965273199 -0.8351668118948068 0.8182070441120167 0.20107209428709885
Ni 1.5546095600663707 6.780722696431969 0.8226867734321562 1.4458428934682583 0.28938768810505644 -0.07712409597751234
Ni 7.65294873848101 4.17225343500398 4.215410561849773 -1.3086884237707268 -0.38320621401911426 -0.19405375398773675
Ni 7.748111437694487 4.005725544508629 13.005052915403182 -0.7873553488384827 0.31743688093278877 0.23708939292197234
Ni 4.602202974360916 0.664985462448344 11.116002727023904 -0.35446899398542175 -0.7984712562459861 -0.8803436655417612
Ni 0.3779503445756055 0.07213141272790997 0.9157421358980912 0.5348239103298273 0.5197906701457887 -0.49704463469852456
Ni 3.2393765467448743 4.421881275669375 9.963423455431771 0.43242072807055204 0.6574413627534483 -0.21991596646647932
Ni -0.19365267633530864 5.214077719835105 1.7656120045311408 -0.28164789625863756 -1.4126540654211153 0.3230300587498501
Ni 6.634183983732155 1.6892495188003833 7.4232964093546805 -1.3583225418580867 2.0318127305442815 0.10275928004711335
Ni 3.080875304215735 4.733681472431733 1.0604923911679773 0.4277037822108569 -0.9629318699576384 0.49431618002376804
Ni 0.4500954235599846 0.3761828420722628 4.993873329347778 0.3206638725105187 -1.038656771594779 1.0226927920663547
Ni 7.064115301413798 0.9392453637737261 1.0576725869165104 -1.9611667860919453 0.6651148201383061 -1.6397331252949372
P 9.035618570490248 5.8486202293727825 13.045337395139162 0.2790981332535903 1.0407931012114915 -0.8824920793433318
P 4.108796450798918 6.5004642196003966 13.430108112776635 -0.38550940823099417 -0.6328801284743165 -1.6653271717139577
P 2.2315447971713347 8.704384957028768 2.078615742946548 -0.6605763088380043 -0.9578228308658473 -0.8443381939814296
P 6.295761919367903 8.04010467341423 6.220179321339652 -1.066151634580938 -1.9772770613902464 1.4289201495709907
P 4.590905535679756 1.3616511295596945 13.29112137340167 -0.39285093619772987 -1.4464743564046703 0.034376163487024665
P 4.006800623350869 6.439667599987996 9.041213535888717 -1.4111527982852408 -0.7686847690121729 -1.6226414599199732
P 4.449040682692388 1.373048787454961 4.128535080559185 -0.23152346879842065 1.2443162281422442 0.9096629833311688
P 0.08845985595724398 5.792515691148121 4.138429450242847 0.4881072229995788 0.5642640699678153 0.1630850735203643
Ni 2.407930613999761 1.7742627448761092 5.304716888157295 1.0964883378912667 0.30189430521249944 0.033883025900690034
Ni 2.0374566227965425 6.640889560239681 5.134500019499041 -1.1364121706693977 0.8038718584362671 1.3815887114748786
Ni 6.725255916842534 1.367837388321394 9.729520920543537 0.43970157800268145 -2.4921175866196115 1.2652905164010662
Ni 8.477379326238628 2.722363842841841 10.97214806709463 0.34419023776723306 0.2887145732974318 -1.0071566441039685
Ni 3.4746092639294384 4.5802914098220535 5.50924334922322 0.7725517081667469 0.48894848795395146 -0.5085109834669114
Ni 1.6162808200927974 6.601257416479162 9.642632684080246 1.0899603069647614 0.6570631534784233 0.85013731716171
Ni 1.5307118329206597 1.1502796961702575 11.84506015521842 -0.5251213383300827 0.11956683852275536 0.7001103623768846
Ni 3.981144504539461 6.835223727230917 2.1883594267288373 -0.5691378531203488 1.6257746062323162 -0.09602607508833785
Ni 5.35828405809752 8.061296481779051 8.33189109311941 0.9359154892697946 1.0085522388999146 0.9235158300538612
Ni 6.894671942871697 0.6248995989730489 5.394444972714877 0.4858731914627374 2.6626236351943953 -2.404174031429092
Ni 8.086169068552895 7.603959764457949 5.072454304045359 0.8716448522161828 -0.817449854231018 0.5451461181914418
Ni 5.3027443918069155 4.785895682981511 7.737593886715833 -2.1342179696860857 0.39990424350008547 -0.3394707208043766
Ni 0.8001237840015983 7.406701018582316 7.137615161956152 -0.3800972360764873 0.924067331681957 0.42361547107409625
Ni 5.913370952523589 2.3681800293498427 11.998874782862408 1.8102036926460954 0.9925962297912904 -0.28062459720044575
Ni 0.37175224172496607 7.405234173721294 2.6441509459851615 0.46151687410556 0.7845423048697199 1.4879719614278246
Ni 7.168798825967445 6.548788102475292 7.430603301146849 0.7759327088238379 -1.1162490654579613 0.39269049936046563
Ni 2.0952648876610245 5.50728269696178 3.1393185944641497 -0.35987345283044475 -0.9628279973899224 -0.7602255825012262
Ni 1.4200060446829421 1.4810577677494343 7.450405706770641 0.03737381266276789 -0.7740352346908088 1.4955682857178436
Ni 0.7855300442600811 3.6287737477390354 4.409176212571894 1.3092820914906675 -0.4501459132644571 -0.7329369219886023
Ni 0.8637001201798238 7.7715809554708315 12.006849499054036 0.823540283399472 -1.3115372060734316 -0.19807907309704595
Ni 2.419975141367901 5.549146995945593 7.64174423034384 1.3252111040160983 0.6698507921613948 -0.47386588258921625
Ni 5.937587558986914 2.4618941053775907 2.9658354905097695 1.2154370832140486 -0.8775884713941273 1.7288347053492998
Ni 4.169438186171336 7.168325062409849 6.4336134483721645 -0.30018683560308945 -0.5009277718030147 -0.008256069361205137
Ni 7.640986208651686 7.67115219209791 0.6222164572862735 2.78920032937608 0.5152408459915772 -0.37143904618085705
P -0.06575838179446553 5.829496581153626 8.494040315042046 0.26248623572852214 0.06404875085079292 0.4394184995446239
P 8.565991333184563 1.8320710097405908 8.72026241379462 0.7719976354354898 -0.32893511138037546 -0.9395556571255432
P 1.6547649983099086 3.3681491260348015 10.972841401839498 -1.1937138326043442 0.22583824548818524 -1.024920395845293
P 4.003074290753615 6.486132871983088 4.272896303061583 -0.8021057676747799 -1.8332081239610685 1.0468159103668035
P 6.736434914634295 4.500753797171632 10.890380121388443 0.22684508948614482 -2.767873799984162 1.0012621329964047
P 6.163563665123044 8.106686674931904 10.583924341989285 0.8222105088444549 0.5207404356535678 0.20475802777911833
P 2.39761714578438 8.683001821073379 6.2843852163992215 -1.162903532091707 0.4332380817655248 -1.6363914625162137
P 6.82165768997588 4.1935454625829065 1.8578738130381005 0.5986348341382013 0.6511856116517236 0.38253104232896057
Ni 2.628358220009418 1.6174561181491436 0.981826685680287 -0.36692341769869063 0.8212615146676244 -0.8165193719969487
Ni 1.1777579825108844 3.809095446430576 8.530551085825012 -1.9322483032853819 -0.7372481477694465 1.4495385971522905
Ni 0.8194105162146199 -0.04118280832788505 9.704784996334386 -1.1383081021405301 0.39310496119006494 -1.176572030717735
Ni 2.819476261311583 1.6472394464142328 9.801420917995237 -0.16832678153527783 1.1783908290940286 -0.28547575464515995
Ni 5.154365289902589 3.1413712661858155 0.9552394392614484 -0.9125960978175638 0.37984886751110714 -0.2099190031547675
Ni 4.167962230472668 6.892421565973111 11.172488098262171 -0.3887597968474918 0.6505487493986731 0.08430904376172577
Ni 6.912201194502787 6.308134436891302 12.030291684317442 0.33226828951866644 0.4086855892371413 0.07282006928551975
Ni 7.345530854626424 4.030862345574209 8.510949118629435 1.9912119263037833 -0.29794611919802877 1.1954755524904572
Ni 3.265588426652694 8.5440797686457 13.117077041848288 -0.9312877606897962 -0.00939275406880963 0.1589553676227069
Ni 9.026635284571197 5.315344680271466 10.872738806454306 0.3524985005226123 -1.6130764419393573 0.482705078147401
Ni 8.81232105062207 2.3346885901627923 6.255169493319485 -1.1837870604089353 1.4258988462461637 0.030408694198844406
Ni 3.2218290734384927 3.0760738927762423 12.301904887306634 1.876275387464188 -0.9978662199409782 0.2154329909944612
Ni 0.9846355569265786 3.130265155095224 -0.250950734291609 -0.6407906415706448 1.088243838494287 0.655833137726064
Ni 3.042218020083348 8.940228100335618 8.232468166222617 -0.1792665683762332 -1.229300214349386 1.3003107412299928
Ni 5.571231666399731 7.966288666805558 4.081037550658791 0.4998857036917455 0.44476433723756953 0.46835189474952243
Ni 3.2902059099724466 8.606088129665032 4.116547951468217 -1.9555890348938514 0.10900448962587678 0.8283325625817928
Ni 5.408420997663987 3.106139657008361 5.5883308864939245 -1.682701401326347 -1.4845143418965272 -1.201887369554072
Ni 6.079543520350742 6.045068110697913 9.681369232500153 -0.7182872903962274 0.43847130514000615 -0.7505199251776882
Ni 7.942910257405674 9.155571858938755 2.982650452469405 0.28192711806195314 0.3802898117032677 1.170961626509493
Ni 4.234270906860958 0.3958385632099512 2.1654238040385545 2.217550251356839 0.17912155815793665 -1.1587339740950495
Ni 6.06673368262033 6.1666066848968395 1.0372087344796133 -1.045886970794631 -1.552805670073758 -0.06584132397484145
Ni 8.21093287927854 -0.004104432359566437 11.659055116003247 -2.2152920514502816 -1.3021621926164348 -1.7040898943044525
Ni 0.06372939825067986 5.2056957492006966 6.358338796656351 -0.6373301938258702 -0.6910207413707905 -0.44083929115155046
Ni 7.314636004168511 6.486287756223071 3.1514405639522813 -0.7615841534116498 -0.5669655280593784 -0.5598214608154294
P 8.194706477430842 1.9181046496326795 4.15247107322301 0.4452361346676655 0.5039624448642805 -0.998061880891552
P 1.519122847434825 3.358874293311075 2.0015681222248043 0.47154674753773623 0.5746860366320876 0.1181730434990223
P 4.59567961460631 1.292709421091683 8.43480802625348 1.4976609065808144 0.20890933094333053 0.3752921013783601
P 8.54449886717742 1.5413532912913002 12.809167172760816 0.008457900959366079 2.2708836726726567 2.481004507425585
P 6.160183544356342 8.225810877154615 2.0631610290474742 0.2498302375274085 -0.23321602600949512 -0.8691218286840129
P 1.7877285629170399 3.7607442310427426 6.430772689194112 -0.47054813106989285 -1.6500391352066357 -0.0527855192321478
P 6.89772407348314 4.168344885653804 6.412424373258638 2.110743026492597 0.30288726525338805 0.5470801019893611
P 2.608387263889175 8.725203221050098 10.766741499112092 0.22929432235758573 -1.1564626615623697 0.4245068725401141
