# total energy = -381179.803581411 ev
CRYSTAL
PRIMVEC
9.13242545098834 0.00000000000000 0.00000000000000
0.00000000000000 9.13242545098834 0.00000000000000
0.00000000000000 0.00000000000000 13.36622776724410
PRIMCOORD
 96 1
Ni 8.607137451985134 4.686422831094788 1.4044300448004083 -0.7247407593310551 -0.4985173625893092 -1.093598675048297
Ni 7.440515765390028 8.054963613192227 6.874050594041228 0.39262133668542704 -1.5465748586726977 0.7231695581891933
Ni 8.851804261688601 1.135991531701841 4.461285713174041 -0.22128250779670275 0.323467660507901 0.1669252732020609
Ni 2.38813838245181 5.024468690823187 7.354553158057052 0.26744512239569423 2.237600485139495 0.09569697388369325
Ni 3.5534632646358104 8.451310876867733 9.083875630238582 -0.23314094979718555 2.115183321652138 -0.726822067340116
Ni 4.278166884658156 3.504887893771985 3.7526615546068447 -0.5376413251739643 0.5337905839693065 -0.49659237765245445
Ni 2.8913898182145394 9.06338429405805 11.742752070512312 0.8166037041806387 0.42760350918756684 -0.06427835036309575
Ni 2.190604020394179 0.2517197818632968 5.070732644810601 -1.4947185361230386 0.37765751628674316 0.3175870333574079
Ni 0.5285847839064124 1.4062565298864707 2.124976584766876 2.067082352379853 0.7076377811021812 0.8379790845326214
Ni 8.076077780787106 2.0265399975386376 11.475187530527425 -0.005423485008416466 0.7057043115248943 0.001980006544506267
Ni 2.7760198877534177 5.441710943883246 3.680283430101456 -0.516234320253098 0.736975353724034 -1.770635186324854
Ni 4.7158018437040985 3.5562303895411946 7.770269382827705 -0.5733871153150061 0.3517883618294651 -1.878412488411849
Ni 1.7491060453912137 8.03453437750462 2.9091861756505866 -0.25932892104646305 -0.9752885917507784 1.2690846933361757
Ni 4.426084779352906 0.1942466889027193 0.39602488905781624 -0.5894750220158042 -1.6810242707342402 -0.8344240201915113
Ni 3.078704996215652 3.380084167841352 5.878399783654609 0.13538297961940554 -0.8466408739726774 -0.5444609191989591
Ni 6.086377987434344 5.100359146149073 9.490489566582845 -0.7300495731384782 0.883726208860749 -0.054845744195286185
Ni 8.39751175865777 3.365371830473121 3.462187412187479 1.1492977683828143 0.4886163014255133 -0.8233618488400787
Ni 6.460222954849563 7.688762485862178 9.345546102850747 1.1155612953623173 -0.5223602306451778 -0.8109549905352937
Ni 1.997754592582297 8.823877304722709 0.6439063125127533 -1.0888141091754602 -0.4355101656291531 -1.0888668167902666
Ni 3.9127602783405444 4.867902389245932 1.2771340799698436 0.10727953651497009 -0.4947725508348963 0.7647954612600958
Ni 7.7489360370224984 8.67745712779853 11.348234944893042 0.5613615516090397 -0.07730664430196363 0.23767200489831972
Ni 1.4419734457444178 6.7372368154271935 5.148229493769678 -0.5801056649857622 0.7036327737078463 1.2001652446566429
Ni 2.0395902334785525 6.448222947834135 11.344131746147202 0.36934951064168003 -0.513100916830439 -0.2560829033053396
Ni 3.7722761779460665 4.390769690213893 9.5915517261223 -0.26821979577818966 0.6733071261411113 1.1704162955289843
P 2.16218391245505 2.2245492457186455 4.0916562733374535 -0.295115334617453 0.7783485173541821 -0.5029859398836242
Ni 6.061117698694103 3.604933614361044 2.2519282571587182 0.8597864102156999 3.3545198371916034 -1.05126777549057
P 7.159721080684251 4.234970512372784 12.114467356317183 0.4017551806658952 0.6511372749122916 0.23546574127562028
Ni 4.2909248829843 1.3188592185183923 4.494661075151656 0.4193726366373422 -0.649180922516869 0.2649056438032922
P 6.947401321854945 4.773053018726721 4.133238946049289 -0.6101058108922783 0.7245818651556876 -0.03160708538231976
P 4.793874948707829 2.9500565191788586 0.4121372272445143 -0.7238992372663662 0.5355499898625745 -0.4683035580100902
P 3.500979215687812 7.745483980209841 1.720674978541569 0.8718731661769049 -1.3135606642613635 0.15414020562225067
Ni 1.4938547546140157 6.038414489074349 0.9666096975182299 0.7442546609942666 0.8183260861883842 0.28211403726177864
Ni 8.423995792405671 7.886662144937022 4.420131351214886 0.06166251000680348 -0.058785445569324565 -0.9095542256674466
Ni 2.798476521886553 4.490924999908116 12.73944489064053 -0.2012081056443309 -0.6187724854283408 -0.8313687783049553
Ni 8.340415834867464 5.820003402483027 5.786787857950442 -0.33012501792341853 -0.0697098057913122 0.5615057904963878
Ni 5.817829885230612 0.5580889107441188 8.132761832190505 -0.1420753040379166 -0.5611599771211948 -0.4892811887030219
Ni 6.690871491517504 8.481073451345116 0.8394735501326955 0.21283900501503988 0.21291690944082683 0.2445661609149917
Ni 8.266297070075058 4.383609868676529 10.113930113706271 -0.689230225129271 0.14870669331150518 1.1280735688967152
Ni 5.140350037108407 8.332918113589178 3.0759698347992743 0.7853216062379056 1.6872285997727392 -0.9462358973591961
Ni 8.290178362575322 1.3900556071730987 7.0486269518096 -1.509961064104406 -1.3139602136926274 0.8869488295631046
Ni 6.808606720165075 6.416250326402614 11.584175722097845 0.49744778367421427 -0.5740093222800372 -0.4677356013217622
Ni 1.4603387532847736 3.81637666034904 2.401710993126338 0.9215545925624323 -0.9255418593449544 -0.37219315073806225
Ni 1.9987774242304919 2.947243732146322 8.077131662681765 2.867726190797126 -1.902373884323453 1.4173792388109268
Ni 3.0712346722136576 0.8799539390950929 2.363536541585095 -0.21824809184575314 0.33118251265365545 1.5984682051078793
Ni 8.498425059662708 8.909913884701671 8.795352173891132 -0.5986160650851239 0.6672876594199089 1.341852312117205
Ni 6.335309639813767 0.002210960196678342 5.250401242998914 -0.013633788733350713 3.16002950988708 -1.1883636240360245
Ni 6.102332334661098 2.983325945021482 10.663335914351249 -1.4505824650357726 -0.33510807296030676 -0.6322111274317498
Ni 6.0437934876528026 5.749619799691618 0.5864670095262678 -0.08816775538618364 -0.6320054391788471 -1.2776845191900446
Ni 3.5089152933867522 7.666744208149698 4.640727827211683 2.1976352576004667 -1.049625869011773 -0.39606687203186625
Ni 3.6362213038852906 1.1508682527278178 6.911476186697186 0.47082195355656986 -0.1353133027237347 -0.028789413427866548
Ni 8.871813405806412 8.428835977883738 1.786436660822697 0.4212122609492423 -1.9294846244973156 -0.008338601772682414
Ni 3.8428058995443606 2.432357586385377 11.611683500736486 0.6133289458152663 0.2965764925440118 -0.6840396820672671
Ni 4.951984630182808 4.8704229386646976 11.676456141343511 -0.4328776131023125 -0.2905729666624093 1.0198812907594885
Ni 4.093253534545215 1.9509509122519522 9.17570125469782 -0.692681159792349 -0.6049718320998226 0.9386341737525383
Ni 6.15814971889116 7.017556614010596 4.841674976652621 0.3939158871271345 -3.0176317895127385 -0.2582122909435166
Ni 1.3252610487450405 8.382762891587817 10.150914610213945 -0.732696523843022 0.20918109654747846 -0.3567840152718436
P 5.060523506422056 7.909347089705914 6.450822036111601 -1.3543319326414547 0.4756738823322324 0.7617273638577333
Ni 1.2297358787439854 2.720257298075938 11.427536361117149 1.1723281678397166 -0.4547196486780685 1.1612536551931096
P 7.45874408654893 5.990423593438064 8.096645829341252 1.0973956801968843 0.06778636351635423 -0.3893472939198456
Ni 7.153282720755881 6.527236692657187 2.3649666794074813 1.635941776573305 0.3947720644798427 1.31367379280046
P 0.3543709834276238 8.735192321368956 6.127881208044936 0.12043612850158612 0.05317452714045035 0.5825880650879838
P 7.226533905132407 1.7102201779089485 9.321500426692738 -0.07499136590522569 -2.3727759767337844 0.7954872339169978
P 2.749243616391745 6.430670426157076 9.271911356606148 -0.635830469351892 -0.3853186323764267 -1.0600666047291227
Ni 4.248404310180772 5.316085299663885 5.351690799931582 -1.4413298360892532 1.2411619987839786 0.4310184484063867
Ni 8.049173655469408 3.3854357691435144 5.963235449689485 0.5694016483046969 0.3513713288967046 -1.5663265873783283
Ni 6.976588553530219 3.3686595036280327 8.128711601512162 0.907247946131773 0.8375278559278156 -0.18204747355548004
Ni 1.0598818981656273 2.099060587880739 6.303406424815518 1.153042323026911 0.8506960178786576 -2.453297271318304
Ni 3.7265866535182197 6.881556534502401 12.866999303110772 0.9264538296362625 0.15414997581426354 1.3889405238542594
Ni 5.2953912236388 1.5565214579168112 1.9771728453900046 0.9840843356655375 -1.0092191830599522 1.2659705731872262
Ni 2.7942299440614584 7.721949719875929 6.960677128702988 0.5292060499224177 0.12050837650041825 -0.4584094388248299
Ni -0.1788850360863928 0.7348049957908127 13.211767541198425 0.5123843503793886 -0.6444506069207353 -0.39593060356431814
Ni 5.353153814485518 0.4454842787032956 10.572606180943652 0.23439153437483506 0.040934533430832726 0.47760298103414517
Ni 6.087072051767047 4.733920575757837 6.2359196273706035 1.8621929412291927 0.12946378592149316 0.5747086623399069
Ni 6.1103140744871896 2.0930514519475945 6.359397325128755 -1.6420471181400944 0.5405623554755014 -0.3560749050199609
Ni 4.609536941396998 7.138762164321686 10.470554979730096 -0.1709030269028863 -1.7699029361445193 2.0505072216299913
Ni 4.565609975077201 6.275008234697421 7.821609138869285 0.622120061744335 -0.3242001677985513 0.2943036373494351
Ni 8.318726324470475 6.7125427370636315 13.52288005184775 0.6225954587188569 0.535109045670414 -0.7416835578329808
Ni 8.905265480157643 6.66787604428398 9.983222274734942 -0.9780926368584767 -0.4482396973806797 0.09617185663758275
Ni 0.19019280525420415 4.164614306857667 7.803016433935715 -1.8337804515247709 1.5766804198088264 -1.2429435161644335
Ni 0.10051056104346208 2.3674899685538766 9.436128804208918 0.8158508851750143 -1.1564981427859953 -1.2588679007041739
Ni 0.9833795703359103 4.40387472070639 4.7400119035198545 0.6644015961213654 -2.0457432245824445 2.188154057582909
Ni 0.2724293830116135 5.898103904763048 3.3260256887491684 -0.7139966334406735 0.8236037896475558 -1.600011124114967
Ni 1.511507732970807 0.5412368460975656 8.025590993280717 0.0435845694591701 -0.5236712361471175 -0.06284161791656918
Ni 7.769666642749305 2.238941948196816 1.2275614482490282 -1.3164282156171458 0.1577063257069542 -0.2188957527320811
Ni 0.6628670541911654 7.116643429929471 7.777313222562104 -0.13288720978074534 -0.5618585458501162 -0.4098189315106361
Ni 0.5579619700306375 4.871555359418057 12.2716674482193 -1.9401724432284653 -0.2957552821942971 0.31639764103499707
Ni 5.041646783057603 6.030843708392621 3.0022821204871786 -1.1118501650593173 -1.4205774340332504 0.16477557384890978
Ni 6.503054030117723 2.3389420066587236 4.0983530809055 -0.5010357581357888 -1.3917790217443193 0.3574509594318811
P 0.6537949027686942 2.8294902386478897 0.26913257743127117 0.17675357214639237 0.5632695672650299 0.36480431447315886
Ni 6.14349217607551 1.467041953550622 12.725103329744769 0.0733916255182736 0.16278656844333902 0.31224839475331384
P 0.8164406599549077 7.904671287885596 12.37933235134487 -0.9189716623266044 0.1680195347075042 -0.02902826891155
Ni 2.8319742583649345 1.916530800805109 0.24752525886315485 -1.6087577599593454 1.2623802847328065 0.2640733777099839
P 2.191435071108337 1.2983112613001924 10.044278931434373 0.39380507258088304 0.20837634125799598 -0.022506151522316078
P 5.767756796596217 8.175475099170614 12.286998050789165 -1.1576427979133999 0.2787381788110103 -0.2267039359225902
P 7.438625353325953 0.3066595400095059 2.887078400168889 -1.3087421598267976 0.9398983851769426 0.9248301779899105
Ni 1.4125396385825248 4.443847346814862 9.737163683395893 0.5540750452499554 1.6009583185195848 1.0730663594229004
