# total energy = -340874.9905013585 ev
CRYSTAL
PRIMVEC
9.21329429032725 0.00000000000000 0.00000000000000

0.00000000000000 9.21329429032725 0.00000000000000

0.00000000000000 0.00000000000000 13.48458748795017

PRIMCOORD
 96 1
Ni 8.105054760875174 7.367733245331675 12.835722982305578 0.20632434382497372 -0.29985207797149005 -1.9233553716711262
Ni 7.228999459893403 7.167086122255923 3.4755310055040023 -0.3209775470961956 -0.15427004633189562 0.18954892413884775
Ni 6.916069919289678 3.0068507249059886 5.629060233091982 0.33941672763798963 0.5174450527317476 0.9592405371489802
Ni 8.284142775309304 5.836336321410318 8.834778072616647 1.2930836273539346 0.5802401336810975 0.41562345400755524
Ni 4.513113782000701 3.1932080285359477 7.524305811176746 -0.7181451083914083 -1.3151205525493157 -3.314359977143266
Ni 5.438054822492066 1.1171672125848773 6.448194880612724 -0.6293034668666516 0.42667611227729096 -0.6091897268359121
Ni 5.81801107906494 4.490255598864006 8.753263451374442 1.1431152937211861 0.3646305078994559 0.7300122921426395
Ni 0.01909823773641875 3.4796217081693355 11.884722138911293 0.007478824875548409 -0.5061602238465476 -0.21218774458428616
Ni 4.350517564347983 3.399143582534902 2.3843314628791306 -1.294688509947209 -0.5773764389800573 0.24605302987316335
Ni 2.5436984208827504 1.361641976604305 11.16835349724505 -0.9907656043404548 -1.1431980832429796 -0.029753062892716505
Ni 1.081502550383287 4.399301957620374 7.651909937111137 -0.4156633061065551 0.03202540386666097 1.0794324108502442
Ni 2.4986361985040424 8.455731168190322 8.94473136934778 -0.43947454959353993 0.5691825903153552 0.9960471644543685
Ni 2.0485114926086907 3.470859865298317 9.952906231796105 -0.1814764315433584 2.0070614917415304 0.25695553571828006
Ni 6.086716807070465 8.754518302056916 8.413748950093193 1.0660361920489962 0.7168806398566879 -0.2298954462766944
Ni 9.079415911945029 7.751098420792327 4.931556732816588 0.7683240432386446 -0.26192702079094243 -0.37327301406580227
Ni 7.747671075315965 0.27844970804799524 0.5525037533896152 1.3839243015865907 -0.5544167448600903 1.1702810555027006
Ni 7.0403019795134565 5.2221320574813515 11.067300242799304 0.957616628392312 -0.12663711510597545 0.9206791319360144
Ni 0.1795588137724148 8.99397182068759 2.9166083499816438 -1.376174482437843 0.701015133579341 -1.4377819708369948
Ni 0.30651340245927006 2.138810989957641 6.690876737563065 -1.1779683968446293 -0.7659989946498936 -0.462798569031461
Ni 7.80675593160602 0.8734562306621977 4.607521487274139 0.8734073434332442 -0.45770444233800534 -0.030326676007999383
Ni 4.5800852182041005 4.567407725259283 10.886364041530339 0.04728233002573147 0.012666539724074959 0.5242695318527487
Ni 4.137579906687647 2.504219454844565 9.665023953052685 2.0509407096229837 -1.0351503011034173 0.9449009805978564
Ni 2.808110753748533 3.5890940709384647 0.450191041614249 -0.4962581342414873 0.515896477297705 1.0836575046751853
Ni 1.3167271669342573 6.757877656308198 2.396979473282216 0.19372902365846636 -0.7356669193252555 1.8152947340157577
P 4.203970905350696 3.128199024016593 5.024532692157158 0.4689085385839408 -0.5241278640685618 -0.2353994068140591
P 0.5161232182215912 8.422415896033012 0.6556180217683238 0.1329041790616098 0.5179129935071015 0.24937335249564796
P 0.6256831072864876 1.9686506576917733 10.048094303096015 -0.9532447245768615 -0.8747150065010743 -0.2308938056342217
P 3.237256788542614 7.221730170697574 11.720789993586338 0.6681872884160427 -0.07808131768445907 0.07636639187588139
P 8.145584042462568 3.981128956327222 7.454253449362338 -0.4414409292912913 0.14405453925147446 -1.4003654778617496
P 6.375443023570967 3.0999971301909484 11.092731699031555 -0.06637482788080827 0.36590448951587307 -0.5853892819822047
P 6.068907509205397 6.516719678233635 9.323230082763772 0.4019575264846884 0.7938975208323747 0.18585373467544766
P 9.10844700225689 2.7875282543017876 0.48141489596743686 0.5235709631238273 -0.7388720565261147 0.7706030690808083
Ni 4.436127494902666 7.598213015322631 7.516214696130134 -1.6262613160607478 -0.3320358617928862 -1.7777093195628157
Ni 2.056674471350775 8.708396550834708 4.205451481743307 -1.1316985672438122 -0.46700566513427316 1.0357241713290162
Ni 3.6706409387106884 6.397048198684046 4.06465944636036 0.8559945472734355 0.838324126576866 -0.6944012278072493
Ni 2.1712417858629887 5.009139120055268 11.822679815153734 0.6660113638106466 0.3285219351023568 1.3056907745949835
Ni 5.764343639818165 2.086755877211843 3.651437669419349 0.2722055198988151 -1.3616228098759129 0.8572078508552463
Ni 4.316105910170009 8.907928865301216 5.018032713034652 -0.28834947664852917 -1.3999150205878923 -1.6383802108114687
Ni 6.779427551655529 2.2555710685111823 7.979774227761046 0.5119842867274924 0.5410590926062617 0.1545631520922822
Ni 6.788447366766704 6.52402582060663 7.312570488421423 -3.900369666318289 0.11409810209870028 0.025305311534008033
Ni 7.3482931943770495 7.858626778465993 10.39695384877692 3.3220738008477557 1.2043229755787581 -1.2284455796585747
Ni 8.510071177920361 7.94276258193407 7.094106696845171 0.24316156725798124 0.3146156094339098 1.2661662341378002
Ni 5.553257854310378 5.59256176775703 2.39548323428931 -0.3141620668362589 0.3432530706649443 -0.7415506317995423
Ni 3.8197212536380807 5.3456731206332835 6.250268443341189 0.015270295895509184 -0.46244478523646815 0.6003492457261467
Ni 8.64136062157127 0.6627343702789175 8.636756738413911 0.8711388591140417 -0.48417909158976613 0.25198507908688217
Ni 8.136149629108283 3.604203873576183 9.547330567787435 0.5762819203642978 -1.7194159831385611 1.3032034893967555
Ni 1.588289016170083 6.6618198500271895 0.02223167912488709 0.6007904470286234 -0.6672961440603412 0.3418525907729919
Ni 1.1944022586287764 7.982324467620877 11.617524627181252 -0.3254939469093104 0.5115772810970608 -1.1772837120727788
Ni 1.3878722254516127 9.032022726110624 6.977384392798225 -0.09251394817002132 0.16452411995973604 -1.0255783411442658
Ni 7.101727012553498 2.232970857614643 12.997969094775227 0.8707143699821133 1.4581057699960114 -0.6843129903333117
Ni 5.508987975240721 1.0357401176384404 0.7677668465290731 -0.267156644620998 0.3363221478730659 1.6804519431705383
Ni 1.7371758519173583 1.2574027649926296 0.12091343162005519 -1.4003243402111687 0.0845926364404156 -0.3525650920944896
Ni 4.404516682189245 6.035656730108125 13.360853117026336 -2.4854571438803 0.7243270688324042 0.0013896812586750259
Ni 8.423668904056626 6.583617408082705 1.4422979188185607 -0.9823706954085404 -0.511693494959951 0.7928901626137829
Ni 4.934115264641279 1.5602068951702255 11.998585557739652 0.23472269246200866 0.7860546277491882 -0.6874309671370032
Ni 5.796599383131978 7.981697963609069 0.2170560002085433 0.4683971461651611 -0.7186840116140139 0.39952037779810545
P 9.167845110552848 5.72515028590301 3.7958975172596583 -0.3376483228836572 0.5900941436570418 -0.9767248099766728
P 2.8201893825644166 7.54215011956012 5.717518914241532 -0.22098580249189037 -0.9643909710016682 2.2958346861910397
P 3.3716971788411434 4.676318077076643 8.46288621253694 -1.044611446516317 0.9325625136371618 0.7732541335504102
P 6.500375294160884 5.668405606362943 13.461636421949347 0.9858200874097216 1.4491043378283495 -0.14292685340493447
P 6.568516818739277 3.495044762812958 2.1562526773804858 -0.6282765682640341 -0.12045335489276673 -0.911136996773534
P 6.570985981609344 9.185359583000594 12.007566677014804 0.08948878819045235 0.010406797155620786 0.6251763320721555
P 5.772018313962811 5.731995763561439 5.356522695990709 1.0326126222832281 1.0351546719787916 -1.105289224012348
P 0.9347255590287173 1.650773578053624 4.461078938502343 -0.21362627680302565 -0.7551934193939575 -0.22839135092734214
Ni 4.508101749906238 8.938001057867991 10.39449942717772 -0.3959167196072471 0.8438797662877725 -0.29693104766995315
Ni 0.8431454137732769 4.666957370076692 1.4081147543390098 -0.3140777346525688 -0.6320411775127889 0.029537861558116867
Ni 0.2624692490997496 3.7178682852478495 4.638347327313943 -0.16218467319328198 -0.5154488482373252 0.003983153017464107
Ni 3.118294732653454 1.2266211487654237 6.077395717235965 -0.4489421227643429 -0.49717241852564054 0.3804289083842932
Ni 1.3749828267380955 2.432392612549654 2.2560391038611796 0.20798167692273856 0.16912793728033454 -0.005917908146331743
Ni 2.4550481032119404 8.634275598261267 1.9550361727175314 1.091974766291629 1.427986839123444 -1.4696873041860237
Ni 8.294719637155707 2.0899713169195033 2.734148269836901 -0.9109657613029924 0.9818094235884317 -1.3072540053170454
Ni 1.397546184457469 5.963396862981524 9.90208293649705 -0.27171546763627397 0.23506439207214352 -0.48761485674419247
Ni 7.283579015275016 4.5023618675627635 3.866988217340695 -0.5303777016330156 0.6561159590738055 -0.1548770837882752
Ni 2.2889416204342408 1.7986008849574007 8.283245400445333 -2.225252762207419 0.1645554874183037 0.16689236308159644
Ni 6.7911745018769265 1.1296972928210343 10.048000327494243 -0.6148602948581281 1.0424704889139143 1.7487885227634075
Ni 2.6673776834490512 4.298536157956515 3.787793503601038 -0.49978388800655865 -0.6210646238966272 -0.3100105065617306
Ni 2.30027397241253 3.251058303390969 6.1313478472763405 -0.01325917900275136 1.8547064030441605 -0.9193053915169394
Ni 5.171182540050508 3.938305564461297 0.33686752183135993 1.9276334302211902 -1.7104641732619124 -1.1254641562983263
Ni 8.082666455747336 5.698164546923816 5.828079367066464 1.3474236355573954 -1.643415202132215 -0.5634392600736748
Ni 8.80063083998483 0.7350071360175269 11.54032551298509 0.28128382805099944 -0.027775627451371517 0.35701464322541093
Ni 1.486021449536744 5.667309224342279 5.425537640867917 -0.17528418668971746 0.30786697785616657 -0.5903769650047832
Ni 3.981340862095921 6.65219195749279 9.6243684493335 -1.4502991294673988 -1.3387451339467913 -0.0718996143537794
Ni 3.0210207715259956 1.4328146750045339 3.683854645383259 1.5333622166371657 1.526337191469584 -0.872683320783026
Ni 3.5825986984631037 9.032464964236606 13.099022349220974 0.06333886926796188 -0.9156474830493779 -0.424386802022482
Ni 5.57766387088801 7.088985026548642 11.414271984479923 -1.9423787068511644 -0.8501126345713619 1.9699280772243428
Ni 4.962206598935428 8.168230319830561 2.6135149223633016 -0.22086984573931637 0.2788253392081778 0.08216474372521333
Ni 1.638022378754476 6.6633584701738355 7.474560471309775 0.34580951853821085 0.9335333621908632 0.7823008171337108
Ni 6.317657241775985 8.1938985577261 5.5662485992611 1.4539146147327993 -1.2568922650350418 0.18232412425563438
P 3.298727888054113 5.876976162529207 1.8421834522729275 -0.03613351249776358 -0.513788944036399 0.36832286914937856
P 6.821974544692715 0.06613394775232159 2.8040255790597746 0.3762961171628423 0.23266940947740578 -0.9166563839298664
P 4.068811878097446 0.7702009988808324 8.133377348856035 1.2610898480561572 -1.231281763555789 0.8222701584377967
P 7.456945573954253 0.6497749505287865 6.610724762546544 1.4372039868463375 -0.31537125665301163 2.1252098526502046
P 9.249134006084915 5.640093153005804 11.912608016742746 0.3856469622501229 0.8663864320307209 -0.3697290054682858
P 3.302542191890707 3.1751039052535592 11.978183638861017 0.42952232347683444 -0.5631667231385785 -0.7735048161086356
P 3.5517433758815677 1.380206764601258 1.4423246373720053 -1.3100259116352277 0.5119122958389764 0.45840481083913953
P 0.2832848448920652 7.768557613474324 9.35824981436497 -0.0017684047543324384 0.6802352207195124 -0.6954939466507958
