# total energy = -340867.7979694632 ev
CRYSTAL
PRIMVEC
9.25557041660217 0.00000000000000 0.00000000000000
0.00000000000000 9.25557041660217 0.00000000000000
0.00000000000000 0.00000000000000 13.54646287209111
PRIMCOORD
 96 1
Ni 6.985576863586277 7.222787873740531 1.1508653726485816 -1.651319544580956 0.11869214922728591 0.5566525761691445
Ni 3.5638480724525197 9.037472000896635 6.7850984351168 -1.0009129771871021 0.22550811584227615 -1.8112768711056162
Ni 1.4867037394770621 0.15877745666995238 11.124897421315199 0.7292766995281956 1.875235376235448 1.5513072311513605
Ni 1.1627587804307118 4.98541110845049 2.0621105102046293 -0.5017029594061424 -0.4355099085188371 -0.3746292709833806
Ni 6.000571309969427 6.763045187861951 8.002978764221814 0.3481800756529165 1.0863574201048516 1.5365267304080765
Ni 0.32305457318748587 5.028079287342024 7.293564293950004 2.101777332658877 0.7515959318506862 0.022121771599703837
Ni 4.507157282054975 7.370025485412227 2.657152047678508 -0.8912250883409555 1.1870281930540525 -0.7807931222399327
Ni 2.1176281972859927 8.666925245598904 1.4865075213875827 -0.13909590969461852 0.13164639539510875 -0.9437175018127165
Ni 7.870113202047466 2.876668258612626 10.155688349458474 -1.09112861624125 0.781935463374492 0.019080156559902625
Ni 8.9664354991629 0.8214448182373218 1.3837716170756231 0.2613914600024466 -0.044214746844001264 -1.95287883505154
Ni 7.808415570704524 1.103402808363162 3.2852202365056766 -1.594728278449473 0.8756020370917179 0.5417057250513252
Ni 1.2097770773437249 3.316446679443693 13.502151768807403 -0.48360702113638004 -0.06950308909714481 1.0329900602273048
Ni 1.1884892657492505 5.060483038816917 5.033513232640771 2.1442344733818235 0.2040239778265712 -1.2949533335728214
Ni 3.9121814591299313 1.4133255784679346 13.47722651810135 1.2933196546241403 -1.2827506208590425 -0.4117562577426651
Ni 4.836535260843045 9.008751966384612 8.803087641899317 1.0661356937413382 -0.23496874703454373 0.06978051112824757
Ni 6.129325547834963 3.3490170311832386 8.259562608484066 -0.06452491915626307 0.16628609695616522 -0.16736004674663435
Ni 1.162462602182441 0.8526407177934855 3.1433073544036767 0.5732634452529483 0.42066333042430776 1.0049249265599725
Ni 6.554887412749024 7.349690997554374 3.545136086060977 1.329153376493298 -0.056099671207045315 1.5783961169483527
Ni 8.283494736501385 7.173576006676262 7.959183256872798 0.9319724454616467 -1.0332682535893558 -0.10672186423928717
Ni 3.343509966879451 5.265577220174291 2.9785693104872717 0.13547322534036668 0.4977552876123041 -1.6372476398689222
Ni 8.874564708777354 6.668462515390675 5.440598202647853 -0.6307540832702492 0.9225328973153015 0.696420058009491
Ni 2.839423843892554 2.505010834883877 11.862948625966705 -0.4789345553613752 -0.2690646602769882 -0.868424288396356
Ni 3.594696888123991 1.189127900097085 2.193280451907626 0.9357437395786207 0.2514852566323282 0.7220225890689437
Ni 3.402440182715111 4.823420117786798 10.960280625369178 0.2598282292803848 0.3051989441057002 1.159498620175216
P 6.345443113370171 5.322276843577661 2.5271464567140276 -0.040706990801058926 0.1736638774774751 1.5700536585209282
P 7.684492740513907 1.9698445069690478 5.372133823888946 -0.22663348769597097 -0.2771947455832903 0.46143382747345046
P 6.038639470442503 7.72933597841618 6.020982619060423 0.20827555401407355 1.1875709529313998 -0.033734930358599965
P 3.215014884981151 7.707946355548863 9.683757003106518 -0.24084397486839815 -2.1310426572818977 0.4665912033046738
P 8.978116028829085 7.367221047623912 1.9641153089790568 0.8992757265595739 0.8311610331695234 1.3805772394912288
P 3.8278447029347786 2.0811334837568567 5.179435627778738 0.058721939321240806 -1.1098526750133144 -0.3857894013652582
P 1.1810015094101505 5.397024828985042 12.41858457306516 1.8927993532611405 -0.6701171584489038 1.08338291085756
P 6.883885913156497 2.6516653456292896 12.646774178888487 0.98621269486245 -0.5755486417426992 0.6643918259293525
Ni 5.6161134325732185 0.8382575616118276 6.799525092478673 2.6874484075475586 -0.2887953059366962 0.3024846304983307
Ni 8.36835906020127 4.4958562307693875 12.360849251349867 -1.0451254100382583 -1.4803221581920505 -0.7223419200815753
Ni 7.239133210816984 3.3251746821974275 3.5093873714946735 0.21677844927876216 0.6190442510324887 0.7152186787732329
Ni 4.969473016465409 5.2472419354922675 6.820630569339056 -1.3309426071832369 -2.3895182291891297 0.6685639550291712
Ni 5.922435785847446 4.390379752103895 0.6936402018803041 -0.07063874536348479 1.240156697447916 -2.0632485804560594
Ni 4.690260228478231 3.3984140096526776 3.440138120377848 2.746821350189237 -0.9007343133829713 -0.47245974627030896
Ni 1.1372874510794102 3.769543865876694 11.094214280351354 -0.8666620542896107 -0.6132726386560341 -1.7498406181770056
Ni 3.552028709232457 6.903702089079877 7.67377293904055 3.0995273387369653 -1.0109299951034718 0.8738585720380498
Ni 4.65548705101717 6.688889558951112 13.513842479600871 1.9579963587837632 0.33723617504690306 0.09752734222421268
Ni 6.107001112371541 2.303035780703607 1.6654834090325878 1.4874307442123738 -3.1452320398629317 -0.33326047822860666
Ni 7.133156931357536 9.20807992747096 -0.15632473055145857 0.02861766373669265 0.6965956643554068 0.8948696270720781
Ni 5.386436456609355 0.15567221284823662 4.53721196979827 0.3078906320052504 0.10865841914036771 -0.11849905937987334
Ni 5.6436765208029325 3.060863362326381 5.804347667147767 0.7253593667516604 -0.898244457081582 -0.10819330657849108
Ni 4.713491709826984 2.5619973809652596 10.453818597496934 1.0445811074990141 -0.7546771418791712 -0.8632131765090617
Ni 2.999249031115765 7.958513153586086 12.640800633843673 -1.4528614908779365 -0.14661972887548944 0.9458219497502293
Ni 5.115368570449627 6.921380228273549 10.912258099083123 -0.3839526052668355 0.10665990065310017 0.12196439222065446
Ni 5.983254138015835 4.178010692523366 11.468205033342262 -0.11695151238709536 1.5348935656800275 0.6002345745251533
Ni 0.6357715999532898 8.014935109881701 9.651569831975674 -0.4495206209756323 -0.2739217312589734 -1.8288601314050181
Ni 3.536942129711156 4.708651046581806 13.675831619150511 -1.9510536089173431 -0.8410191569105258 -0.32118940599668555
Ni 8.987852888740994 1.8579631736846969 11.987101919856759 -0.2552028146932315 -0.352366088709806 0.8820675902114035
Ni 0.6941279704329253 2.3228612121972434 5.192792341218731 -0.3139648632237883 0.45755866078876045 -0.2362303873557867
Ni 1.5805367107574024 7.407094044297388 7.486655851796198 -3.8045425946146345 0.5131461682460775 -1.008410828226044
Ni 1.3598654046550285 5.6251838914265155 9.636736855079453 -0.057180562976049905 0.8376461266732347 -0.6403162730373876
Ni 1.1674143322707207 -0.127894395388525 5.410823033126364 -0.4747490565251178 0.09506988182265562 1.2778842939056767
P 4.272287931176113 3.089009551482379 1.3438143947127947 -2.3798758210033593 0.7162203805648697 -0.41325443955474633
P 2.8528906986186238 2.408706626344526 9.483296160220533 -1.6319951332207312 -0.2126690550960789 0.7162985421009728
P 8.544927574022047 9.041405618256483 11.165943098740422 -0.4465150013800891 -0.5325934783374118 0.018148388774252615
P 2.9059899051914497 6.564772361785067 1.38573564908447 -0.34461806933327105 0.5990948044937552 -1.5359749716696642
P 8.663889418554126 4.568170001198792 9.022417815871238 -0.12611800937771184 -0.3246629663675828 2.7031673609447124
P 9.447715897032932 -0.011770308697692682 7.952166609059854 0.10558286553883751 0.6564666575450049 -0.919136727149559
P 5.207294894256724 8.738507825977887 12.459548801472112 -0.3374326073284253 -0.8958343049781926 1.029709332593504
P 2.284728262732359 7.318453447932048 5.325927240487601 0.5378832659814414 -0.6578131442705704 0.9329304384995417
Ni 4.027552142401724 2.171180926801484 7.576238665213849 -1.4276119722825285 1.091920773125242 -0.0333682910478006
Ni 8.871612181864904 6.284698805763851 0.17816324857631183 0.4969641591695764 -0.11239603180592903 0.018225264758775065
Ni 8.44238511112849 4.22302978626055 5.549728780451388 -2.1732216046427926 -1.3653126000226745 -1.1679359523092918
Ni 6.158138138049572 5.093590213631455 4.900690246089612 1.030705377958186 0.8447595977895644 -1.7612632581916507
Ni 3.1245324301343764 9.062573107437599 3.9375232104976146 0.10437598971492992 -0.6920368413401308 1.33787121598227
Ni 6.947499447542943 8.201740284408343 9.738375974315785 0.7739910117164347 0.8367328708303461 0.03202257565318356
Ni 8.75509380788106 8.541364179472538 3.9294634599165414 0.36998148779872414 -2.196953401042094 -0.4466772379895662
Ni 0.3315900600798443 8.771948201321731 13.018665768544775 -0.5132929782365869 -1.2794408397595192 1.5098019128187223
Ni 8.095504848981658 3.6098204899263258 1.1824120583175408 1.0285695625621059 0.05027303722293923 -0.1746977180586282
Ni 3.2562299393421053 4.429993592810135 8.68225339550395 -0.5021012232858256 -0.390219926332786 -1.986685756298656
Ni 0.1432429075481411 6.89141994734689 11.446964425156107 -0.5259782870137394 0.1225248927098148 0.5846516324852318
Ni 1.619400850272706 7.146086963008615 3.2429556004774116 -0.7715808596130453 -0.42527126150996436 0.36880597943338417
Ni 7.476020276012193 5.947684981512545 10.482456257433657 -0.5613574378439816 -0.5578995612023683 -0.5949818107666462
Ni 8.333187893219094 5.464553469590818 3.419749950212496 0.8864652050584669 0.7997285256918549 -0.81612213655853
Ni 6.541605669428124 0.7806527434371797 11.286248852074031 -0.11199211149929099 1.4932787183527185 -0.9278291127172342
Ni 8.347487749268426 2.509620108872594 7.666051942330937 0.020911039121054308 -0.616817675694815 -0.7373322228428205
Ni 3.5186808895912 4.556535749383898 4.9488340203460535 0.33646432987788505 -0.6210983053480399 4.476248180596582
Ni 7.857229448247679 8.92536853392608 6.438755921601985 0.3418839582315596 0.933810784221966 -1.103999301556331
Ni 1.6012229102850764 1.6095251568069213 7.356474404996805 -0.10220135066111431 0.8382894166841884 -1.5267601379396156
Ni 3.79565382957583 0.061606001197383235 11.00926480540509 1.487225055959471 1.7847266314209136 -0.3266594279723213
Ni 4.460638785935919 6.6933414882454345 5.034163899229941 -1.2456385464980935 1.7421764167635283 -0.49845642744438673
Ni 0.6049440720934133 1.8228105178430387 9.487387122274775 0.3165459936874032 -0.18943862381322857 0.5034981036333522
Ni 2.482205109767014 0.29512866660363885 8.990313019315694 -0.2619411618583295 0.3749851116609026 -0.7041773333574066
Ni 2.4701451017202314 3.1165541285715777 3.488159721106879 -2.584112943282001 -1.5501011266584013 -0.30580315334860236
P 7.17412208532151 5.03203141584239 7.02321741671341 -0.2648760761169374 0.4774697978903906 0.17544333797540107
P 5.98098652330251 9.215650983942387 2.411243578152372 0.3004364897200503 0.28451776160726483 -0.6873273516796033
P 0.383888659825313 2.7199066651449675 2.3988207517514577 0.33220555460153106 0.8785845167588094 0.20847198629559582
P 6.572695129926315 1.3294978786369975 9.03782093589538 -0.4283822963351203 -0.6894713946057996 -0.3172635885797181
P 2.199614038635495 3.7332805416040196 6.628704287788403 -0.618270863201574 0.36218975966844713 0.05554071337978177
P 6.726004395687565 6.046478938451423 12.765224190385274 0.3082518719994111 -0.07750204814222135 -0.9392124148535115
P 5.223186708390512 4.9157259199744905 9.445094719535735 -0.08086710795971234 1.0726562684686751 0.9969462792298701
P 1.77830048047007 1.058115303088482 13.327592639289737 -0.18648185517774982 0.1713064329888921 -0.005867514524370541
