# total energy = -340897.3032950299 ev
CRYSTAL
PRIMVEC
9.01277042877625 0.00000000000000 0.00000000000000
0.00000000000000 9.01277042877625 0.00000000000000
0.00000000000000 0.00000000000000 13.19110054731695
PRIMCOORD
 96 1
Ni 6.5161609880212525 1.7990391246637891 11.337420908419585 -0.27699137132323265 0.6052052882668674 0.5333704657127524
Ni 4.58793281064001 0.4690002436845198 5.882346913561776 -0.836794834416533 -0.34493482924274144 0.9556780166087024
Ni 2.5704962305939616 1.6969424601470244 4.601583552878454 0.36258570955528524 -0.3224047664610254 0.738478934852754
Ni 3.405916968946051 4.18475553393689 4.8740981888831465 -0.05184758079891071 0.3432353300531315 -0.22230477841363003
Ni 5.036309131530241 4.720564741698336 2.7164165905155917 0.12182632398089341 -0.36190282455564765 -0.20342928166536578
Ni 7.354781259910017 6.151017602937195 2.66358643352425 -0.6457446431418105 -0.6124563134023259 -0.03034493084044451
Ni 5.11833435608595 4.608698233931556 11.291041191293589 -0.4083012093145291 -0.08885321148898247 0.988456239480988
Ni 5.566052744727793 7.8522681673955725 12.417667249166868 -0.34380894316841437 0.4832496377969613 -0.3658486965772732
Ni 1.6611437356183707 6.452026112959344 0.272136099642607 1.5657416614091357 0.08977340931040668 0.26578598952571647
Ni 2.691005985295026 1.5164887686785689 0.32354314016791796 -0.13928617132855367 0.1582765963881274 0.1426725713022833
Ni 0.4929291494306365 9.032508493295941 4.800755867452036 0.8798451286387879 0.8753801508888989 -0.3441565563158202
Ni 8.546377676672948 2.344582124593147 1.4281744328499255 0.3491401255733406 0.9227835798735269 -0.20966009306642602
Ni 6.726870550144968 0.7122837610427413 4.711636691215435 0.5231526446394862 -0.11728858401153995 -0.12300826010413655
Ni 1.0077088597241302 7.206512171989352 2.5648244941020475 -0.3520974084294517 0.10452254259512321 0.21610199203702785
Ni 7.306968512270412 4.011421931183851 3.935050417579004 1.2660011693148456 -0.1232064921578717 -0.880083469901839
Ni 7.60661609394316 3.822568337585309 12.641440822167793 -0.012114266765030749 -0.2248897655319869 -0.5916290922443295
Ni 7.869825044379918 8.764892298072045 6.797598266846531 -0.1932014332897705 0.6679049812889336 0.37239163990211355
Ni 6.90323244379469 0.7426865398575719 0.5223450298728873 -0.09766103958859955 -0.6620829752905177 -0.8176545140426564
Ni 1.927696423920217 6.425744874105982 9.263701378993742 -0.01219088563923707 -0.11940460191327823 -0.33578195909887976
Ni 0.08289856201966367 4.880974031517313 1.3392661554436287 0.1013174053942642 -1.0882250694412097 0.783652960286231
Ni 6.23454796017072 2.1348910055388526 7.017362058240509 1.2341536857869455 -0.5574118229326723 0.5885661370482895
Ni 3.4155606334087043 4.177401113187801 0.38670283345893 0.005684194868970855 0.09136697904977167 -0.18055134862592775
Ni 5.618813503386086 5.573704586904235 4.847914287951464 1.155985721925951 0.11970027877682611 0.7545552715893263
Ni 5.3350103722977735 2.8956499528548476 9.438707751956377 0.22662500305553873 -0.5471271531772126 -0.7038688009780524
P 0.16390263967479488 5.451482405803261 12.291889530093448 -0.051740108686768954 -0.012794323551190869 0.6167135460167831
P 3.8908220487775282 6.152090122629771 12.757628052124664 0.1454727597552398 0.028055106365003298 -1.1168051950717475
P 2.3151734543673173 8.35537003091873 1.270200393627031 1.2916263260821175 0.8271513977894981 0.5046962377065115
P 6.182057584628203 7.8100343247114665 5.587248978450474 0.6402807918137617 -0.7433897418908101 1.1962695091466624
P 4.619080945577329 1.0759896092279269 12.433588308300772 0.8491728963659118 -0.2835633681137955 0.8298957933038545
P 3.966808717080922 6.027605736126808 8.17551478741319 0.7360057907219131 1.3179153416856335 0.1658731777884627
P 4.643929153917081 1.196986053537387 3.829547827080523 -0.10957835985147579 -0.46305593645790577 -1.7266703507081294
P 0.20985965786312774 5.526856205710897 3.6977297492006813 -0.05396848379665544 -0.8856092848160747 0.25706635026453145
Ni 1.2847974767706887 0.9664664217978662 2.4293256007394515 0.5673337100320746 0.39123036987517135 0.20754844604006192
Ni 1.8129908934377963 6.600529532913682 4.9125241360200835 0.10531958457512183 -0.4165757906184954 -0.7015920891287336
Ni 6.2395139967304605 5.65600019457572 9.07804912148598 -0.725364251847667 0.1847792706643463 0.9175873803845681
Ni 8.687679892977137 2.2734984034558128 10.11873480728712 -0.3186303870202577 0.5288065004911539 0.5528494003729705
Ni 2.3323067311369474 5.215996737503999 7.026965165235796 -0.2538126192139242 -0.011949716162708452 -0.28282494728587426
Ni 0.6444103887667127 0.18380914593522726 9.097915070279047 0.16826301817687797 -1.2082454505616158 0.3890331051135365
Ni 1.4609520766983162 1.0223365862875755 11.391636328240747 -0.02379041755137838 0.7552327572723252 -0.5651215328721042
Ni 4.106858158282017 6.846100491431363 1.6623820902886217 -0.6967692138187936 0.4350615081275088 0.05366149407919791
Ni 5.6851024306036715 7.787484372855803 7.9636254536276425 -1.1317070518842445 0.7060768643729647 -0.2494250316691898
Ni 5.391628596741128 2.8954787102148565 4.905532929923187 -0.6288545522546911 0.2364201347690896 -0.2983451544086604
Ni 0.8054307444273425 7.293647637433215 6.94545727370827 -0.19962147788350137 0.766195684041732 0.40090157441634827
Ni 5.111547739879989 4.421169517600313 7.301313900042498 0.671402967139863 0.7652320345768822 -0.6535607967521195
Ni 8.102444651651961 7.3401985971992 8.926959036390725 -0.17714746515070137 0.24346341476911623 0.6824111453249087
Ni 4.625777434078031 0.3713775184567842 10.295535622861452 -0.283654385165705 -0.9514706633955743 0.4713611138894915
Ni 8.2472528356907 7.229684005011297 4.8352504440856 -1.111989004630027 -1.5483597184872624 -0.23068014696151887
Ni 7.147487537815596 6.199578410530444 6.879765893176549 -0.022767889824134985 -0.4595170700667118 -0.26023934867587445
Ni 2.4461470356488872 4.9945980295366335 2.666291165959056 -0.7492413155755806 0.15627473546675022 0.055430155943846475
Ni 2.5320117004486065 5.164452702866696 11.362708939960998 -1.195180904068174 -0.23797205263724178 0.5007467661404602
Ni 0.8328611115227499 3.231186386761507 3.7693308033661994 -0.12228398034360231 0.869439874145064 -0.33874232727878434
Ni 3.791997019961645 2.686778995918405 2.3360776743249603 -0.4380894963205552 -0.42236437227581447 0.7872748733095345
Ni 1.1253165023158729 3.3705688829436897 8.206473654169466 0.11049315835626132 0.4169385732745529 0.21738831494861918
Ni 3.7353968210593425 2.6834532835943685 7.0867477734107736 -1.190418192572208 -0.70206054412472 -0.3926907564707818
Ni 4.084749832182121 7.0042926397009815 6.027409257729345 -0.30213238936523457 0.2385451515318924 0.4776091516817323
Ni 0.6801595430574743 7.234550901095253 11.199310114158598 0.4399548316640681 0.4738062329958743 0.0021080474819383053
P 0.16629733280351172 5.652620405628529 8.142127880277252 0.3146544330916452 -0.540047877732928 -1.049958055540211
P 8.531398452058996 1.6207845492036397 7.9662247366472965 -0.7460924855339538 0.4227338398000913 -0.5787568642673516
P 1.6954102891576308 3.1522615552666875 10.452509244555978 0.7172228536874552 0.4675923908756786 -0.6951833573889123
P 3.7443915660441354 6.235250956271736 3.9889098329643975 0.15592223722333792 -0.1618738268210825 -1.6019307097351831
P 6.949945633430141 3.997019523883552 10.406327808381551 0.4673468505237758 -0.506370797195457 0.27692452264103923
P 6.230726545467762 7.693904776485962 10.20794681506014 0.9986738034439381 0.18392643574574777 0.009147470827222955
P 2.3495932250055165 8.585844598805622 5.78445560777237 0.7363271786170739 0.4257826539287442 0.513261096557387
P 6.772673449957309 3.9880067533577077 1.5345206186696256 1.449437552798052 0.2484888930081656 1.639532836358673
Ni 5.481062318669082 2.808009772261537 0.4159339521054009 -1.3784779337600388 -0.36204783477394425 -1.0761838220059596
Ni 1.5299808861557578 1.244348162650699 7.0523316078807845 0.35411880973485466 -0.4747855661900081 -0.943892336827684
Ni 6.887955797753384 0.6310994279770932 9.087243949976447 -0.3850743775761046 0.42203527107116995 -0.13180451823952785
Ni 2.708680028296207 1.68920950303585 9.174344265615257 0.6677376024731339 -0.9094845487717756 0.10614233758673333
Ni 6.365557592534393 1.9172325973397117 2.589610514325172 0.08686806273815363 0.4918636047182174 0.22832218825230358
Ni 4.201131737982349 6.70543818183451 10.3703028633127 0.10088263184969079 0.8296389400980423 0.08788441981780994
Ni 8.15837790553535 6.904187797470429 0.47000246376699367 0.25198327931466924 0.876928212102309 -0.5545728108219804
Ni 7.791386902493494 3.876996458790883 8.353251128568104 -1.0272860678639921 -0.42923050326802853 -1.328597246879512
Ni 3.0843413165839246 8.389140882079069 12.278118016729957 0.23279899307673457 -0.7492294885010387 0.34902699703424406
Ni 0.08169535715446345 4.91531268722078 10.148507593442195 0.11578140333839414 -0.7692429555084882 0.8649134470296201
Ni 8.564322102789905 2.1608477846532845 5.7791398757162264 -0.04019456994101464 0.9049033571589964 -0.09071957527375989
Ni 3.6553363804782673 2.6497905856803396 11.30324268003148 -0.14400645962235845 0.26715021686309476 0.6873481776152098
Ni 1.0921585195512915 3.359284894245332 12.549828713603743 -0.41626211603281854 0.03697709144498148 0.24339322365281307
Ni 3.0997080903304894 8.15817962458378 8.035662725886612 0.2905274581364545 1.1259956033217642 -0.3233249642824496
Ni 5.502422584815332 7.758373124057327 3.4818171146523964 0.0569681898549277 0.3581240742395058 -0.019557096196321157
Ni 3.092957525206632 8.575389784995641 3.453192555462315 0.03966286580726072 -0.5486492462486938 0.38812576280791866
Ni 3.458182025225422 4.28781656489992 9.339470839527463 -0.5301527301064032 -0.13567428560757924 -0.5678034505796414
Ni 7.160249620880193 6.0851162248522215 11.456603082022191 0.34733701092633085 0.08729512297324321 -0.2961584311699867
Ni 0.5738719402461919 -0.07363703902730603 0.16903360993515806 -0.7651137638314629 -0.6244834197701891 0.19028220276044647
Ni 4.573223969141832 0.36802296526706496 1.4853974141955637 0.011329308969890166 -0.4741993546692349 -0.04023982135665328
Ni 5.869269383528775 5.64741102426459 0.46336906465997224 0.18916300155433874 -0.033866570840457806 -0.5097088604297545
Ni 8.050278735848373 8.907104804199344 11.1122494547101 -0.35231003866089 -0.5524909885922872 0.3241202064902353
Ni -0.06391496346107774 4.841371917826753 6.027699468940278 0.9724269539322673 -0.6507168995454212 -0.5954160700905875
Ni 8.042735046918242 8.539275613498583 2.5603929148344897 -0.42347046085579976 0.5775188780951925 -0.0968323730397171
P 8.448471950450703 1.4798248181794342 3.501300921975167 -0.7644486194436383 0.5537289747644464 0.5346878989725953
P 1.7374188125785914 3.180552641947313 1.5467752827536163 0.07030475906283376 -0.48402636806198573 0.4388502857459797
P 4.753145907149263 1.061154588942387 8.254594638561054 -0.059497898255316886 -0.19186265987368892 -1.0398050262666094
P 8.510560926603244 1.592926075508255 12.440751658314714 -0.23352018751347525 0.5593920865874947 -0.19745043837411155
P 6.361736177831435 7.760301856949857 1.2957002252758023 -0.7597748681170527 -0.07731975692808618 1.2404402901266056
P 1.8094849257032428 3.295276197970786 6.025826615225006 -0.6633939807924574 -0.5634703704219264 -0.47437830344926046
P 6.901249634279004 4.036774854673052 6.069423188812621 0.020441555683803507 0.3168357570136801 0.36827787484405605
P 2.4542224780400437 8.464983346054048 10.160168315948534 -0.3194436269501725 -0.2027453682244637 -0.07952267811667596
