# total energy = -340892.0744476169 ev
CRYSTAL
PRIMVEC
9.09899102912803 0.00000000000000 0.00000000000000
0.00000000000000 9.09899102912803 0.00000000000000
0.00000000000000 0.00000000000000 13.31729311123998
PRIMCOORD
 96 1
Ni 6.310896345197929 2.013297332855473 11.4045169417238 2.307894445569051 -1.076166852725095 2.7509531129694236
Ni 4.717926899551781 0.35008276713042696 6.0919555149171725 0.6455638945895721 0.24936229675205443 -0.6206799868636989
Ni 2.7419354296156326 1.627090661730897 5.009752467187751 -0.06811315072815367 -0.8760555796893688 -1.0310481060095857
Ni 3.071409892129967 4.12229785258545 4.619142794339598 0.5886998344126764 -0.46650070047339653 0.4558141672938279
Ni 5.064498366072313 4.491826073287801 2.8451862294880823 0.7688102388464437 -0.5397753407978317 -1.7915775929044757
Ni 7.274088230820129 6.323625833545279 2.739727104510628 -0.12977823183811843 -0.9474384023077296 -0.48224407935058244
Ni 5.023434619888188 4.648419707639409 11.481024897277669 -0.09699486675951037 0.5588734950798634 0.7692568394655591
Ni 5.800342863669572 7.704343117162377 12.618854626216187 -0.9143984411336253 0.4796122981546901 -0.8682890483700724
Ni 1.978311712629911 6.310395900695353 0.38210120640525963 -0.373796233559124 1.1041941911759565 -0.48593926881398253
Ni 2.812034055940141 1.613733343007587 0.3896560985959708 -0.18715008488936802 0.141306287082376 -0.5265493290258608
Ni 0.6763662135165156 -0.21950041822454555 4.902202394088622 -0.1323814737889204 0.792756465249396 -0.888778683682992
Ni 8.527201265271223 2.2499256916554673 1.2604340825742377 0.905220117068467 0.91369215909522 1.0465636851466815
Ni 6.8814667710716195 0.7584982553802448 5.003027402972221 -0.11059600248271274 -0.29321348960904986 -1.3615947848514551
Ni 0.8898340007372775 7.439425995480388 2.491825095916233 -0.08401850910450046 0.058531163466673385 -0.13563211951573417
Ni 7.564691803970718 4.2151348573088345 4.001300380752548 -0.2349695183654921 -0.7527524140526326 -0.18400254039932182
Ni 7.683561021819027 4.125291420609952 12.633996257065954 0.0010135288661788995 -0.9485591461757341 0.4620336658409785
Ni 8.041078574459547 8.938493854461308 6.961175751643784 0.12672813215788495 -0.5262150856148937 0.4142039479522093
Ni 6.813342625784549 0.7488724328479632 0.6613383200536965 0.17067625560406088 -1.1982418023816848 -1.416266208252406
Ni 2.063505564950312 6.7867098792565335 9.012491398410432 0.2938488092002036 -0.24740748701852877 0.3900504906344573
Ni -0.1035528863721868 4.830299437857554 1.5382535734317404 0.5782706686595525 -0.01352708795215735 -0.5188825565092224
Ni 6.5705178541435645 2.053014428378121 7.068526556840978 -0.06296888752305284 0.060762881010669546 0.6092072103374089
Ni 3.293334281545173 4.100023522725326 0.39968955592307814 0.8561444425877384 0.3398111348629309 -0.5453638906292027
Ni 5.7861120418144925 5.592312633444076 4.747362135294225 2.0045078720817413 -0.13758924324210497 2.1163385183025034
Ni 5.369259969150334 2.893906776561626 9.705390478493877 -1.076323175797301 0.9599892423895465 -3.404265026935531
P 0.2490921566114309 5.65150156961242 12.487386035591198 0.30606283476789226 -0.028129668356680584 -0.03022126077838666
P 3.9802080098176003 6.182409493909199 12.818453731421917 0.4705581583722218 -0.4972228121476017 -0.5787373238833259
P 2.207051246271111 8.688107821335942 1.1159866912497056 1.416092401678703 -1.1405200221901841 1.7986725520780442
P 6.5388533656169185 7.673843299478091 5.7176730714403465 -0.012731074413423237 1.052393404454581 1.3176551460457115
P 4.745123783519064 0.9334654821691675 12.701102225265057 0.6019939804184213 0.6286720039302398 0.17544590907856236
P 4.094955384762871 6.189770577592549 8.110391047965463 0.12047135261489575 0.16546462949613439 1.0713797157490967
P 4.669210901973715 1.0847544047934656 3.721944070322589 0.2936852870391458 -1.7386187813192573 0.44333377543862995
P 0.20902929943245785 5.563041179538839 3.588358144502154 1.0392434973361844 0.29668962108310837 -0.21582971221224764
Ni 1.7611460954846578 1.1685015175518731 2.6762161476382156 -1.475368156620885 0.005304957152681186 -0.06927400380547424
Ni 2.022714788494864 6.330013325196345 4.723084207625604 -0.506107002011109 0.7682263413185156 0.13373490249302128
Ni 6.078699194993474 5.549611068887882 9.162031494973 -0.715796919874206 -0.19542492330365055 0.5352178033341364
Ni 8.842827063550628 2.5747687677732314 10.362492308358494 -1.1535776267050908 -0.11205021843073606 0.5248670562274316
Ni 2.481667892312125 5.086772695932437 6.9677807091786965 -0.9411751950068372 0.24479627464792675 0.10479379397863887
Ni 0.49067855558331264 -0.011073471993370472 9.131508019912228 0.8528840266689118 -0.43673452495455756 0.4600683145844915
Ni 1.459050496756726 1.2793909203318288 11.524465299899484 0.30759212692822513 -1.0313970047085719 0.1332098832274867
Ni 4.336524495651937 6.72982298780004 1.7192224946551964 -0.17573670084610382 0.5303717880957446 -0.0693249116480677
Ni 5.745457750223384 7.8020025870924075 8.351008404400536 -0.9305233717199457 0.4768090243779401 -2.3701927893876404
Ni 5.26438499939225 2.7911791686691423 4.847028842629133 0.06832500962864362 0.8222642449005259 0.7362842411942804
Ni 1.083498744041547 7.366679562787703 6.895121626799189 -0.5447846210869649 0.4052588229437795 -0.13300959429122255
Ni 4.941661988167218 4.476949223074851 6.886159120707594 -0.0018437380769581152 0.7188470195544393 0.636746039187626
Ni 8.136254019858606 7.144773371354409 9.451656016696731 0.33289152492496216 0.7497622210760571 -2.560499160517803
Ni 4.552398056081447 0.38243604927243796 10.543806991238275 -0.1533498485104714 -0.11020545191251342 -0.6702331152014781
Ni 8.468385387732074 6.86770909674625 5.009792502747957 -0.515908561482563 1.4071336498235185 -0.21549058370527402
Ni 7.254225133563327 6.206467225996685 7.107585795317511 -0.03260415918826643 -0.02623733642997417 -0.053737598732771966
Ni 2.475844538100328 5.23494066465885 2.403558514350014 -0.9342296169269394 -0.7740285498225895 1.1343660867736465
Ni 2.513978409196643 5.276350172499302 11.311175852901458 -1.060455098416793 -0.3362223890704081 1.0980608245847088
Ni 0.7579313882436902 3.371594702757153 3.6836964618393244 0.686195037847373 -0.27460281648639806 -0.4906292180904841
Ni 3.702333925014362 2.657624179417957 2.6867109238067886 -0.8315878362942967 0.04006858588611164 -0.8134101369440054
Ni 1.1960987571212178 3.2630073446890484 8.431058597133548 -0.6962328816993494 1.3130029919856807 -1.0751898335238061
Ni 3.5683421841972924 2.654703403321103 7.012353936174525 -0.5238175319169946 -0.22525177685709596 0.27167330154442887
Ni 4.265679752069042 6.906953044739189 6.1067777711843885 -0.06249349054853108 0.7589773119164219 -0.4138889878149517
Ni 0.8446347631636802 7.34939147997143 11.189642450501253 0.4822877881043242 0.20311046487336634 0.3700221112286724
P 0.2749150929443688 5.602276028540822 7.988564658056474 1.0302983723277546 1.578243136310256 0.40439364673000683
P 8.606362486587841 1.6998006984597576 8.28102533526117 -1.258226410465433 0.5479766456617013 -0.5616158337116908
P 1.9834344445381014 3.152026951999533 10.515653803321522 -1.4733423844401077 2.0180668417130985 0.5064497300625085
P 4.009925314279677 6.006953651305943 3.8520805686716297 -1.9395985730028658 1.7015167342606374 -0.29713725014348824
P 6.917953724804911 4.13160612033337 10.636028904173038 1.145524417383311 -0.13375675686989222 -1.2182740384422115
P 6.16755084167816 7.9672857578069305 10.331302787159746 1.6094493867097317 -0.37022651392999467 1.7586990970089
P 2.6679242371800735 8.509440034925243 5.715755914045931 -0.7489512951389875 0.013721206240834432 0.25509431413982514
P 6.99089123630767 3.9662592566821546 1.8234168598897766 -0.43952211500202365 1.0447310028133168 -1.4948072391821032
Ni 5.532486767908816 2.8674833068255965 0.26085260242197433 -0.5146055264004233 0.6072475155078768 0.37176686183392105
Ni 1.1025247341304028 1.2332590361852482 6.924686068213206 1.074639360336975 -0.45663177809911676 0.07300364605123556
Ni 6.856371754015156 0.825200228380903 9.364987217942373 -0.1932016904000866 -0.11169154953973667 -0.7977958274455162
Ni 2.6678514452524262 1.6926215945955263 9.167877596662189 1.1823253882617444 -1.5051240477270789 0.512257337883221
Ni 6.293717450273127 2.147916904048502 2.564724391656977 0.36588880578658917 -1.2995682066370133 0.9153523204064623
Ni 4.182451281795123 6.88254045200442 10.471041450664583 0.3141882920885041 0.5829580468328928 0.06436319676741818
Ni 8.24229366045905 7.179213052122616 0.33271370329464645 -0.388966256431343 -0.2502416140332142 0.3600927679301024
Ni 7.8848034047913975 4.141796990204015 8.223095699441126 -0.9330759629384704 -1.931310364852145 0.4367450664775188
Ni 3.0724471770989434 8.468103319012439 12.434223361132968 0.3471506059471376 -0.4732753001930688 -0.168455079583026
Ni 0.23587496234884262 5.006355813863901 10.073865945942627 0.4257191476806604 -0.03440958782812138 1.045279162007303
Ni 8.537146462386058 2.435354028346426 5.615116524577834 0.02248378292481289 -0.22658412251527427 -0.13075422259814257
Ni 3.7788473399628026 2.602393304315444 11.41844658697824 -0.03353952651834224 -0.18936071938744165 1.3495684498145402
Ni 0.952828134923393 3.5662676142593397 12.779288034751197 0.5951473898102331 -0.5720671109520019 -0.650892248781021
Ni 3.2104151769637554 8.945054226940535 7.8223916060264616 -0.5220568404721461 -1.2181760794117666 0.6534497250955521
Ni 5.553414447107461 7.839308450011733 3.9139527972728785 -1.1198925757478198 1.101074414600052 -1.6816122820272263
Ni 3.0901629124901446 8.377895922675318 3.5141140178981227 0.25840846611472273 0.10547616475764415 -0.09041875620388944
Ni 3.481874473143061 4.491689588423463 9.323996263685896 0.25173516785960515 -0.5219545105663269 -0.609593390032234
Ni 7.536930782564166 6.244191642499985 11.345761117524958 -1.2533333440391898 -0.6047000664956746 1.4779665134756803
Ni 0.3705509472857983 0.061864039509388534 0.32497683128481664 -0.4766503873128887 -0.184168890773857 0.04160353447339932
Ni 4.591405430309532 0.26491894148018075 1.5183577198074971 -0.685699072047561 -0.44717011846558463 0.6603508230907595
Ni 6.066033399582816 5.52574441561047 0.4043864550545308 -0.31998895793068116 -0.14537788604858834 0.5700508518529215
Ni 8.04326233228897 8.858522822949611 11.306528088321167 -0.23494843531956955 0.2141538671717215 0.5679448612535122
Ni 9.005280448077857 4.831263930898882 5.9672929695272225 0.9444253265130187 -0.7356592060157717 0.09973206318501533
Ni 7.7794552875036045 8.616480564530839 2.9522977312231347 0.3578070572197192 0.6981344695974364 -0.4719843492957871
P 8.64598859220093 1.3963402510884355 3.5436520722383684 0.011312596799341807 0.30173926769187387 0.5703200463539081
P 1.649064724889475 3.1778680863143833 1.5601211783961342 0.46470401358429003 0.13184359900757942 0.3964329971220334
P 4.81178299126223 1.335031250027359 8.234468528236947 0.4696880970624427 -0.6160476302980099 0.23264986909337998
P 8.530476902015359 1.5651811272667286 12.483856536999392 -0.9791498744783974 1.1190703369568404 -0.8391707908478774
P 6.277503048389654 7.783922892062968 1.4215808520001938 0.7250775738451835 0.09716121713404557 0.8814638951891335
P 1.5598582175575078 3.2813509104562093 6.00980163547515 0.22695050471575753 -0.6691427103507767 -0.3143212181219425
P 6.850639389712919 4.058395639101932 6.16304320155859 0.9885981643754909 -0.31595489707062363 -0.6699101846444204
P 2.5030687190404795 8.660901838377702 10.190112834597437 -0.7826219479185554 -0.1464711191127671 -0.14746073671954604
