# total energy = -381171.7308577121 ev
CRYSTAL
PRIMVEC
9.21440520009893 0.00000000000000 0.00000000000000

0.00000000000000 9.21440520009893 0.00000000000000

0.00000000000000 0.00000000000000 13.48621341669665

PRIMCOORD
 96 1
Ni 0.8296714793675853 6.640093770187801 10.070155122747652 -0.6314020012668933 -0.9699926334591616 0.702642641880435
Ni 3.0065405754110235 4.167223891145558 1.8351906644088383 -0.29171633623823306 0.09685345608563965 -1.1695346642549795
Ni 8.760595586315208 3.0666461394494497 12.515138526394235 1.2931044532895406 -1.2795256861638415 -0.6675843647247213
Ni 2.1186405063104883 4.642991266279098 12.962961375380397 0.4166544663752308 -0.7428940332013142 0.21727955728489676
Ni 4.707049810077218 4.878760247890508 4.589802956099884 0.26825013479549287 -2.9453951035345147 -2.9955843227943957
Ni 0.2274677241160514 4.141967206946673 6.604266320533622 1.3140111215352208 0.29616665870010284 -1.9986845805317448
Ni 3.6872455329113647 2.052960227226339 8.482949898144634 -0.09824082335146951 -1.0422612011165855 0.2229043596708419
Ni 6.039489635650214 7.196984767242897 1.2015445948589258 -1.1541088166182123 1.541234420296391 -0.29794869030119014
Ni 1.6340918031793061 5.975274446966511 7.790163012763381 -0.7999308715106481 1.0778671232456531 -0.04035115012353696
Ni 2.661451892473247 4.040442892279283 8.73210741027081 -0.8174439406937469 -0.654203315432125 -0.0524726159774193
Ni 1.9612031818952567 4.233521535367002 4.214549075401477 -1.1289564857223007 -0.18261337336127906 -0.3349733471546554
Ni 9.017050907228514 3.2923161331433186 3.524136742197551 0.5636765728954615 -0.7151448881125039 -0.14253630283473517
Ni 2.6896018998528874 2.114199163083979 12.877215807893661 0.1862193455449825 0.6542459957446022 0.3332576500151293
Ni 3.447274782604337 0.7682694485408396 6.62170366062044 -1.0184311885765236 -1.4453875510983945 0.09081599164230812
Ni 2.1618007794909255 2.144892346253073 3.0129141793732157 0.029096403145324082 -0.8648334857213041 -0.6414935811749404
Ni 3.361580815785792 2.5280457363873445 5.072245246240238 0.005102354223571858 0.16679723226462886 -0.27284726724787206
Ni 4.098779290551134 8.1500859663658 12.905793363666891 1.5139097643395087 1.1863249963394409 -0.44283266743249544
Ni 5.408837326295929 4.811062014103857 10.338167150454915 0.36362546367370924 -0.06467147203645637 -1.4246505756613594
Ni 5.711364672380495 5.0503232552232475 0.6325937844950009 -2.01045586213506 0.6793713300573203 -0.0395844471608415
Ni 1.416078980068901 7.640649155237103 2.228812540102524 0.5158926206429632 0.4420903899498322 0.6492835095330043
Ni 6.876000967874724 4.207721201271096 3.4247971629637823 -0.40250645700962295 2.3362495996729766 -0.3718036286091274
Ni 4.255875681980098 1.0563578219367322 1.0050861080046432 -0.7148517823521173 -0.41471688303288573 1.1197095132027362
Ni 8.458049811420574 7.650609927079129 3.9563153743165613 0.44919100555035546 0.5478650597845016 1.1444754072935064
Ni 8.128773047521575 4.114830784120801 10.333513875912617 -0.5603878748418607 0.10784415076918845 -0.7199487372590504
P 4.357206494141768 0.6125008528773108 10.274862344988598 0.17307098108848257 -0.012983299633545381 -1.128864697339443
Ni 1.553788263305799 8.468333087438799 8.76394778686667 -0.2594132532301533 0.22921796059369556 -2.903867673714689
P -0.2331143115210411 5.365944270861486 4.128831151129843 -0.05617860407409679 0.4431684535053593 0.8212257763336824
Ni 6.353534988027594 8.777752808488986 3.111633629148179 0.19155875548002493 1.730905986056032 0.16320385848641572
P 0.14726277837641064 6.710934116091131 0.8336299877703002 -0.08760879755892009 -1.2987027733129246 -1.6112710132995025
P 2.6723248904136643 7.826393131917557 6.718911947969787 0.1333060424857188 0.3228230849453666 0.06822782192914702
P 7.792318262100892 0.4947564210281268 5.110492398656411 -0.025387843945485312 -1.1715025866146276 0.15698435993926513
Ni 1.7207072105012762 6.936410607279281 12.635313718291453 0.8723747884036718 0.8424787721751877 -0.425316512925603
Ni 6.89989392012854 2.0721814761277892 3.6663481837341845 -0.7678062230619616 -1.7245445626143785 -0.6868673813240493
Ni 8.91224626436893 5.33015552170845 12.30228577010301 2.9597169194738253 -0.618265206774619 0.27573770142178966
Ni 4.452336011715388 8.347209733263556 8.492807468650277 -0.26766032373029386 0.39759539286125073 -1.2763508879802858
Ni 5.872100753797989 2.8561154132268576 1.0028055427586657 -1.0037995547062777 -1.2746344195098112 -1.5179690220105468
Ni 2.178119490806586 8.844630960227589 4.15410442125779 -0.63607832369664 0.3853119475082074 0.35998863825207034
Ni 1.177462747301908 6.76313372061017 5.481336265105425 -0.1627048073628101 -0.4100680714069647 -0.6684148310458167
Ni 5.4119886528176435 7.198403785618172 10.531140749325244 -1.7961739540259067 0.7175254725295385 0.290168532135139
Ni 2.9554743427111982 7.872944306150599 10.230223159800161 1.389623408853897 -0.2816656368704504 3.296373824978491
Ni 4.985177411631085 3.6468772244563064 6.437751885719149 -0.3657733632546475 -0.8138461960401597 0.9213129088652714
Ni 5.149921759238479 6.318925682718943 6.00074490536219 -1.1744439286311386 1.5960691087480834 2.35796693674541
Ni 5.444322000082834 1.3258330971634356 5.51462053897015 0.8233266247267691 -0.2601280199089907 -0.8389553324029615
Ni 7.7257073281082835 4.249803389062525 0.6547277068277779 2.2127913965156147 -0.030369356320476732 1.2353376787927177
Ni 6.479634120921335 3.612102059857039 12.057457185461924 -0.36772611610564415 0.4637596473931497 1.0716085439304512
Ni 3.8989464885733076 8.261331478344326 2.573816450513985 0.491192803903438 0.4328467598643771 0.06648050022073711
Ni 1.520533475537183 0.653223915926188 0.9587864870290365 0.33799130804537275 -0.4059638194306041 0.219687395395441
Ni 6.264486977776581 6.286877982009814 7.933412917747375 -0.037391039053948506 0.12391483107880592 1.7733402439608426
Ni 6.954867060562887 6.075941821965714 12.312669483136109 -3.160760217405518 0.041974030438940615 0.43541580614313397
Ni 3.8359752445692283 2.784712988616438 10.689024050944134 -0.09416871016462491 0.8854480766478623 1.273446312738981
Ni 6.091431236828293 2.4780483746714927 10.038355289533943 -0.2703646100353344 0.22288841883124194 -1.2965409897749156
Ni 7.691374454950661 6.138728777869108 2.369325766791345 1.4219033519335254 -0.5472911895589027 -0.7846554334088163
Ni 4.289775478101111 5.899117389358417 12.232156776268324 0.19590314849164972 -0.6765438879108542 0.6153680877324821
Ni 8.585153314463048 5.4159139893622354 8.171660574312998 -1.0001215916340582 0.9150309325113016 1.405816730784308
Ni 0.8218696426250841 3.138435569071308 1.0931537055600111 -0.22597040019067535 -1.8433207869150383 -0.13318262953397708
Ni 3.078827582904731 6.245523732216091 4.014521849477428 -0.6346580463103457 2.237554719503224 -1.0547701322168739
P 4.48642931034212 1.0158052253809886 3.3350599152162075 -0.19458442968022618 0.29896967536653674 0.3413013462552122
Ni 3.7922068206565305 5.9567903504678 8.624447223291114 1.3342775850937407 1.1367484709628939 0.4432031633980367
P 2.7333058229303453 5.662408538433513 10.831708191459024 -0.6804247110224991 -0.21574178048413167 -1.1410226728582158
Ni 6.688460182212591 0.3854450126662904 0.7414610585341863 -2.323646051976353 0.7197535905291088 -0.17984660924941928
P 6.169670749974128 4.145837257061059 8.10402776280209 1.0057667057349775 -0.6760849459965647 1.3713714046222447
P 4.446696795834425 3.638786976836233 12.870985948650004 -1.336393602995479 -0.38431795902605426 -0.24132965625556502
P 9.144274197536433 2.1019347899833893 10.343898510386222 -0.3654329491960932 0.5255885077744884 -0.14522259141764668
Ni 3.3567063955226724 6.800157200037795 1.0046475023250128 -0.5931987507242945 -2.405362138199922 0.29577739368148415
Ni 7.241435057128129 1.4010502854580356 11.632263072358878 2.003894921088091 -0.3889971096692785 -1.0385873518094242
Ni 4.788247147239049 3.1904969575148328 2.869205397018516 -0.8201379425861425 -1.1960640780040757 1.8475481947328245
Ni 6.037637540238329 6.752656942086225 3.9501122368475023 -0.25354445315420204 -1.1830648375309303 -0.6407649305390319
Ni 1.0087009190995802 1.462381365366018 8.006454585013389 0.31602817351072027 0.952140178658773 1.4923163544394493
Ni 8.79100312292824 7.569569234802882 12.167558268335195 0.10954313573816618 1.1939645151625695 0.038656021809301166
Ni 8.740858330731841 0.6322206010911137 13.111175080356343 1.1524023754500667 0.17691400898365658 0.25339944293590555
Ni 6.1605300601801485 8.355880488400786 6.604158511994721 0.0569314230797213 1.58207819378563 -0.11382119428822977
Ni 0.47229723019764064 8.958760580981835 6.5456147896096 1.0179668473455952 -2.1823559628438933 -1.5985029150005567
Ni 7.9896539603144365 6.917742222679887 6.353206955208376 0.5751915155135965 0.10949428477810175 -0.24261597916715635
Ni 2.9589481734091114 4.89412987548764 6.170333265696089 -0.09067895184381158 -0.0556219602396784 1.0107289348362594
Ni 8.346629225746398 8.3981469642929 1.5391272234558002 0.469025009557147 -0.5535646812724402 0.014026396186079069
Ni 8.028446605508638 0.6336460695499125 7.673574067305492 -2.1006033669554336 -0.6212559139718268 0.0009217404833209931
Ni 8.134817697224044 2.833328189577152 8.022516214428594 -0.09051337280022476 1.9802492566446925 3.9515780708713044
Ni 0.9835732365711747 1.5452096522189103 5.118085068404635 -0.06292697854152389 1.100378416974292 0.29618851307697375
Ni 0.9499314437911202 5.131428448334735 2.1434180414475925 -0.8607999390818788 1.367933325474973 0.1321575307035724
Ni 5.887525667825327 1.8655576576397197 7.826697207283687 0.3062764934405951 -0.4744500372274604 -0.6146872596153736
Ni 2.0241928547094044 1.2464141401732165 10.63091248415512 -0.6029810269220389 -0.4969924413043505 -0.8847142838056312
Ni 8.822728319461172 0.7886065618919373 3.1560977406409627 1.1109682766749962 0.09457160202999841 -0.42708491767993545
Ni 1.2823318909967314 3.917495085907257 10.703778156284978 0.48369675263670886 -0.21180953530926103 0.3536783797633264
Ni 6.934613798297602 4.6898373014732355 5.709914325028104 1.1996885621305402 0.5964581382018566 0.4743047698988476
Ni 4.375368086464279 8.36150127547168 4.900242711787363 0.00360725773528411 0.003860768506986899 1.0318803721028937
Ni 5.177592617556338 1.0621905403234138 12.279048883487633 -1.8000750888525257 0.8335279907398032 -0.11556131690778809
Ni 6.428724533107092 9.183306417261525 9.546040685839895 0.48539625182631885 0.3064860383482399 0.210281785810825
Ni 7.899583151104621 2.462798534339805 5.97022495300774 -0.8168728986816255 -0.5771424685923802 -2.719379966148833
P 7.704873558325839 2.0936049678324253 1.3988305352852843 3.5900927934690494 0.013288489578790016 1.1064634468261074
Ni 8.988559966862606 -0.07790871600510516 10.099339907812638 -0.4714649864572074 0.7876731371892177 1.6390219581605256
P 1.9526706428335392 2.8807086602632763 6.8314548481771356 1.65667875201034 0.43332344239047954 -0.8001661274499059
Ni 6.6947259776358825 8.419579670402571 12.263782457226885 -0.7802974135504368 -0.452059328237086 -0.6299994644924117
P 4.54378898168034 5.548389490539678 2.4109030051868974 0.6819123513116192 1.009348509548965 0.7995313220793844
P 2.3650521257364585 -0.05553890490345126 12.363674900762708 -1.3297866392019226 0.20498479907794373 0.7929549544134472
P 8.527397423708356 7.90926749079562 8.457797336722637 -0.3182799456593744 -2.197293557990332 -0.6402247417648458
Ni 7.436531654918349 6.593551810359794 10.12539455948749 2.2344267153972033 0.4144880548515313 -1.0719628419460765
