# total energy = -340896.22606382694 ev
CRYSTAL
PRIMVEC
9.06515881632732 0.00000000000000 0.00000000000000
0.00000000000000 9.06515881632732 0.00000000000000
0.00000000000000 0.00000000000000 13.26777624799586
PRIMCOORD
 96 1
Ni 6.663063765128453 1.999012500671501 11.657479321816908 -0.7768516210936814 -0.4944604189111162 -1.0122212031110696
Ni 4.65594701272193 0.32969528353122746 6.008325437428877 -0.3264933347081022 -0.32981571421311584 -0.8846029550387474
Ni 2.8337504293788656 1.7539903304858908 4.751761205913568 0.2696156476844518 -1.1316456025186898 0.5786326799846616
Ni 3.5455920037554622 4.343325955301347 4.945483643919654 -0.14684110085767615 1.0665390998273439 -0.7868406139855932
Ni 4.977560707414485 4.794163484985794 2.5146550357288042 -0.15890908776580373 -0.6547964689314336 0.19501020436373512
Ni 7.1793064136811235 6.029563290857078 2.5790965282441927 0.2339945560467325 0.3192597930741405 -0.484023025627876
Ni 4.877671725458984 4.6111288688987155 11.313565337115229 0.806134943438831 0.2568732604171189 0.5409961005788101
Ni 5.563197144593106 7.750565509414839 12.466694296654072 -0.027882585342881013 0.23138462922771116 0.2761544772442341
Ni 1.7326690775991191 6.6415974697050375 0.4174732136768956 0.5861832386384098 -0.14132042814976306 -0.2688252905726725
Ni 2.6851362202692837 1.6991914471098128 0.347216421957908 0.23537626688560753 -0.3330540186447554 0.3740888250988783
Ni 0.4921837177867297 8.942370967865848 4.793302294924467 0.12826488051738555 0.3546661975978924 0.07073130507729108
Ni 8.910280306633208 2.1927349386775865 1.2024624588309798 -0.13527576461757995 0.2452387615019841 1.3564554067423606
Ni 6.876385075898654 0.8182003599823058 4.7076456118772265 -0.2533408217838282 -0.6117109505958691 0.5649721517784335
Ni 0.6976310318488317 7.510148439767698 2.6067996527433315 0.6900403797353922 -0.6271375695635845 -0.121125698369443
Ni 7.658590410865015 3.8699161808515656 3.823508008220384 -0.24165052993009348 -0.11289276893668944 0.08139264144587918
Ni 7.634993803184629 3.751769969595912 12.901637883869824 0.6250130670214139 0.5983448137016082 -1.1019676158382827
Ni 7.864768376705465 -0.20543734238770772 7.275769672224248 0.14625231823374168 -0.7565679311439809 -1.2134714748472457
Ni 7.010395314599823 0.46297668348575605 0.2697600813262188 -0.4559054414560535 0.5438896200765213 0.7273018351900119
Ni 1.6923381872533505 6.522517547119733 9.295721782607973 1.0159413322751343 0.34378246080585306 -0.3167925624805705
Ni 0.0179218184341615 4.817624115288075 1.4128593494560824 0.012252335004791802 0.0893571477085945 0.6099965390079236
Ni 6.583788953693581 1.8872300307111343 6.910958684055483 -1.026723767602619 0.5632528550944816 0.6464820355284673
Ni 3.4208463570824743 4.3604953655766625 0.5255289969613476 0.03894244270146841 -0.25475261452969034 -0.8386516851196137
Ni 5.873923583878768 5.722671413633961 4.69817252120262 0.029006671644995204 -1.4978845925558462 0.9912248033650607
Ni 5.348642972261426 2.69489033085864 9.379680561460617 0.18952732687229293 0.5126923685381105 -0.1047742535946131
P 0.07477667976717825 5.626290648033554 12.597740228512565 0.3634891952061611 -0.9212954253637746 -1.3414476204796189
P 3.8875116535782768 6.17200412700072 12.703828872393775 -0.10477476781524536 -0.10575050146495335 -0.5200421240349624
P 2.3569684159520956 8.662457002458646 1.3948677293011607 0.6486103947253797 -0.48357951033255425 0.11760817213448778
P 6.332312390627282 7.812625584781693 5.903311014834695 0.19852798770900648 0.23973300119240648 -0.6447869072142315
P 4.888069462304701 1.107300050538388 12.646007665160363 -0.5774515151923668 -0.6298248865877605 -0.7524099431115493
P 3.8849552788699135 6.146485705709793 8.251017558306172 -0.08514053852408562 -0.23546214173119445 1.1844565756721344
P 4.784554416933083 1.1003833345721437 3.640452542268662 0.385555173867265 -0.017943728962614258 0.212193401011241
P 0.20395609548222365 5.612701975381653 3.677601561966788 0.38710529196320426 -0.14452659379188657 -1.117386007275882
Ni 1.6494599873577593 1.2027380396506047 2.671811343730905 -1.0823069041845619 -0.025703061193058957 0.14314591139427604
Ni 1.964646484645246 6.7172915435164935 4.789175834756925 -0.4771908331973911 -1.0877329602961399 -0.016928400324222458
Ni 5.866354176497623 5.634349573975875 9.294050167373143 0.08814384412678368 0.16180774946983745 0.04992773806837853
Ni 8.743109717991643 2.2401366526847846 10.169285785343419 0.16391142607640158 0.05344680696523053 0.7778813479097765
Ni 2.3186409256437317 5.313125681100552 6.883773180108995 0.4933347899471053 0.17883436593482105 1.3055714754082999
Ni 0.5253431612112716 0.006931220219908895 9.073566474840256 -0.13611960067511394 0.04598906513560467 0.03228688505816375
Ni 1.599030510398103 1.02938501288456 11.455198467632929 -0.2962257940728124 0.6456328001542945 -0.6184652386005671
Ni 4.202544043170578 7.037065011025368 1.5389430135296174 -0.17598738340432918 0.15187120708241586 -0.15222833331151847
Ni 5.715083875935735 7.8167049061248255 7.943244547672937 -0.5161479311868788 -0.07193586690835353 1.2907372386089448
Ni 5.255743227540491 2.82618102199772 4.966406936346507 0.32085927635077643 -0.5024192687468767 -0.8191082157700474
Ni 0.6514068819360179 7.396018093745395 6.887753691224038 0.2932086045130434 0.4366789891262738 -0.13133297791974802
Ni 5.239888265253517 4.575620642896383 7.241552324798053 -0.6123503839520809 0.13986775486363653 0.079956680330301
Ni 8.066042091775616 7.15916363140459 9.289605520140837 0.1968112621282159 0.07363922275270543 -0.32731994437445566
Ni 4.505229686830999 0.47448218270509734 10.473847916821681 0.2276706707112337 -1.009798709712506 0.1068578755965192
Ni 7.98511742148641 7.0364848408787894 4.673666678120642 0.34891155450230227 1.0277414102338558 0.17167872872664627
Ni 7.3408837995033265 5.99633041964836 6.845840930712988 -0.42371677253865087 0.5156028573166862 0.9372789452762246
Ni 2.3896392473313153 5.44063620112833 2.4107946078167997 -0.8687683019993361 -0.28325894949949926 1.3620413854705704
Ni 2.2322227692791077 5.0999584780255365 11.471425101420056 0.3190690172195731 0.9077030313913206 0.010710958659600908
Ni 1.0462008819768056 3.467513793247909 3.7953534388259382 0.4558108248597182 0.12371377081159339 0.15115695462421067
Ni 3.454015772181411 2.8591238081331487 2.7419049625961676 1.0317219921481586 0.24918900439898373 -0.3813712176929045
Ni 1.2399233199828914 3.537659990032705 8.237139707096835 -1.186528113489182 -0.06728319862769057 -0.46041824172474255
Ni 3.940044247319281 2.6463282765582843 7.101948883277524 -0.419822065469935 0.00831546184423084 -0.6238103049625644
Ni 4.164434116667182 6.80505134334508 6.2380175180069966 0.14576663684657476 0.6495974412289974 -1.2415196392337133
Ni 0.7498427189775098 7.41835464438868 11.416018852421779 0.7016303985658369 -0.6161900694131452 -0.19575299606703062
P 0.10482586729654524 5.704985289321847 8.07263246203441 0.06853404031565616 -1.6467301254380609 0.0965130420270854
P 8.480727769201371 1.6736639606603447 8.10379847709594 0.5324078446891669 0.48535022907973185 -1.1239834579877417
P 1.8153705189622225 3.2212134357081172 10.361390092550062 -0.08278103715297357 -0.701888794433546 0.4653604162213663
P 3.9142538712721437 6.285672149937469 3.787060631793277 0.007915655302650884 -0.2839364351824981 0.07833559978711024
P 6.979546580087202 3.77358074104386 10.436552041555203 -0.25546455299505033 1.5049800659500467 0.055935377715039154
P 6.235840973441472 7.779274866511951 10.33974974608267 -0.5472063431545802 -0.15888286251355863 -0.29825747979086054
P 2.3466341352161604 8.559775951672735 5.898879965340198 0.681935748350387 0.5640370415586737 -0.19840817430169055
P 6.858979971501291 3.8886266680787327 1.618814312396441 0.5657465680506127 0.6732814151094986 1.0418871056066186
Ni 5.225973246894164 2.7686897865351745 0.7169443521189284 -0.3016886169595966 0.41611042094630274 -0.5368247428099401
Ni 1.6134441124771708 1.3358145670221224 6.951319489424434 -0.8444904032885778 -0.8426983443851616 -0.09547817300466782
Ni 6.78933235843621 0.696408141961746 9.310476234648156 -0.1489674031720596 -0.42168611526186733 0.20383654440611343
Ni 2.7852337008712116 1.6091200318534504 8.959954655886458 -0.034174846109495984 0.12567295142049323 1.6251009772040592
Ni 6.742093817282738 1.87539093365751 2.435924133806349 -0.546968001891529 0.12652527211845951 0.6144643449712901
Ni 3.9320215820111204 6.865796970723592 10.57059582134297 0.3009828491418236 0.581864813768714 -0.9695203218084335
Ni 8.035356530116719 7.167993095822836 0.3724021519304072 -0.07584600059603712 -0.16638611286913924 0.014592553102194225
Ni 7.631258957866028 3.7859002915001194 8.21480950206453 0.20860465521871815 0.3738669388960593 -0.06579915788299635
Ni 3.1418298423707616 8.351068806599544 12.450958087943977 -0.0960705551730281 0.4613222415962507 0.2695662825037551
Ni 0.061372936349499335 4.676588378718179 10.199178145630038 -0.4009198292487934 0.8253120305879141 0.4144595156064411
Ni 8.697865511717035 2.466339553740744 5.853796212371754 0.3351659227814357 0.610999012130509 0.3222983227901482
Ni 3.7053563578696065 2.631552068137605 11.415408767252018 -0.4579384127256823 -0.24879768249783604 0.36369231235590266
Ni 1.100673419645433 3.3258163001045715 12.582853425157696 -0.5172542768771801 0.0008659475447210894 0.04602660324175944
Ni 3.210688786642836 8.47236969302722 7.975631639589846 -0.20218589617656796 -0.9025163449840586 -0.12293575499498827
Ni 5.590002818396756 7.799825580922798 3.7738200612293236 -0.027484835683830082 1.6757794773955332 -0.8985571032259945
Ni 3.1571862209380197 8.418558911932033 3.6584967403431174 0.38727986986785556 1.010754388757556 -0.5274047350476208
Ni 3.460733054659769 4.09872984756713 9.210092295036356 0.08822817631047386 1.3896879435432454 -0.2709369375990366
Ni 7.192423698088929 6.02284600837872 11.35594223374354 0.561340468563117 -0.7359679955054422 0.7241542906999657
Ni 0.5617470248773848 -0.18332107509695214 0.21430125440840733 0.3076137241947799 0.30008707680043156 0.5043154573283251
Ni 4.58384274169243 0.45344013670136657 1.4379217932724337 -0.05854530453406047 -0.601823259168512 0.7604667519777548
Ni 5.969615397430113 5.4249081510609205 0.2884361209509328 -0.7105760377948989 0.6891939725746968 0.06788843631185727
Ni 7.959798433683368 8.76491142428105 11.374795950475644 -0.23282753232182485 0.27459201785312065 -0.2426157220568402
Ni 9.338473070284001 5.088645160167249 5.798774326095584 -0.5162790574481044 -1.28632445425323 -0.38566958795794226
Ni 7.881357616834203 8.839019095347956 2.696184835498194 -0.006964604243291231 -0.20740626403524282 -0.34404111378387847
P 8.740734646454086 1.6442565863556304 3.8072278899978693 -0.5980082562977959 0.13145844775401874 -1.0608675033638633
P 1.7207574592771726 3.390849747472642 1.5975991218645906 0.37255233384969383 -0.49424264647335525 -0.5720817662400213
P 4.8511198760944625 0.9228965955117248 8.108680971485743 0.509783936642064 0.43495866400105737 0.7092192666566882
P 8.711961833247193 1.4953160315385978 12.498722408292787 -0.35971970086139987 0.6055986670505441 -1.3555966582864911
P 6.279426255703205 7.8273745977267515 1.4465191896320484 -0.08030660747055202 -0.5292960385330626 0.8108392908930359
P 2.025727522889748 3.2832281852822693 6.057111401145178 -1.1794562942440656 0.43719938040611805 0.07014432222556952
P 6.777366349163022 4.060148532819638 5.914814701022327 1.6904949292288372 -0.8269138278573952 -0.22804682310372984
P 2.391814885380986 8.687875707005633 10.000599502193916 0.3992604392684995 -1.2299028809303916 1.568623610942621
