# total energy = -381168.9018750329 ev
CRYSTAL
PRIMVEC
9.21899455208555 0.00000000000000 0.00000000000000
0.00000000000000 9.21899455208555 0.00000000000000
0.00000000000000 0.00000000000000 13.49293039722800
PRIMCOORD
 96 1
Ni 4.048143494621209 5.635184193981838 0.6597601134014908 -0.5026200719037731 -1.089237569866124 -0.00624109581370538
Ni 5.200185934338557 7.281927102295523 12.974222045851679 0.3355634153301705 0.892953640996288 -0.8578832796557161
Ni 0.20753431857127685 0.9190461799929759 1.8952169380521515 0.7192571105086645 -0.3485554567144642 -2.0226130663228843
Ni 8.858467366820214 8.3738893542817 12.520643824515378 -0.21798249688919236 0.11937554844755568 0.3955490518551833
Ni 7.537053558528821 6.596301255777975 3.1166645785266134 0.8093174549318708 -1.0493435618846636 0.21279812447477547
Ni 5.4071431438486135 8.905382830279464 6.144545629671757 0.29918590514240084 -0.4532116966739744 -0.6143180492014129
Ni 8.23923671932674 5.353894231107285 9.820950683614319 2.236449659364503 1.032696440246286 -0.46385426398948504
Ni 1.1795242625847127 0.9653393613175226 12.657137492689598 -1.2996661656674584 1.0347492090102566 0.5510545132560768
Ni 6.621690366873823 0.2957619405790788 13.04592277626125 0.8170549327854445 -0.18337159168354225 0.000649460658540817
Ni 0.6207849699810415 6.518022772729737 2.681976077101495 2.104974756550252 -0.5287975016300893 0.2457000174091188
Ni 3.092299697729512 6.983250115627661 11.854321630766021 -0.7117471752848644 -0.6218986897621482 -0.21763616929336713
Ni 9.074431534042924 7.951834563040223 8.416417498216434 0.8724125836201427 0.658812274959046 -0.15309196686339438
Ni 9.36806573067105 5.89926229396026 7.232426632753748 -3.5502077843486535 -0.35619728953043817 0.5099587716570314
Ni 4.984525993937258 0.5974802735615808 1.2294054766029792 -0.7690665778316239 1.6460302711575587 -0.028658801387273225
Ni 3.660180545366823 3.3678001320026887 2.3246155803825728 0.6844569721103438 2.3704069622809754 -0.5521670295939652
Ni 5.685556780411655 2.343062788553521 3.0553121695422747 0.054353377939899944 -1.1611924629378712 -0.9912965371432606
Ni 8.972312730989652 1.6561278448044514 10.640160683614056 -1.2054799720013367 1.2870572186541964 0.17125578225661472
Ni 1.76094781327206 5.349100353921432 5.982238776650634 2.3616220169994944 0.6470291662811889 -2.474391887205074
Ni 2.34301669358058 7.552384746528964 0.7023869005783183 0.7871707436315024 -0.025017347979944014 0.19695858633935756
Ni 4.331710549159044 4.0076997653628625 11.434435147051685 1.3467893444075063 0.07537291761436052 0.6545177613487503
Ni 5.105009034210185 0.016225430475197113 3.710393643190264 0.9352614006255634 -0.20514652146678863 -0.42117420862245536
Ni 8.126829518313059 3.645291869106912 6.202457509875788 -0.4442783987400864 0.059126630958827205 0.2483981330665722
Ni 2.1639930376727095 5.595911277036191 8.334420994650783 -2.159919488217248 0.9765216928269311 0.8888259919811596
Ni 5.835125748610291 6.996239679002406 4.3866327094181266 0.2043718480842932 2.597652886749965 1.2278606536893821
P 3.5365722659285033 2.539132365454937 6.447367476306464 0.6016931613485508 -0.7181139980431568 0.606980377889419
Ni 8.16351189777943 2.093126626273368 3.4976505926766652 0.0855863678122526 0.2864946828279775 1.303032768146846
P 3.5045639167183413 0.8524048338133978 9.9756472566029 0.8238776121342327 -1.8836570246402398 0.5466512419820585
Ni 1.8757335148894916 7.427172362032301 7.002614613760134 0.9273601435006158 1.4021791340317207 -0.8774480891615211
P 8.75773141295517 7.936337433137492 1.4234772973771366 1.4609707502486322 1.3623913126108216 -1.1214920590244557
P 7.588836651130628 7.529125223182986 9.820600361819968 0.8000771672805254 -0.0742694001375366 -0.01887523963794814
P 2.360256213460477 0.7939720804151356 1.3508445266147002 0.3264074598625153 -0.30488372685812654 -0.06351756093767125
Ni 5.760931280164616 3.044858751578737 7.222900645645781 -0.2575471465556919 -0.7064617585162091 -0.21235280940724072
Ni 0.1767742212283549 1.6423085719167694 6.219795672997779 -0.02294735282479274 0.9404917957865673 -0.3571475692588494
Ni 4.551463723157494 3.739924848554581 4.626455634635046 1.1570488730831427 -0.2270860018523573 0.9027127772655809
Ni 0.7355918752860257 3.3250332161081206 0.2728462857312393 0.1031302902332869 -0.9286382388820911 -0.47085306390482135
Ni 7.214019988158988 9.332111651777147 2.3534774867397883 -1.5114271071269714 -0.14161507657204642 -0.4650966210370183
Ni 0.5091927280889557 4.40224507675321 4.370090145529096 -2.1996787703930565 0.17001008277497173 -0.6433987686174533
Ni 4.81861174833378 8.534908313758855 10.76189381955314 -0.4808081182350042 -0.06569734219780943 0.311002952381987
Ni 7.670609133127787 0.5580469461100989 7.611659194133128 -0.6351884648925189 0.532807908341063 -0.051839867489426844
Ni 7.147209934378446 4.1467682987255605 3.9593793271283753 -0.9248726011920718 -0.3633886650725548 0.022384024122154997
Ni 0.285619202733163 8.580440928029876 5.827002892478645 -0.07138050862551577 -0.5354962538065036 1.0416654765141158
Ni 5.796452066312874 8.306526160825868 8.425363610564805 -0.20619630288754168 -0.9673353983419727 1.2668200656717152
Ni 8.657179838981888 4.546042954339645 2.0995541093002474 -0.4049520903366381 -0.6296446522561543 0.758283628283507
Ni 1.4055832288814787 3.584621665722098 9.421398536263132 -1.2229485610997453 -1.0134625317173385 0.307919942581289
Ni 5.851000857291137 2.093071312305839 9.71266990457831 -0.27950770998718316 -1.6721166838319654 -0.2980222238516028
Ni 6.240162275841986 1.6961935952846827 5.201511625760337 0.9406545466166768 0.17201991411614892 0.542125329087247
Ni 7.421530337344335 2.4315282606216977 1.2992153912225148 1.1327223805226363 -1.6292000869740972 -0.6686696273691001
Ni 0.9593470148352056 0.9730187838094768 4.127258140478595 2.018155030551531 1.6131301779954281 0.5655501357690905
Ni 3.8556232306362426 4.5531139231887785 7.4777007494706575 1.1523905483755248 -0.451337619579713 -1.0636792617810455
Ni 5.673396926549846 3.2787538632754565 13.45373329896453 -1.5157126218762025 -1.5597543334774493 -1.5653351699993365
Ni 2.647446332871466 2.418363536349777 11.122843270865241 -0.986186983830837 -0.50650475167016 1.7120963095486965
Ni 2.543290132014206 8.298625482463798 2.8924392702534365 -0.2713128328812166 1.9695868918348405 0.22107990486759344
Ni 1.691104710272007 3.579376057801424 7.2290939662101215 -0.8822627369413452 -2.872640597379607 -0.952716105766901
Ni 1.4139632949621348 0.31860568726913047 10.27353048783672 0.7201081456550501 -0.18926764545300306 -0.5522827292362231
Ni 9.031369610321534 8.44243257904482 3.5557376337778708 0.4128168377966955 -1.007493458618097 -0.5971978445813586
Ni 3.308051828076693 1.5155105203509394 3.486613612355696 -0.2717481206464223 -0.17493965886610516 -1.4754851418147235
P 8.20195510521214 2.4757517776611984 12.573346972777088 -0.3825606100153153 -1.2591023853124832 0.38894645893700114
Ni 3.2759144129422966 9.204834212492733 5.063950398012807 -1.478961787509414 -0.9014364816563185 2.346074813293514
P 1.5202306455800876 5.438091308681135 10.420144768269843 1.2915322237064144 -0.6648782786474678 1.233280796263689
Ni 5.4370126863143176 4.2067194205324965 9.47685447630887 -0.1292331579679258 1.368528535856811 -2.1565125194182277
P 5.2184856385960945 5.367353963206028 3.4120651345178357 -0.05309713693529565 -1.5029103279052116 -1.5362145984842963
P 0.22944141541116944 1.6807886553278335 8.400455730986458 -0.19750237465796955 0.19795000371834942 0.530624270426183
P 5.910518686352428 5.226690543779575 12.63961034017855 -0.3920065859195636 0.8868228455082018 -0.2224353904542234
Ni 5.0968594429942335 7.676094434907754 1.8165401944377042 -0.4568539214122519 -1.142297682915897 1.1369891262187901
Ni 1.347669504878531 2.970138800441537 2.556856804450172 0.006580738541311248 -0.8845425341144573 0.40341045688113103
Ni 2.827760648021682 8.06178951149345 8.977993475454888 1.0857231289549625 -0.478604425715466 1.0503624900674815
Ni 7.849623570041071 4.405176717032251 13.49535890332908 -0.48136244807657746 0.05173033849475607 -0.45416171929206944
Ni 5.899750900673433 5.265308912109462 6.073977913697074 -1.0110469802973103 -1.200889524417177 -2.0241307885189914
Ni 3.815843268988245 5.85964827421485 9.775195891573723 0.6462606635462805 0.6033983169651156 0.6560938475866185
Ni 6.087744638315604 6.294028861220723 10.51451408447229 -1.4346143717422903 -0.4007041136935615 0.7599345336233686
Ni 6.967863613659989 5.312187499590358 8.00039008563671 0.3199599044649586 0.3291785948497492 0.3437330956251564
Ni 3.061784825642636 2.5056397581160783 0.24055214768884417 0.779652066656954 -0.3195603550336948 -0.7091133372064433
Ni 7.024726372279884 0.23055783565579804 10.406017580962915 0.5098944940779992 -0.07890587046828346 1.0840516547898105
Ni 0.6513911101143408 6.284763771659602 13.41276869651195 -0.4513849278778807 -0.9950832578792023 0.3053141295273258
Ni 7.76902190035661 3.1588884956399377 8.548837292682137 0.5905775110513635 -0.6445927889255544 0.9583324235124141
Ni 7.0646169618629395 3.788066438294058 10.979791209940991 -0.42367666332933485 -0.9664095440935937 1.612505914147868
Ni 3.5908721440528844 2.687401455416639 9.041517879564202 0.4181449348778283 1.769121835004121 -1.2559324722249339
Ni 7.157968501062853 7.424591043547611 6.768080625738454 1.4001914141777303 -0.545362347967306 -1.4006994641624004
Ni 0.16023626683661849 3.9853805794648784 11.368981207375063 0.7311374068860182 0.09440730853799224 1.2122967378128542
Ni 7.905232545396973 6.11927359980718 12.10050013085203 -0.14365010472420423 1.5818365100884693 -1.208531614343467
Ni 2.408204204313602 3.288913195311631 4.671994702202279 -0.8341517403667311 -1.023757228775127 1.0521249812845428
Ni 3.1878361386468232 9.184183664615208 12.83617589898881 1.5294546540526432 0.3350008579584811 -0.26810203925340276
Ni 2.3871295826850223 4.472973203233728 12.427690545881676 -0.9832590115507647 1.5015283599560205 0.19222595675037865
Ni 6.1731401851859165 4.2672329010093115 1.7745633463793433 -0.588132906165613 2.8663707052104956 1.709879761513352
Ni 3.281445809695205 6.165866398455843 3.0543404875126803 -0.1774184594239009 -1.77621807972927 -0.9437858931568068
Ni 4.991956503575332 1.5443751924065314 12.0359911381207 -0.877591813828237 -0.16468944189300672 -0.9895993519464958
Ni 7.134284903965817 6.883353090270141 0.926563348180178 -1.0700221732799378 -1.1120270569568138 -1.959109903562916
Ni 0.8812234108960492 7.327948323279718 10.6191930023227 -1.1020169810189795 0.5802822997729425 0.4069140991590154
P 1.528131323942158 4.911419366852988 1.6057939781519055 1.8129360039755937 0.2773371846984256 -0.8244103447092512
Ni 2.0251457601801275 0.6655210631196445 7.674630458567151 -1.7905131561957035 0.3256772665647101 -0.8225210981063383
P 5.014017557624847 6.341276208485147 7.655848600892652 -0.23942729702652957 1.7594187487837443 1.3518402765678526
Ni 4.2231015739156925 0.7230051819747833 7.875364846730186 1.2617899594469753 0.687920505178912 -0.8769891472472315
P 2.2790368711386098 7.088862917629854 4.702178612383441 -4.713258640651502 1.7029876623792093 -0.9115175200414043
P 7.832762028939288 5.611445282917274 5.303045944556719 2.109215019883845 1.6189151601083214 0.6650058053642677
P 7.654577301538941 9.209637308673175 4.869827872768415 -2.0668890054221243 1.1385235605854456 1.2362835876457547
Ni 3.9380871372275146 6.7709827652348125 5.588866121371904 2.7599864268162855 -0.8168875539696449 2.7744452825540926
