# total energy = -340858.18081292376 ev
CRYSTAL
PRIMVEC
9.41504119105696 0.00000000000000 0.00000000000000

0.00000000000000 9.41504119105696 0.00000000000000

0.00000000000000 0.00000000000000 13.77986447006344

PRIMCOORD
 96 1
Ni 7.9900462870245175 8.0843849976969 0.543235625296668 -1.8807007702253933 3.024714921611765 3.258019393570008
Ni 3.2199910921664956 7.5220245996468575 7.400696732486106 -0.13485076126501935 0.5584865440540898 -0.9628472806636321
Ni 5.2116865223539754 6.0181695181110255 10.464911264030853 1.4048476820028193 0.8054250618559999 -2.4295094248700866
Ni 4.622502672536905 7.645427541840761 5.829337690094102 2.230950841033461 -0.7411533963611237 -3.295847005940743
Ni 0.4757853301741114 3.9340937057760983 6.08764122253312 -0.04149786213347047 -1.0482405586284722 -1.2303245418488424
Ni 1.7914751685947763 3.16037505264778 10.100654626360027 -0.0665972283042595 0.2393164824802782 -0.5693525402343163
Ni 7.860975490157481 1.5691766358916195 10.989855347701344 0.38811650683653803 -0.4219892483245829 -0.13875703829796104
Ni 1.9655781064943474 1.7850541106428235 4.360086650195523 -0.5141244729989467 2.8460577046847564 0.4881308771486625
Ni 1.8232038567151283 1.624857188278493 0.09499964654954861 0.9209275005013946 -0.29048092116923524 1.3495748775724434
Ni 6.625929243792029 3.746772050333211 0.5021408544041714 -0.7509099615272552 -1.778981244296704 -0.9262730810840242
Ni 9.261095650117634 0.5820980899715578 0.09513051561924382 -1.066375577666286 0.8148265576755579 -0.3900870002993475
Ni 4.663213309757203 3.3888216071143167 4.809062651164084 -0.33321059882727777 0.6273049483793842 -1.3349815531393008
Ni 1.9020171648028048 5.544404655732352 1.5759206297493669 -1.3156304023061989 -1.4431404069354308 0.3599439010570639
Ni 2.4074636400969034 9.148011592843583 5.133564278274618 -1.9732998219100533 -1.2327382934966578 3.016229509848573
Ni 0.4846703043519086 4.062401884323327 8.366458684111423 0.21364941673147722 0.38767684819595816 0.39985924919476296
Ni 1.2704279703880885 8.132147500615162 8.273293087545804 -1.1999806394496624 -0.21558185786749967 0.6779245703084646
Ni 3.3978035562142623 1.8378254153652493 2.2922254214454236 0.6264816811471404 0.9373931022565856 -0.5513833573504052
Ni 7.295338657844566 5.149773212834855 9.168542972720156 0.10713015542129936 -1.388895272438621 -0.059468587679278234
Ni 1.9919496362940823 6.587704177391842 13.096080043954114 0.2500981464768144 -0.6013085243156225 0.09056299509123758
Ni 1.333245123841795 7.234941169924073 10.569169661885315 -0.8122965921648526 -1.2101210703177738 -0.31566333397213375
Ni 9.302154643854387 4.471155888698727 0.12059255245980192 0.6341618234002175 -0.656528878241508 0.34975539055983634
Ni 5.849131872261528 1.2284557176757651 8.758619620254386 -0.0838318470149911 -0.4923320597142037 -0.3273148021681331
Ni 8.65673475423231 2.5123471966727866 4.068491532832598 -0.06659234320825305 -0.3224885844240833 -0.614318306311729
Ni 3.979483618366074 0.43643045885569226 12.94800122084192 0.6681690335835976 0.9600650899328046 0.1514480035020682
P 2.187377642025285 0.22249342405155179 2.943351767408669 -1.039238612240178 -0.2896278291403206 -0.8801369488475939
P 2.957509164538216 3.822365414403926 3.611620078493791 -1.3248169539014731 -0.017276784802576696 -1.7150852169736912
P 0.8036641324860606 1.2252357736588033 10.827982548041636 -0.6630818488686774 -0.9219801101356251 0.5281081888725485
P 3.298201837631115 7.682221522011188 9.429506254237511 1.03278051531966 -4.235910198830324 0.4434972975996878
P 5.301534258476386 8.776550565810828 7.544048263519596 0.42798788911017904 4.993838243546625 -0.44490986167649826
P 5.105381294589318 5.740068037488187 13.677934284364152 1.8953632573335746 -0.23336617843411422 2.160264273151176
P 8.185747328944291 6.466165413313021 10.57548056385774 0.6503615730885316 2.5358384245463292 -1.5463925674585626
P 7.433240763155782 -0.010667241436308355 12.744059193547741 0.37166941702410833 1.458112711974547 -1.5915167134907107
Ni 6.599303507885692 8.077464942572728 10.012145709065722 -0.015642591633263384 -0.3270566634107399 -0.5823803199525519
Ni 3.248142064712446 0.4295188772684072 8.226951314312217 0.8404648270689524 0.20585794571151642 0.34947565453588847
Ni 3.6764793543372023 8.300422528144853 3.614540624207421 0.9092161256017374 -0.497385305867395 -0.3115536826791344
Ni 6.970453838565932 4.111501323061498 5.053751092834306 0.3765246882338806 -0.539758114406651 -0.4209453804411008
Ni 9.310195088855805 8.24074058333924 4.981296703428079 -0.3222872670465546 0.9613100180834993 -0.3553601383411235
Ni 0.4087935475475373 6.441460345767678 6.481179579172227 1.3505912346520998 -0.6174802489794786 0.35490402464031134
Ni 7.441676639878582 0.41377692874103955 6.66902753540619 -2.747814310230126 1.5466607335182847 -0.3080832076320307
Ni 7.001344588038595 0.7738504637021119 2.4277361063463823 0.38864821097029195 1.0547968716897511 -0.021496993531511365
Ni 0.6876341088877195 5.282289914702498 11.723439564117662 0.9034869364274439 -1.486531629436872 -0.9150232192018177
Ni 5.672844644853375 2.3928985716926947 6.496103360637975 0.3856639315309874 -0.9150453306890046 2.431927033172644
Ni 7.34982350002631 5.849141287302514 0.1474706114645443 -0.9226910201597205 -0.8403249590569786 -0.08457361027702208
Ni 4.537908529284275 0.5951426292566463 4.990887805679772 1.2669833307224565 1.3552978960991497 0.3176489969435949
Ni 3.961020722993964 4.317530664942113 1.5026942069823481 -0.7964259436811831 -0.4452078525328913 -0.4767095226855983
Ni 5.375263444432017 4.133937365729391 8.271721717205363 0.7505019274555592 -0.36203935013351196 0.7215492489769508
Ni 3.7666942770580376 6.888486491748191 1.0345670711456536 1.43646865134221 -0.7689493355274692 1.6196846912844942
Ni 1.44331636800056 7.748776446736046 1.7735922397473587 -0.19647984693072615 1.4617443951898632 0.2779249388810955
Ni 7.9894813845654005 2.693718546212984 8.219316657577265 1.061312818431398 -0.9313913761471958 -2.468565253220968
Ni 1.4202306875046837 8.699921547231733 12.358526446258406 0.0845098469186222 2.1581662529715673 0.7162442918242696
Ni 2.843154076731154 4.442223467750998 5.753217083728212 -1.9058536153419374 0.4737003035456294 -0.28605476707708155
Ni 2.301873955447126 5.6565660389898476 8.16881343622819 -1.1741963313967068 -0.147170716282953 0.253712346190634
Ni 5.793451319874655 2.327275736025378 12.239399815680011 -0.23800599119897073 -0.599815998930496 0.3226783318373862
Ni 8.055311351134392 6.941596737946086 8.068896313772036 0.6009881648617263 1.2905510907400677 -0.2147634757312624
Ni 2.481258731339432 9.191320781375815 10.31728718739825 -2.1653877104206707 2.0285199187256224 1.6729368657404158
Ni 3.99483013517206 1.2553921499346161 10.643415733591038 2.670337201788569 0.29748332062899735 -1.2954022481847818
P 2.919641869695469 8.484015827357576 0.23950546160783207 -2.191800396086245 0.977549362760497 -0.6415835697855854
P 5.541212956838346 5.720578902648683 4.375712793718772 0.8568155005128341 -0.00789045849167028 0.8392900900345611
P 2.8457526280430883 1.591989280198923 6.581235102730865 -0.4819684570916925 1.000603416366483 -1.8644711957404083
P 8.083820095237783 4.631060944792513 6.951886436238885 -0.34660681762852563 0.7809808127707066 0.6294158240747998
P 5.2061034030497115 8.908926042063692 11.40192815402405 0.24869612392296528 1.3412198207395287 -0.8544390298608575
P 2.2030254401427998 4.2676215326792075 13.543732290160147 -0.5205319191871874 -0.5807962632948837 -0.37500285227271546
P 3.9584598318459707 3.442600321222166 10.478277797717638 -0.03963612633438335 0.5105208148080885 -2.146651310353432
P 9.020936784665423 8.778490064253795 7.152921098876814 1.3932772035564005 -1.2044384181107 0.488171757688927
Ni 4.383746648191501 7.15046942220425 12.226336446312951 -4.765892464797134 0.009719541280609067 0.6315832640397638
Ni 1.336173201588213 3.0921630807095153 2.058973430060006 -0.9281407304203823 0.44822427076171195 0.10743997335223432
Ni 3.1814459143728095 3.5689690013264297 8.02626124217435 -1.0821258985220072 -2.1694335983552704 0.007397063795019518
Ni 5.543896243519147 6.926184315853203 7.95251134312855 1.1549112579148497 -4.339253376405366 1.8805675870816387
Ni 4.776353857277165 9.296957541230517 1.9823434699768137 0.1105756907677386 0.34387373496807877 -1.9218972990683614
Ni 6.425435946010752 7.445423826190718 12.673272207900004 1.9030868512300771 1.0020452910193323 -1.484370360119495
Ni 0.06209784432243195 0.3015063310081158 2.421383778193622 -0.05399702304174571 0.6295474645566577 0.5782824957340944
Ni 8.909481529481823 8.665792023660138 9.998104116940294 0.21727647196110322 0.40389536693734956 0.4940526419497363
Ni 7.966687570340067 4.572574710192031 2.2475237483514707 1.6718750001348044 -1.1597068795312802 0.6673496230060959
Ni 6.9544859290549175 8.739822490927299 4.497072672018873 -0.5392608630552583 0.08073598169848675 -0.18263934150320804
Ni 5.624328938656291 2.998511668029057 2.5583415548940165 0.9447551990486116 -0.23365594176039114 1.3586439297532473
Ni 2.9062630964554033 5.546513624913052 10.518184390437796 0.11046564755243557 -0.45851305428222966 0.2200211245857759
Ni 0.566935166464784 2.7975382031575315 12.12940859936962 -0.9529739874139782 0.8467964257139352 1.0958784722214094
Ni 5.861983403206419 5.543246605691165 2.214135188505416 -0.11480566968868615 1.5246891143432 -0.03704599700970394
Ni 7.675207316477164 6.253074790693455 5.479962466204588 -0.45440263165828193 1.3377604014360187 0.04276027378566184
Ni 2.930177300557984 2.49365834031703 12.100140061458717 -0.057489352465720345 1.6670544388177095 1.9257102450565484
Ni 0.3823956556330436 1.2404975550959225 6.285106643133534 0.6379534292321658 0.3551703909278206 -0.4651966369499924
Ni 7.916204120577062 4.7536447784207 11.57869649002655 -1.8414600795572156 -2.4272867061871555 1.2421685856716222
Ni 7.964663336528235 6.769706334678053 3.1460255886821336 0.6253928189583359 0.3513497316301497 -0.2236288965416923
Ni 4.73818528112289 4.577950698594618 12.081289266398015 -0.2957555393046133 -1.6361477219365241 0.47740320631851324
Ni 0.6636728295802131 1.139069318561633 8.76899593692425 0.08144457772973716 0.2275914807338661 -1.159452854538945
Ni 0.5728176840723793 5.125444746928923 3.7528908854695366 0.5366149407919791 0.34415475654360733 0.669679299580537
Ni 8.901403424316463 7.22235326012677 12.45673568027983 0.5503662289398006 -0.02239970785143884 -0.7638824625275231
Ni 3.6629876006053133 6.2045590844963705 3.33570571189183 -1.0783774872231686 -2.792820956847803 0.6355849289999893
P 4.265296017555847 5.372137650824908 6.984158372224088 -0.5600382048119258 0.8717656940647631 0.0012462137022752732
P 6.357026258211797 7.981309128990189 2.524581100929043 -0.029697269954116597 0.6132926932606921 -0.12310750468616218
P 6.726707842498334 3.075686758985297 9.687919942656055 -0.9833813960612419 -0.06509467561680403 3.1997309422417604
P 8.557584957616458 2.512723798312197 1.4034380204033603 0.35063702183384127 -0.3490334247921473 0.4917065103150629
P 1.6777697186156977 7.047741910013994 4.777010085633838 0.472162012524232 -0.926454858077527 -0.6314243698643964
P 6.408705418179931 2.0132087988388165 4.556339413517034 1.1788883375557373 -1.254377469032988 -1.2024283296592064
P 5.2463809483846875 1.8043831897855784 0.8417620958329466 -0.1818466703985836 -0.2246177428175228 -0.8671932442027322
P 9.057420068483335 6.529735770045549 1.1039436836537961 3.3584227717904356 -2.8194670986804216 2.013406717233268
