# total energy = -340858.97857124143 ev
CRYSTAL
PRIMVEC
9.40391972151622 0.00000000000000 0.00000000000000
0.00000000000000 9.40391972151622 0.00000000000000
0.00000000000000 0.00000000000000 13.76358707521337
PRIMCOORD
 96 1
Ni 0.755477062384289 7.623729567714709 12.02331959065655 -0.9207056142985757 0.3280902468815769 -0.7941456322874387
Ni 7.947403083209613 2.1685909248003266 4.52929358674275 0.3609540874891332 -0.6524665352466763 -0.9278270558347053
Ni 7.066669570696444 8.86428526342267 8.094612984104723 0.2185226856633785 0.8004438065913247 -0.048186329897239595
Ni 3.492803891022906 3.4619872458479506 0.5557641368702303 0.35238100110814147 1.0302965725555417 0.03273348567727911
Ni 1.8815926965139447 7.837226758867294 0.06365607349825846 1.4574640226469544 -1.2334036949947984 -0.1355326178233924
Ni 7.662097560486701 6.0260506137937115 7.136804944934875 1.1171288969597535 0.35258463247851535 0.38881996066146585
Ni 2.2461450513666557 7.949406118126387 4.562037095084124 -0.6610522200331582 -0.1867055411527817 0.06078884915259853
Ni 2.6340849547546474 3.447241899606165 5.55678655239275 -0.8690282405289421 0.17060709292902232 1.1249375943708948
Ni 0.11721703909437624 3.812659415080206 2.941567741534959 0.47874609349965286 -0.990095574856624 1.6708781834391742
Ni 4.561672222995997 5.9397414378963225 13.519421164497656 -0.026261504799690253 -0.2896278291403206 0.38613367207855437
Ni 1.9555451217980004 9.19123134300695 8.942175109925753 0.3521105210555742 -0.20075250616415102 0.06266961111507915
Ni 6.226655030904531 4.87621453236796 5.431358950923564 -0.1815790185594937 2.1324086843914887 1.5968869766636886
Ni 4.009963056342259 9.035051043017427 3.0595906965559427 1.6031409279932003 -0.9730090516879825 -0.9030220809758835
Ni 8.204346383824602 8.85025461508546 5.52269452195248 0.19753888432285982 -0.8975985959674672 0.8905015799113696
Ni 0.47903191289416414 1.7043288083394204 2.0232063247378256 -1.5621899395021355 0.4233434483596322 -0.5604902047476797
Ni 0.016070358541190686 5.001963747894206 11.807877668889933 1.537329685925346 -0.19426458444696224 -1.043435681040661
Ni 3.2064827449619124 1.6058885759038277 13.265909354216616 0.6541549786926928 -3.5033170333343855 -0.22007383220058227
Ni 4.995155309961137 2.531488189768756 8.937508884922455 -5.576976010490491 -0.5614091170175235 1.6266408108873536
Ni 5.930525596495206 3.219535385640228 11.077499668443991 0.40087997714979345 1.132024068904031 0.18355028335325163
Ni 1.733979367459541 9.262315572752904 1.7234629639504921 1.1383366413856202 -1.129224651782023 0.23967875091570334
Ni 3.177198938713877 9.017221211082207 11.51606181249152 -0.25291144755589345 1.8224801960206032 0.7667052766882989
Ni 5.419817520156636 1.022610450491368 7.2266123789967684 1.2494756608559965 -0.15991464621218265 -0.0416151044376251
Ni 6.992406816059085 7.448628581093508 0.31562281975664397 -1.152866202460363 0.08033051872995198 0.9016236579664602
Ni 4.059032709843302 4.971391604633974 2.099704391110945 0.005868800075951183 1.3109250264107295 0.014763531462419736
P 5.908191286977196 7.969154349700206 2.1732016666768237 0.20454925420242193 0.10453462677998127 0.6490443969390047
P 5.449816024309247 6.620745097839799 6.543140190106565 1.915281079303424 3.204384638963688 -1.008057044431051
P 0.8017227187702761 2.248505435235717 4.336603508533134 -0.3507696907569636 1.8020383832264832 -1.561809159123949
P 0.04814336740103325 7.1863156422743995 6.179479326850615 -0.2056699980704264 -1.4148083927599568 -1.8507654161185416
P 3.836235042011428 3.250239183777618 10.745768874466968 -0.4386281424328446 0.6055675567022926 0.8550296122570048
P 8.341549573663663 3.194690229536403 12.01444134997615 -1.295774543922536 -0.6908528483343586 0.9643385204971778
P 6.69145317079387 1.3549073604401738 9.326509550463554 0.14208018913392306 -0.9508356009147366 -2.084279690094746
P 3.275563939791093 1.3644053194352013 1.7676717313084367 1.6060336761599632 1.556536854981416 -0.40370999039942085
Ni 0.9555040788195693 1.2361734690825321 6.028395951391098 -0.9260787056850308 -1.227682476240305 1.5460804355347824
Ni 9.160254831195443 6.166789677476467 0.08488918400803343 0.2777603882787732 0.3481841894179745 1.3517667430174396
Ni 1.1317711514956055 3.0108624053435324 7.592669361017009 -0.709952545278287 -0.9782970395597991 0.8827332488198604
Ni 2.0644331091281236 7.222548945252461 7.23169143607916 0.6405762115669935 0.31697639635660246 0.24158162436537106
Ni 4.9776169995396256 3.1459591171480534 6.36955417496467 -0.3052020294294937 1.0310005406011018 1.4868859274524973
Ni 1.565489336455671 4.3358276851498765 9.64669139053781 -0.5247474999304317 0.706685444491241 -0.2778406066974054
Ni 7.156232502843615 4.202066329956539 3.580404225108431 -1.7897518525496467 -1.2687229391213828 -3.24343969598362
Ni 3.6670585248623726 5.826941419930624 5.947892755576412 -1.6867226066705983 -1.7671932505228403 1.645924855927946
Ni 9.166527245700081 9.055147219623738 0.6141107572510704 -1.319332019527502 -2.263137710178651 -0.33601181572149874
Ni 2.5528821073070604 3.343046468254774 3.3232455747300906 -0.2085115812842796 0.4028581839220868 -2.3272692505512373
Ni 2.43449616098191 2.168619136559718 9.72546050354192 -0.8305606805813632 -1.711515754454878 -0.7549033989573644
Ni 1.0130654718973553 6.952609427477939 2.338420073983298 0.08404884812180363 -0.6973186585643604 -0.08233032276880015
Ni 7.824992259211323 1.3985979718173005 6.745658304896087 0.7175316431771256 1.1977301528525888 2.0495559134603156
Ni 0.7806015149060862 5.20693158379086 6.864961133401449 -0.05042601786103573 -0.040259618850995174 -0.1925044072227459
Ni 1.2088644859918787 4.022206959918027 0.916336752864827 0.12068501128759859 0.10125467047712886 -0.41922017021987806
Ni 6.371860956490889 5.192910339373448 1.416080799112009 0.27984221050846647 0.8975240339757898 0.3682688759829916
Ni 5.804560090813629 8.158746776728671 4.772414065648046 -1.5246328071839679 -2.044373083707795 -0.4573185197534963
Ni 4.32111995458728 8.442905021236344 7.131134381297249 0.0744087539288783 -0.8390784882443871 0.36048974625820496
Ni 4.659802126078287 4.011561722707758 4.216475015869589 -0.8444217548341716 -0.518401760218062 -1.172283173534394
Ni 3.723792372998017 5.2941153242293755 9.919403183868505 0.9695300920004464 0.4307363983895937 -0.43329953113107955
Ni 5.186355807274898 2.7794601508973513 2.080462090422207 0.25511514007543157 0.05507868614169869 0.3769589475578218
Ni 7.970978710140836 1.5951304916559945 -0.01380213308614054 -0.03953996707615126 -0.11519236360414355 -0.3542031419185448
Ni 6.447449663819633 7.097382772753632 9.26775291917956 -0.38767736241659034 -1.3588791856925049 0.8297597819466225
Ni 0.10825228235184181 8.435917908827129 7.7870380389104 -1.3376696414944254 1.658991202193601 0.29990015760060607
P 9.090505958060673 5.82692261209103 9.096285607167944 2.5399095092919097 1.6133566921839373 -1.1383695515060845
P 0.2987662935204193 1.2281519254956426 8.723897906340325 0.21683887020305237 -0.47162902283889746 -0.48659592856137485
P 5.953405333361447 5.497211780086415 10.888745130669442 -2.505565484594401 1.1808470039440049 -1.260611879978474
P 7.825152125847872 3.6839855804970747 6.190820454125866 0.22752283227945977 -0.49516978627331504 1.117161807080218
P 2.9545799453581467 4.183004584527904 7.5924352034140625 0.621040455526911 0.5998687065453024 0.8941643734749375
P 7.447876267509742 2.439038254243888 2.240671029652789 0.2570910328548798 0.37708570294367316 -0.649496653985075
P 8.62297127751039 5.4964124469036655 2.3013131468560903 -1.0813034026207118 2.5866197688642547 -1.4805499579321404
P 6.4307388983402625 0.5528310542855283 5.296599839839757 -0.7613116164765533 3.177882221797785 0.048601305947471134
Ni 6.691584825671029 3.372123388267274 8.330163307573386 5.228619042940079 -1.2388464632769243 -3.4304365431245762
Ni 4.21005025786424 0.2740584346456318 9.546409870605954 1.4310266543910324 -0.2637792435083328 -0.5106509126280495
Ni 6.448615749874468 0.7178247079088524 2.8340047665042416 -0.3007283099288563 -1.756181215683053 1.0738371761506538
Ni 1.4866656807167393 6.762622035817997 10.027020701634045 -0.14776181289973261 -0.3223602863763351 -1.1681889488603623
Ni 3.1455077289977944 6.868369113935904 11.746849990974955 -0.04299244440112596 -2.3356081094342356 0.9246026353601366
Ni 5.9999735441964726 3.6259445875096388 13.468344714511922 -0.7556037674584988 -1.3404688015061172 0.6350154296497643
Ni 4.576379953558595 8.810090473632231 0.31452538231632743 -0.0638417770463094 -0.4228454256772911 0.35284045724306334
Ni 1.8611955944741279 2.867161106924705 11.974471869662718 -0.8338622341507704 1.1925627497190363 0.002615840356292269
Ni 8.29618506456266 3.732171265537195 0.6944380997655515 -0.04430627811654305 1.5864241294591517 -0.05341081152097253
Ni 7.40088488028385 6.871904987779597 3.6056603325073873 0.11674942367861829 0.019296643446082895 -0.9010803838684803
Ni 7.149442872750139 5.350040435262473 12.50655881726792 0.7284927701743196 0.8328070534133787 1.2261940646202365
Ni 8.902295907242374 8.067359484140871 9.995998110615533 -1.6558554847780966 -0.669527347383705 0.3925501171278594
Ni 9.342709683097944 8.613708416510288 3.6951235831047096 0.9813535669979359 0.286999390378538 -1.2544183495732524
Ni 5.556324819930715 5.174553887929593 7.908543265432234 -2.3888330301966474 -0.5196168635720858 1.4863693928273949
Ni 2.248994439065164 0.956275200242928 3.606789743275014 -0.5870926378265566 -0.16419733274793658 2.104495502920989
Ni 0.6515317752994992 0.4737610158479137 10.9644861814989 0.31563196651356606 1.2155540684078872 0.6007256552289589
Ni 5.730334951855458 8.063306394708341 11.70503640198932 0.38384590448564215 -0.6794903721336878 0.1574983234612062
Ni 8.612692793172206 5.138442835908894 4.827839828539918 2.538461206881157 1.9921241537054077 1.6860093826536577
Ni 4.010894044402167 6.473348058940727 3.889025826576167 0.5844390022537935 0.8869359740472983 -2.02203559655286
Ni 3.145385478040433 1.524582285338473 7.484060670104859 -0.3843272149974349 0.24981172558464718 -0.30393396135034756
Ni 7.133390381656563 1.2593823431416689 11.318472292067637 0.9865060577331527 -0.8731785152518897 1.6856841381037548
Ni 9.040082140108852 2.8635405978028383 9.929120254194803 0.049763444576372357 -0.5076506923491451 0.7229029347913679
Ni 4.062982356158066 1.4916967778081645 5.147141461721172 0.5325076034918249 -1.5024554997559803 -0.9194033505473843
Ni 7.585173496546775 4.734911233497381 9.70577903979866 -1.2404456894432443 0.2641273708763709 2.135745976294838
P 0.8630278123192703 1.1974575312780487 13.586394940900316 0.8513830166433531 0.8887244334062888 -1.122772725509092
P 3.3090983177873983 7.403640228784387 1.651121430127672 -0.0879731228768743 -1.407478691867763 0.5021529024593674
P 1.9679582959301158 5.40980234557277 4.399806313097175 0.048339310535336105 -0.20253428065492218 -0.32896056530167217
P 5.190032739915548 0.6591677581747096 12.372143889648685 -0.5754815359501896 0.15807219368680517 -0.5153280063887448
P 2.4545359140694387 9.194597946294296 6.31232474025572 0.9246064920148787 -0.3887837081068918 -0.057342542475210916
P 8.051720765518366 7.590138766199621 12.306601389839136 0.2845905238267293 0.010340976914691869 -1.0661863444736155
P 3.4200551674728734 7.618049600157286 9.591004198675579 0.8313911469024584 0.1308488391944779 -0.25087359119025826
P 2.340804908043831 4.8830887977396085 13.11676694780321 0.3453400351009601 1.1662341391268367 -1.0505779485123972
