# total energy = -340854.440996654 ev
CRYSTAL
PRIMVEC
9.42773184617737 0.00000000000000 0.00000000000000

0.00000000000000 9.42773184617737 0.00000000000000

0.00000000000000 0.00000000000000 13.79843852661389

PRIMCOORD
 96 1
Ni 0.0016168559887929591 8.155440462935113 12.100913187797461 -2.4511696834523398 -1.1197426804335169 0.5895418706979976
Ni 4.222171936775345 0.6005465101230992 11.347448869288229 0.35726558289395244 -0.41166884023518135 -0.1001984612984726
Ni 7.258768899704219 2.457281704623627 10.05137616589862 0.8681350392907115 0.4622411538660942 -0.43777325063171707
Ni 3.7171377766374434 4.251105645402783 7.137904436369381 3.4838072454362323 -1.5233027755186346 4.536491441658355
Ni 6.673985557005387 4.933927970185917 0.331058570197436 -0.7123017622367539 0.8568990613655758 1.0913571873122883
Ni 0.24781264194412436 3.9230960036413562 3.2178234213298675 0.7001702690805425 -0.5237131451286464 2.0465472085409786
Ni 2.3459401930921704 -0.002896199182257709 7.694133065255641 -1.5023768239992448 4.2769336924305374 -0.23103367364619568
Ni 2.177362922330614 8.116588780545516 9.433371382189243 0.05118295063171831 -1.3727770267205197 1.6586484741422014
Ni 4.735747621845295 3.53539939240443 12.062553633003288 -0.5636714306891389 0.8305359979910147 4.3834113018695025
Ni 6.633823419907672 9.157598916303641 10.379516853130859 -2.0269867699105477 -1.1538853877534967 -1.072901808820578
Ni 1.134523806620151 3.036672384782578 8.484493754597176 -0.6837746013313385 -0.1199967269713224 -0.19836600820984546
Ni 2.683094734615283 8.646521580137657 13.661502588180424 2.95230031529478 0.38314964974956595 -0.8377533416750604
Ni 2.21131218422941 7.2872500772094275 2.298792106795065 0.2011255732328536 -0.4767123508990758 -0.1730483553806633
Ni 1.0114824800327638 7.563048940743826 7.305679407162154 -2.489685065918719 -1.3117490649739216 0.5518104175854949
Ni 7.568912989869361 0.9498251146292307 11.827041352625217 1.445688370168265 0.7123220739517281 2.9508628115173052
Ni 4.029959342609101 7.783469308195602 4.671116749859457 -0.9865623648923849 -1.301606577223281 -0.7740146658655186
Ni 8.81992584953631 6.592463960882396 3.3309844850819483 -0.10321822196140289 -0.20999382225676091 -0.3448378986535609
Ni 1.64530888310303 1.5327040555220206 6.113274041689558 0.08851973940896367 0.7053176176094369 -1.5935674253721521
Ni 1.6062026519571806 0.12806630759045806 11.46640610249751 0.37907856500398585 1.7332780858326342 -1.1720885410250845
Ni 4.002138106323806 0.47567148971751816 5.831206679339133 0.4164451785779021 0.7615278462524175 1.72839041872303
Ni 9.301296403074385 3.2674349739236006 6.288596854491821 -0.3593731161552585 -0.7256033644416665 1.3421629013790883
Ni 6.202853520107715 7.593509941908783 5.799428624053861 0.519683455143963 -1.7624490509696358 1.2267234547611454
Ni 6.317513593202176 4.819974976969938 8.999644813636383 -0.673674536782859 0.4453214952926201 0.8759761326016848
Ni 1.8570085987202074 6.6027778993765045 5.299042335650507 0.27212864391429264 -0.607452175319515 -1.1332191176533966
P 9.011959316800006 7.397582821447585 9.144294501310146 0.8154101980931698 0.45205135781728595 -0.8070705678792229
P 0.16251901036273206 1.466445957042505 12.816692977103175 -0.2577520634776464 -1.2349900656453117 0.6285753304513756
P 3.1260378536908493 2.20981317488703 7.810578750736559 0.14359713999908175 -1.1557777196802033 -0.24805746189770178
P 9.23654674166896 4.342375516117095 10.279919466994384 -0.19176470084324396 -1.8011716643508142 0.676057435192739
P 4.523557664179037 7.920699371011172 10.59718715124193 0.3246092303115119 0.4150102459035884 -0.9592526213338383
P 5.495566231529142 1.087064605176514 4.459641414257051 1.5607033276542799 -0.6835794546013969 -0.46331458943593107
P 8.252706371018943 8.464764340441217 2.163885037073597 1.0923828003633251 -3.0340678235815743 -1.4965766723776999
P 6.611130869674292 4.265482936265228 11.288033418486064 1.4756738607867619 0.10146010161971558 -0.6037199619705925
Ni 2.7909856963397535 0.17984058183917115 2.3445750575401165 -1.149153015274834 -1.194615261372691 0.3334034315643742
Ni 7.271816880395119 6.806586603549835 10.168979576833904 -0.40374572873336273 0.5491536966889381 -0.9599640455785661
Ni 6.337962343287843 7.441930871425907 1.3371295322268928 0.5576702188003816 -0.6216737182355359 0.06099659428803043
Ni 0.1290053096690807 1.998122887001566 10.60955067861046 0.30068562961637896 0.9729879686420597 0.4253720487538868
Ni 5.890258219697173 4.9642852663020305 4.850689584117977 -2.5379012206126292 0.8652363775866777 -1.6282238391037571
Ni 4.935389268601445 2.9817841307490354 0.8984166363709849 0.8848788344079535 -0.1454727597552398 0.6000962491750762
Ni 4.33700170904064 8.937103126998162 8.523295470008694 2.0636581571896526 -0.6375574793453278 1.9720559222006229
Ni 4.63491803117392 6.4799628383502315 13.630511748493193 -0.13787077903826578 -0.44995565163052187 1.586964318233338
Ni 1.5997258002702957 4.763408586691467 1.4462555268057762 -2.3590126044011055 0.3654242074453449 -1.5763235506900402
Ni 0.8839903213036323 5.382018630776825 11.919477433752435 -1.1398206821303143 1.6622793860265692 0.5803324362845876
Ni 7.624112359049436 0.7627072666807342 2.7911346545008193 -1.405143358866367 1.9945291636024747 0.7690444663444369
Ni 5.276852283517434 5.913563572491903 11.31113230395628 2.5091403464298527 0.9179463063858837 -0.7415871414644325
Ni 7.293453524676634 3.075184668830504 7.728657418788934 0.8381963427497501 0.32155193154242684 0.09854652751734641
Ni 0.7463265828292603 9.19994828715879 0.4775353522771938 -2.6776764157624595 0.6976487882102694 1.0617331937982684
Ni 0.5583932360875826 8.797186160644365 3.5790384769579275 0.1157376945846523 0.588332937991561 0.42184758054039606
Ni 8.353008008714385 3.810048072669832 13.041800812762693 0.05948350007761369 -1.2694096807757622 -0.4689656170741214
Ni 4.113149647245305 2.5888362729479244 4.27042306768288 -2.818994272809061 1.5252280175658055 -0.24546296169764822
Ni 6.5645955859385365 0.4077192278491624 6.209076765811519 0.4817697108173251 0.2261902295109653 0.35463097348458283
Ni 1.6757321733411341 4.93987686889687 7.288790568571345 -1.0494554048721796 1.3266028421573024 -1.0814939213649633
Ni 3.5505686127307734 5.951727030466444 9.284679083156911 2.3845979090693774 -0.013899126579595416 -0.933141268958767
Ni 0.33198154513214645 1.8168181784273536 1.9166305168468871 -1.1313285854989032 -0.7127275369202628 -0.09621685094290526
Ni 9.174201151850372 0.06340526686313801 6.747436072008809 0.9447734538810567 -1.2179081704623607 -2.6783706136160066
Ni 8.975803965680349 6.730778212844971 0.7839828288376384 -0.19475489381981942 -0.1735700322120882 -0.1178529411554422
Ni 8.909357312566572 1.860449720795481 4.399700838798469 0.38124086276262725 0.09481997059537864 0.4366864453254415
P 6.339244514800822 2.3097754142408014 13.09168199848342 0.7328937274554926 -0.3491838343270825 0.16274928744750036
P 3.1375773973076573 3.9167511401984543 10.443182325389278 -0.30283198653542037 2.415996735095632 0.46132378425814746
P 8.925205329576258 4.251925858061821 1.3748404590792067 -1.4989978802246828 0.622441963860128 -1.948242621831109
P 4.954197593369036 6.099959256191177 7.185219393517809 1.0902948074860448 0.029736607832484274 0.289104866757315
P 3.645100478617811 4.910104092146969 1.5987010058330842 3.34232869444205 0.03096199559915313 -2.9316823819341122
P 3.8464014061554628 1.0654845272852775 0.39725538842081654 0.9802986433708603 -1.0195048812566765 0.35508143075844006
P 2.248749706862044 8.73715036509548 5.549869966196473 -1.6001396792730311 0.21432150309783732 -0.7081242338202965
P 7.380113234583251 3.6001961924684185 5.03114485406484 2.1069128541132294 -1.7180083041577574 1.147347586634979
Ni 2.730346525961232 5.0507658493060985 3.321421936805373 -0.674086170398981 0.24171763572260307 4.323944771072753
Ni 5.602863246155689 2.634457066707511 6.273432348031336 -0.3363260045278079 0.36974546052851803 -0.756084306639343
Ni 7.141704755022923 8.3640478825504 8.206994128261739 0.3359693925193375 0.21482955308250745 -0.683931438624177
Ni 1.919684159148753 6.529251019746206 13.608419744769936 -0.3467646833626286 -0.010900963183219937 1.5571202382887117
Ni 9.071891407300045 5.2600803487998675 8.343377580769475 -2.0094130226928426 0.04498247824796124 -0.7426047840956694
Ni 3.2632867719698453 7.5359065011418735 7.150240623315944 2.278887002593107 -2.9465222751604223 -0.6598941951693151
Ni 5.513733470540243 1.4360132390726879 8.565283758739232 0.408387084160116 -0.26207588766398093 -1.2528612894987778
Ni 2.5025442445781167 1.7624484496380302 12.753054845266725 1.5763988840126657 -1.54324013787251 0.42079419957521724
Ni 2.619287846381168 1.9748741005971144 10.012905363870232 -0.03498217250213976 -1.392842430011827 0.0016791874746358176
Ni 4.995189370857501 0.8180518229291901 2.3220286371482897 0.8002576587224476 -0.23553413261971048 -0.6450807843055665
Ni 9.47109927895864 5.163549803789657 5.251368181923812 -0.9086293998603319 1.065753370701255 0.1569671335480845
Ni 5.949794345465262 8.48287501306204 3.7369209288641674 1.2166686416283046 0.3705116492705813 -1.3969088867717168
Ni 3.144742473409597 3.824859039191078 13.602445391183359 -1.6881801650527313 2.0284854659432616 -0.693237289406135
Ni 2.5003004444304047 2.268293394703256 1.5569465248490306 0.9948035218552546 2.3208841729604996 0.03907742561743593
Ni 7.466754089026443 2.562438624151304 1.1983966889762578 0.3260181948438966 0.14062005964862878 -0.7203565142204303
Ni 6.52069063935073 0.20620711912113773 0.4096330573869173 0.2689649014743303 0.3834702663137783 -1.0401477543180087
Ni 0.27917304871450865 0.26436396773960497 9.11752539988403 -0.41570830041187756 -0.9009027206400355 0.028279820781299682
Ni 1.435673840731017 5.641630078959867 9.736992424782107 0.2061137704760644 0.5732703872314837 -0.5664273961677213
Ni 8.096215452313555 5.985704575560379 12.091764516943089 -1.2729012388687884 0.14864087307057627 1.0074116975375682
Ni 7.013138777651672 5.255234494699345 6.780276632658147 1.1418284565889627 0.8685860107852009 0.27141156324260995
Ni 5.0560265236019974 2.923266200005957 10.17260925354344 -0.41805263227433803 -1.0294964452517494 -3.99166362603828
Ni 1.1050998559436331 3.312810646658647 12.397537910686049 -0.07049090693171085 0.6837288356950676 -0.6227111583611147
Ni 3.256121695867906 5.912036279954384 11.889534957831698 -1.8381731812758277 -1.8613105386242397 -0.9391568790252277
Ni 6.105361346462771 2.8239733296038145 2.9955439051842734 0.20169018748707201 -0.5086325966464401 1.8688392429011171
P 8.437782172278387 7.10901880917368 5.458331405128338 -0.19341792017595075 0.22584750145956586 0.6120338811529266
P 1.7026200641868343 2.0258121350428775 3.649880338596342 -0.2573568849217568 -0.22978617439233975 0.6134685567169241
P 3.3451477664345064 4.646231309229615 5.353849511191317 -1.108726017608039 1.199931788489598 -4.75152102656681
P 1.9811529699180248 7.537622348313653 11.561463093040967 -0.061154460022133386 -0.968103386856249 0.4670948824139697
P 7.944372405342711 1.0793244374400766 7.8928583364892795 -1.7084723396428638 0.7260882744978849 2.0204785364783846
P 7.158712383033317 8.103493661196051 12.445819210335065 0.1130290374042376 0.07027467715584672 0.10873966600026434
P 6.692727887650987 4.751312806903587 2.6563652296623625 0.45291473425884576 2.0324503641282803 -1.1605157485858206
P 4.396792383564985 7.775314320263789 2.2588600063511497 -0.4924269334208552 0.6758170370471587 0.4843351575516562
