# total energy = -381161.4804046494 ev
CRYSTAL
PRIMVEC
9.38499888516254 0.00000000000000 0.00000000000000
0.00000000000000 9.38499888516254 0.00000000000000
0.00000000000000 0.00000000000000 13.73589451866926
PRIMCOORD
 96 1
Ni 4.448902497229777 7.22262020117976 4.996871007194048 -0.9151646298756885 -0.5079826217672672 -2.0067717284152535
Ni 4.485203673616957 3.4751337641426217 2.7829609895300593 0.7915207930700819 1.308948619410649 2.322598841658761
Ni 0.5549922432652449 3.0509975013541353 11.049634181802041 0.18022379008317993 -2.135153851236794 0.025307625526853186
Ni 0.5617475655929318 2.2599828550786594 13.657187661789264 -0.1586542914425203 -0.84251116807502 0.2804525903989557
Ni 3.7456939022155376 8.646624879457871 3.063091011150547 -0.5751287805964611 -1.3916075291634613 -0.3166382962908934
Ni 1.9816237827819208 7.71203851747115 6.643173465848311 0.5519032344096173 1.7056554390193592 -0.26480177123557624
Ni 1.16039882451308 4.392583117834876 12.993030047888537 -1.661337076717958 3.358329183635365 -0.0387264700359204
Ni 5.233685504125447 0.6106706272239388 4.3669705168839315 0.7836791855384762 -0.6373690174836055 -0.483751002913412
Ni 7.144255458978891 5.190242343449061 8.593216726773235 -0.5934211511477457 -1.0985560190535724 0.04932892814211504
Ni 5.63834789385204 4.24638360238516 0.8791810815008462 2.029263481759866 0.1049452319548386 -0.1581544689879663
Ni 5.118644185574758 5.742643388472191 3.033572373588344 0.5347681173912273 0.30146390254330013 -0.38508723309191095
Ni 3.55084255160782 3.3590507106956102 0.8133997460476331 -1.3195652185842308 -0.9977744315581205 -1.9632892317515866
Ni 7.213075657129666 7.249217288532725 3.4255396750783977 -0.21445211513843065 -1.7057220305912364 0.7291599714446733
Ni 3.8969800871590112 6.670594556119268 10.511421378366848 -0.7058722045613262 0.31844372493074835 0.1339835281687176
Ni 4.2256990644437575 0.13717583884778423 9.725343241600074 2.557833954980814 -0.6340618074872435 0.6004515756319658
Ni 1.1629609292580905 1.8931607815860658 4.412408928361743 0.21214069339643465 0.9851102058268906 0.26062295726753826
Ni 2.86296904506738 6.285640664431217 3.3830547228066474 -1.0753127322549159 0.02349525490846276 -0.8518460723227007
Ni 2.7808503032401224 0.35767545340289697 5.367163653341238 0.33729968129498683 -1.34075419395702 0.4436780461519262
Ni 1.3138810992379912 0.08195262734378998 2.9498929064164154 0.09039844448891528 -1.0409990465747103 -0.613674244969827
Ni 2.5107875701177034 2.901231686259349 12.430421877881257 2.3463974867402557 -1.7347826954026186 0.19988475884721704
Ni 2.119583269051714 8.632106285902811 10.36099955183735 -0.46263864641482905 0.626424859767276 0.5056069224462388
Ni 7.634640430174077 0.27540373609086394 6.50297096480175 -0.7475490154748223 -2.1000469802313315 0.8843314465449157
Ni 2.1781925882187108 3.046107916840764 6.1887621345729045 -1.732745867478248 0.9989134302585699 2.0144873518919564
Ni 1.9082143200878854 4.900358492299308 10.065718387724758 -0.4424161487203671 0.2039303896715004 -0.03391362202830934
P 6.628709305287834 8.780135876170393 2.2677414338064987 -0.19798419939039452 2.1280915450733735 -2.1383345629576205
Ni 9.152720339089493 9.074421291882086 10.800314173615234 0.12700221175487802 -1.8886089693288763 -2.157806555639303
P 2.5715085140745444 5.746265998111656 11.973222263383347 0.263639632606675 0.21411375796240545 0.6155030706484497
Ni 0.2983312888090343 6.676197400561654 2.7040894573796286 0.26157735076100763 0.7341342847308131 0.41932687100107136
P 3.9241778144521984 4.38311365377731 5.656963039499397 0.3659384280776021 0.24105737643078481 0.47999127876066366
P 1.8766150282327565 0.7270962331368583 12.187186164588919 -0.691311533138332 2.034110782549839 0.45577945740115056
P 8.167267282165202 3.680411848712634 0.791261471750911 0.03166724919629385 -0.436911416852054 0.759823204856485
Ni 7.249827313472014 3.2607710004767485 10.653408906235756 -0.7901254553844521 -1.806738102694998 -1.35497445132146
Ni 0.6708819657314975 4.510608866088544 3.569395756261341 0.02669473568236693 -1.136482618896017 0.1634357719915637
Ni 3.945650692315143 3.997840672121016 10.872317763449187 -1.0735044754015834 0.3177834656389302 -0.7566090687945615
Ni 1.7786074829868077 5.581559264503842 5.525772014555983 2.4929439391756483 -0.7051461250285791 -1.3969402542302845
Ni 7.5380500197870886 6.563286476798941 12.146088315179119 -1.7240539961312051 1.0011076096964113 -0.03533955584155849
Ni 3.984063493492168 1.3430027513397031 2.360239046100815 0.5110887714964165 1.0736494856198802 1.1424840878950904
Ni 9.324024727040685 4.537937983368655 8.519153129644302 0.7846364072454229 -1.1003429357506662 0.5100551880255797
Ni 7.848167928923078 7.207388347695687 9.538040245741119 0.42216948265618903 -0.9156683089849843 1.0242598794431585
Ni 2.6739270088814995 1.7193975238795887 10.488880487610196 0.025028403723537544 0.5413748240744676 -0.9666165178980773
Ni 0.6969656936355543 7.086706644706348 9.36528399843442 0.8280284010778126 -0.5859024741731974 -1.0148205884071295
Ni 7.024061775940983 8.878349891395793 13.341221021235361 -0.915157945007469 -0.9456486573971585 -0.07559840336160528
Ni 6.9042434928657155 6.803927237849538 6.8657771971940145 0.9239079232859573 0.8537427751247814 -0.10668278347123562
Ni 1.9646369344725108 7.273195961146285 0.9314986972940154 -0.3732925544498281 0.49191554100207535 0.6890258224279489
Ni 4.123055329659218 2.047647251211036 7.031156835234859 0.9430788397874532 0.4071539830839633 1.1535308326275553
Ni 0.2855873985773505 6.693184248871064 11.782581961856533 2.1019225999874895 -0.32173499408751044 -0.6957842241977049
Ni 6.010772811787019 4.075717394370454 6.77749626498004 -0.8696836147247538 -0.707873037041439 0.6645345221548039
Ni 9.301632119269275 7.563248742279225 5.416448037436285 -1.0828884877196447 2.88505825431767 -1.9165108379454674
Ni 9.30215767921697 4.199834007017937 5.86844085445239 -0.8576089429484068 -0.7161242213066377 -0.020485007327229236
Ni 4.519393225214294 6.954293692884546 7.145234314381472 -1.350432083366416 -2.430539665906814 -0.3610093662071008
Ni 5.060719971339577 5.875666365233283 12.770068748078419 -0.31769013459417544 -0.4671391053883438 -0.7719726957348253
Ni 8.921051637145966 6.214220821539167 0.3449728571671035 0.11522295973176284 -0.5200776052585881 0.6833539688541521
Ni 4.650398427176202 9.108742233466346 7.367109769799656 0.7803830312857076 1.8334145835449196 -0.6511213340726916
Ni 6.084782914421278 8.114654977401361 11.133354942969861 -0.6679324920927593 0.3643674840460563 0.10913818699026365
Ni 3.7468670270987836 2.268870449194135 4.862616718555501 1.0803461809137653 1.6376387046597538 -2.9400518369447304
Ni 2.5771395135141275 5.767053771042785 7.795902869124678 -0.31703218929520244 -0.5413372859683129 1.0073685030044586
P 2.2097355700794434 3.094112187063212 2.53826966288259 0.234191502548887 -1.5314097208964852 1.0469894598301903
Ni 5.588776328785574 6.996610653673015 8.954333659333624 0.7313497800071405 -0.2673448493724041 1.7472157789596487
P 8.528204961243432 5.846113003174535 4.491843560456132 -0.3149354546671737 -1.650289817764861 0.09401264420273486
Ni 0.6585200449617987 0.809268469458792 6.462821000297614 -0.051884090463800964 -0.6489058144786115 0.776476754252766
P 9.191311455248771 8.519551992104605 7.857563251488023 -0.9565509061319591 -0.24121755615773294 -0.23234493625845143
P 0.6884976089783273 2.514635419734752 7.89305731795553 -0.23140622649426595 0.058554817615757225 -0.05064147630595149
P 2.925726533821537 7.9694315018545065 8.553629862213057 1.5392222749623683 -2.065319089831843 0.03572496420543525
Ni 2.775904408732355 0.691721356157489 0.6957981997517472 -1.1605849112608593 -0.8198510074733428 -1.6482974699251807
Ni 6.367796946254738 6.687797259407197 0.9037547630551881 0.21091144897502384 0.34551692699845654 0.4661937107559391
Ni 3.8995046519077574 5.902986097514328 1.0602834084769137 -0.27282746975353017 0.24321504620373602 0.20896255277876916
Ni 6.774570960771176 8.988144995468602 8.886093454125126 0.0025253375250150058 2.081993465163731 -0.44803915133409933
Ni 2.3816030579745946 8.202949048614029 12.59651571435102 0.4992365001435209 -2.449402821359904 0.32194016811978104
Ni 0.28201077543330844 6.236782359293765 6.968672449953521 -2.082128448079698 -1.3421942688376562 3.9419040381166495
Ni 8.166338167257672 1.2352535770632749 11.960529990646528 -1.3003799039050314 1.853275841245221 0.3162824556133714
Ni 0.0243324870783464 2.1615905248710057 2.48181513950114 -0.7218467256127117 0.5702215731028308 -1.9699216494664393
Ni 8.800961189097784 8.574726401613455 1.339284414709765 -0.42241476589777577 -0.3016125123060225 1.5551859973804765
Ni 8.172954591599181 9.315015127937352 4.248429532181542 -0.08058762904608056 1.56870537202315 -1.3161554215717333
Ni 8.708687878281145 1.607068470058966 9.49157229986577 -0.11610587655734843 0.16187408393139865 -1.3092545806868419
Ni 6.200237172930868 2.8225853940865013 4.612444552453503 0.22039342032353013 0.5452134810942675 0.7814099298883252
Ni 7.9195690018169955 1.331590592475481 0.6731465660061166 -0.13533644265218628 0.3564081199896636 -0.5903517681938026
Ni 7.414806212052741 4.543700372795163 2.7892245379066893 0.3930337416324973 0.24659630397114304 -0.3931977780141873
Ni 4.574520709727816 4.691917663044063 8.672363239396299 0.13778953217836915 -0.05148531236348553 -0.32568266588134875
Ni 1.7238460134368594 4.823917674906964 1.4778173244224886 -0.4378298149012653 1.4943742654097425 -0.3234931144291977
Ni 0.12591853246815043 9.0318884761151 12.971575001523817 0.45949547280015707 -0.3483435978139743 1.3473529302204603
Ni 5.343621383184246 1.2686266337418726 0.36122110605002133 0.8135518047281923 0.2849417365185609 1.6012629942441972
Ni 4.433783263734495 8.037360125094013 13.57970417100069 0.9634998266459665 -0.682747959839037 1.5158157231129699
Ni 5.977108820137377 1.9775319231891568 8.58052539253632 0.23877963614020167 0.06127350209850093 0.281950772211037
Ni 6.671317201047348 2.2297537730871624 2.367834325844907 -0.18837984353141105 -0.5116186758579576 0.2695724531513422
Ni 4.266110870421834 0.5012190141169435 12.359256368463894 -0.5371489589185782 0.8469362937259091 -2.4856381495428543
Ni 5.13989182346012 3.1034971861291845 12.455352189400104 1.138746218119213 -0.7548041543753389 0.7214944844796155
Ni 6.334818059536912 5.420662840516813 4.991006321277722 0.36207534557777 0.023909973848378178 -0.5048546176612467
Ni 5.878068924994172 5.17726288974082 10.661581363422405 0.857275470868388 0.9815422859699742 -0.012649827553526602
P 1.8094465899175929 7.949188058869204 4.437339239880592 1.0599185091870327 -0.25072883808227786 -1.2536549890446667
Ni 7.452505753300751 4.332059258858421 12.610828776426533 -0.11109736759916351 -0.050482839240900156 1.2895825561792111
P 5.995794353277728 8.438775305143782 5.595275440638761 1.354500339898519 0.251766792428489 0.9734214566350525
Ni 8.030884475738493 2.4067079304760703 6.849650953298955 -0.27126526747273283 1.37412916987304 0.300893631862127
P 8.313729577588767 2.328521503257455 4.333949397670308 -0.28604705376759765 -0.10870264211474182 0.9896379184939149
P 5.398598707712712 1.669422403853286 10.70453368864764 0.25511668273732835 0.6665865195878262 0.29845854005807304
P 8.82928511627889 4.6858455686483795 10.741634466955242 -0.4468492447910562 3.007408312012517 -0.19087612759070352
Ni 2.5897060272634644 0.6221334650831174 8.2562342578109 -2.0137556159322543 1.7512395554070612 -1.6768811951001443
