# total energy = -340892.0667035291 ev
CRYSTAL
PRIMVEC
9.07773414948540 0.00000000000000 0.00000000000000
0.00000000000000 9.07773414948540 0.00000000000000
0.00000000000000 0.00000000000000 13.28618151920235
PRIMCOORD
 96 1
Ni 6.4920866476721555 2.0715207222176257 11.549624452586627 1.0714447646590772 0.1829563585229946 -0.22799668659208475
Ni 4.515437322521535 0.30883903190649864 6.157454142640962 0.714971081538801 -0.48791439026248234 -0.005415000367984223
Ni 2.8066719249804555 1.5116424057402935 4.816917943322636 -0.35124277373864027 0.12347414399696155 0.1476923931143779
Ni 3.312401558699709 4.349142315070529 4.874208429786091 0.7744836350821371 -0.4986425753132637 -0.08078406132760281
Ni 5.311790607288551 4.580424819565137 2.565668075244334 -0.9974617854137079 -0.4735432091424748 0.8531557922730597
Ni 7.171155610354615 6.093020387365716 2.7332466742698567 1.1659675157290115 0.42722504280222556 -1.1865440543287824
Ni 4.724424912539389 4.89997013084211 11.066139805807637 1.3698644810594152 -0.3603120830297601 1.3161590211161591
Ni 5.730038119341482 7.870195587633515 12.521561082138776 -1.0505100713889393 -0.3184961754352386 -0.45928335678935095
Ni 2.0287192068438884 6.498786015295871 0.4551530392537649 0.6420774787028684 0.6396956087342532 -0.3282794800742475
Ni 2.7877811607190033 1.6078754628934195 0.6858418599508247 1.0287289709581058 -0.04248979373309457 -2.1909048808551685
Ni 0.8530991071960229 -0.2529428853712309 4.434077224602413 -1.2776881187344706 0.23350758910798494 0.3531140226194241
Ni 8.412499411265978 2.1424178240349936 1.499611684992719 0.28441491748081343 0.9837012412945058 -0.08275481190072845
Ni 6.712203539460572 0.8729303246902894 4.591850055461083 0.5288052149395731 -1.1961481530774496 0.8661840862119277
Ni 0.7093985794407183 7.351039985465108 2.373948150665276 0.17587734018902615 0.2548955678654578 0.05865431930809899
Ni 7.681787220383903 3.7067020087047253 3.65540010330003 -0.24614019027033093 0.05453721181593188 0.5212600556024636
Ni 7.930272030633175 3.935170415688017 12.622111509538296 -0.643334233928105 0.02023149655552645 0.04414429861738203
Ni 8.057069817852764 9.132654197613663 6.427615673687888 -0.8071495007462743 -0.24491094584892018 -0.38481701014965985
Ni 6.879442631237955 0.6074529043396192 0.3073384824915933 0.1310902657813226 0.7762294141286502 -0.11027358614628749
Ni 1.7443319589905604 6.356465303094502 9.40069063115285 0.8824771669449964 0.870677860317223 -2.5740810129672957
Ni 0.12225165807872641 4.944741514473769 1.6207676605888135 0.43037695816764593 -1.2654926051095432 -0.6870573858476684
Ni 6.460459822738518 2.033675649557369 7.184342834402001 -0.833483767765429 -0.6858535953475544 -0.3113739625681605
Ni 3.743321587287473 4.432848099431341 0.5807670899718195 -1.2220533029789857 -0.6671593613721606 -0.16855998059200647
Ni 6.168138635450058 5.721613982275347 4.818353133053407 -0.8011182069505299 -0.5542033432977036 -0.31793747471829115
Ni 5.430763387879898 2.8727124391573247 9.573783045753771 -0.3578150276395192 -0.08844903407202831 -1.1163405967305031
P 0.4513403910126261 5.491375417180098 12.731270352002273 -0.6725581637902288 0.6377325714706114 -1.1748972141184733
P 4.077073552129642 6.299684077503256 12.760871934501154 -0.8268968585765307 -0.3422937920754685 -1.310766389345678
P 2.4042105921926202 8.549191928444714 1.3840348846561579 -0.014484566769420214 0.23648081280369593 0.6115654261569403
P 6.228324011256607 7.8735271159775575 5.61189685917606 0.4821744024549115 -0.42386692496326994 1.269541578367936
P 4.6990980349375375 1.1750037215155482 12.678338085587795 0.2829470746860353 -0.2031487743104695 1.519456662299667
P 3.958636357838836 5.895352731530481 8.337517329190248 0.055754114942168496 1.3486554510819675 -0.45237428837434346
P 4.728328338119602 0.8241919713410646 3.8134398195355796 -1.129032847486191 1.186761055435595 -1.2530500084708163
P 0.19293634092265916 5.672176643415247 3.6772293300273313 0.5071590974247072 -0.8167677405623287 0.4414512137039365
Ni 1.3911264103846759 1.3141199936475787 2.507620505772995 -0.1219026857447836 -1.1130529271181668 1.0528446330593868
Ni 1.8292541596949745 6.372369492900396 5.051804308178511 0.5071665536238749 1.1574178263867874 -0.872961257034761
Ni 6.01859204705834 5.595642268841338 9.076002783617293 -0.27004425058143816 0.46164620059457273 1.1821094155961964
Ni 8.56307178358924 2.4181812246762218 10.103369871955255 0.14726507576897216 -0.21063248428202433 0.4644242775603421
Ni 2.3334133454482346 4.946675071796061 7.1835993679949794 0.902729232325813 1.4196824330228066 -0.1453236357718852
Ni 0.5987055999463778 9.168420469209106 9.212690761929075 0.6456775373493009 0.8170896426781218 -0.33219424174762147
Ni 1.4501952249206058 1.0631115733720304 11.377275504392728 -0.04069696349872991 0.6408307507799609 0.39002837914727023
Ni 4.207057623950755 6.927436610406768 1.7054011893549696 -0.4452101665257365 -1.042419838181637 -0.7865709052639744
Ni 5.380082399474473 7.87373590385743 8.200629640732501 0.4518747230301057 -0.1174140538458107 -0.3605149430691855
Ni 5.172919433972022 2.562998313702146 5.108895084496002 -1.5254923269707859 0.8977572330325185 -0.18159778761257112
Ni 0.692555751948792 7.761335402615093 7.01168887434881 0.38756191988464866 -1.9874820269477063 0.18561076542670615
Ni 4.952230644947435 4.3430965442881515 7.050045931201447 0.3398031644431309 0.0695496260643641 -0.0392273209317389
Ni 8.216592835808793 7.526076850669011 8.98889829568152 -1.5015041915863043 -0.6972471818964766 0.5657673939862191
Ni 4.8443236219892984 0.5081824374210526 10.699720707726035 -0.6436209119305882 -0.8704983973165653 -1.296112129767613
Ni 8.198037947701918 7.113884187132364 4.7959529168633255 -0.07817336317763311 0.9648910505665381 0.7011200345883215
Ni 7.006022552843765 5.9289312692542255 7.033199472615959 0.8229242470820278 0.5449491716892872 -0.6428076720006736
Ni 2.532705915652907 5.40502801225221 2.6144808660116 -1.1013130129734192 -0.9747365759020504 0.5527444993639901
Ni 2.291782857748562 5.371395008125021 11.41600474833557 1.5906404815333446 -0.5379102625646349 1.742856730660005
Ni 0.9951102686711468 3.341314141195012 3.8381385179510334 0.677953109553555 0.7517905643599955 -0.12814018201406316
Ni 3.829496515271119 2.733550778355757 2.9298949005872816 -0.6290293872696586 -0.0030603840928786004 -0.42312901835598093
Ni 1.0082003609657235 3.355284773678613 8.226709970248674 -0.7313307538437469 -0.6593784318751612 -0.7114371002436135
Ni 3.463282573975825 2.475842990456493 7.3642644282215155 0.08862464041794414 0.4197390188378255 -1.0623181197674607
Ni 4.114873236120362 6.680095594629838 5.982554351219062 0.23827055771426706 0.769640705167539 0.7893816352398921
Ni 0.8167890793395198 7.4266393534465465 11.335942766365218 -1.8584995515380056 -0.49004197812844635 1.7166211940022436
P -0.09978608220451113 5.787890517533811 8.145571369036894 0.6721622139033908 -1.544030237873973 -0.7285169385440357
P 8.473075129630548 1.5247778867044075 7.89836924258875 0.6669367038383934 0.6264454285925664 1.286376390537088
P 1.6427521165659325 3.099755641917143 10.238211439190257 0.22623368115439105 -0.4670120928921764 2.029641176814259
P 4.1892924986938285 6.078623101388462 3.847120027879088 -0.3204047053118611 0.40578332798868183 -0.40311092336284127
P 6.9244500359512084 4.206458493512861 10.52828861065679 0.25602016838820424 -0.873381118180999 0.14333103082188864
P 6.4045409818684815 7.912443361238896 10.364377416129885 -0.18435992373874058 -1.444536773062325 0.16394587885876283
P 2.479882582045319 8.449954141368215 5.795790869353485 0.11302389519791502 -0.6647044720737649 0.5868630383142538
P 7.13258431898176 4.059381048743977 1.4743274727402331 -0.10240472492117202 -0.6888018793426008 0.528519051157722
Ni 5.609149936895657 3.008070529451661 0.20621343453572985 -0.3402847320652398 0.2291266864314699 0.7020651721104102
Ni 1.4631037625370331 0.9766461579033459 6.881936284742339 -0.5789823500145964 1.1708484979703964 0.39080485230197853
Ni 6.921309140019223 0.5490031912561791 9.295476971845059 -0.2452235919933325 1.6833686025967007 -1.1947636140250972
Ni 2.7229389074179204 1.3494142230798356 9.314622820429312 0.4657327119591205 0.1761007690537419 0.5971662200124749
Ni 6.160912759259709 2.080652922528544 2.51080951369469 -0.11114004791164085 -0.2602596603908486 -0.20721883061478508
Ni 4.1022733414567885 7.067487889131268 10.2909312866313 0.74974808000867 0.28532303111737956 0.1705793250148804
Ni 8.044823954811582 7.293977350122731 0.036366309806729384 0.9522980443928761 -0.5609362911461631 0.18124194693504916
Ni 7.634764558743191 3.7882654478633744 8.329292902270078 0.17801366980573857 0.8967622161091007 -0.20021771670660357
Ni 3.0442362213390357 8.615731717986494 12.454532910512773 1.053744519165837 -0.5989135417208847 0.6934725453453928
Ni 0.2719171647846319 4.909111408886936 10.438168499516955 -1.6827250554754312 -1.4045916001279553 -0.5989577646952587
Ni 8.724882390489956 2.5847757973461745 5.8672571450868505 -0.7157395842737092 -0.38661266859750193 0.1360707497150495
Ni 3.6745849861400846 2.7640065756153303 11.59471718799861 -0.7068980747226794 -0.0029374853617691343 -0.12098325925430777
Ni 1.146989834677085 3.2861759854410177 12.557208435420034 1.068012856159393 0.12683046206370416 0.3185684234340707
Ni 2.9971409378270635 8.40107054427647 8.009892834735624 -0.058625522952692584 -0.7798929790231666 0.388364361181286
Ni 5.521286550405223 7.923400186065217 3.3430951925876577 0.9332716238890444 -0.29469881590532476 2.092821151906854
Ni 2.9899967612418816 8.421431901430934 3.5751783532129053 1.158830647573914 -0.8787038159454932 -0.70374410247473
Ni 3.300600504619993 4.09407614773834 9.363635321342542 0.06928788776254517 -0.3419083837115918 -0.3390053511321839
Ni 7.518941751817738 6.197359860898215 11.280898111270472 -0.8600679460118608 0.26321462925411443 0.025064142057479415
Ni 0.5266256694008664 -0.027400232026317854 0.3601908648476852 0.23295480192830847 0.2780102995060503 0.02165640192751109
Ni 4.681251210075445 0.11837909679379824 1.4507716610237302 -0.23834794791942177 1.290749837014435 -0.3887032325779435
Ni 5.916894194092916 5.5324340076436 0.43173702463943714 1.0333754685911816 1.2737198781153418 -1.091090821024779
Ni 8.221685444530888 9.2309660558316 11.310353542253443 -0.7581265338803523 -1.781373398677964 -0.43098528117560614
Ni 0.25302004610944445 5.004509314520575 5.998365040365708 -1.429046647846526 -0.42073095043744957 0.10190515957693418
Ni 7.91016485002812 8.912146963267226 2.503009924721389 0.7832518681930705 0.2661451726373481 0.6468599876931763
P 8.628749188409811 1.448515844147723 3.8351356035744413 0.7454165425128517 1.0991028926959783 -0.365722455412054
P 2.0433252807010134 3.290279121167196 1.7167474489659207 -0.475856944877316 1.2737355618446258 0.12082847884399836
P 4.730243739974079 0.9885470670560434 8.349368310806454 0.7102798467107186 -0.06902820634325531 0.12531145431601645
P 8.662073549584147 1.6874418005924243 12.584763896696169 -0.2093451329291685 1.0975301488922193 0.6754503977363594
P 6.527625975919914 7.78024432234436 1.3971213458571714 -1.41668169852327 -0.7783222921019369 -0.4842875921431724
P 1.8140671108677713 3.198957118058013 5.969082994100371 -0.29204672299445833 -0.6007912183595717 0.2644852684364219
P 6.739055476358879 3.7839353687895096 5.801915616420857 1.095609277720423 1.2089519897103371 0.6118937560306366
P 2.3857192482230967 8.312081518781508 10.397925089558345 0.41078463785801506 1.6722393254527588 -1.686042292774122
