# total energy = -340897.7413784458 ev
CRYSTAL
PRIMVEC
9.01578340301783 0.00000000000000 0.00000000000000

0.00000000000000 9.01578340301783 0.00000000000000

0.00000000000000 0.00000000000000 13.19551033967516

PRIMCOORD
 96 1
Ni 6.138071377019417 1.993669139694073 11.339706718547625 1.4165526291445734 0.034197986037947554 0.31049130285289106
Ni 4.515365650061922 0.5459273065034363 5.973066317299825 0.17926785392781386 -1.2896530044058305 0.37161208142361163
Ni 2.8078304196183423 1.6843556520120009 4.746939646112671 -0.4598009198557178 -0.18995927220338898 0.1259557727682347
Ni 3.2536879428298815 4.212417305270824 4.7358817881016515 0.714809359149956 0.06084129965708877 0.24014283503631548
Ni 5.363083674802347 4.37389899694255 2.83844621597694 -0.7940862398044131 0.6384830764833906 -0.10605697696177864
Ni 7.378201362566714 6.065800859435777 2.4923284983946767 -0.2565593287211259 -0.8330330533812556 0.07211687257090806
Ni 4.761929287147421 4.53027775536174 11.55397491887709 1.776969613183314 0.24419026563281176 -0.050238584440577994
Ni 5.563738944181273 7.752383409881306 12.45372392964882 0.12383846931491575 0.4985245616781608 0.04456904485962647
Ni 1.7737651733289856 6.5712797564971925 0.30554489033302495 1.5105920128201855 0.6447095170090767 0.33328413237769056
Ni 2.7306823633604576 1.5167883067263828 0.37966364345866077 -0.09996809045522138 -0.2130035556173622 0.3521370034181355
Ni 0.5041544785193701 0.010565596252029269 4.669627502601791 1.0164599237827656 0.4598317730936532 0.34144841335603776
Ni 8.61773630642732 2.329443950867659 1.443416962022364 0.1965225272432035 0.4162150648449671 -0.5330164248074433
Ni 6.798504538765214 0.7427418522682617 4.73435090812589 -0.46773123044638804 -0.02176207426743994 -0.31106877262291593
Ni 0.8984119701332999 7.274483793419735 2.4460387630616336 -1.0397633743953965 1.0158847680055858 0.333988871754199
Ni 7.688452491694481 3.8585568331350646 3.726464791316026 -0.29753782801601664 -0.4074445177411886 -0.135755789577792
Ni 7.709946118680434 3.799485422056222 12.40406950405103 -0.27536257747055803 -0.5646175966524921 0.6708288398039479
Ni 8.06031748274423 8.936804871457882 6.716185029302992 -0.1516287520543066 -0.5926768167825535 0.5250562894201022
Ni 6.8897622956241955 0.7085116284521686 0.3568636294969261 0.089430167038375 -0.30184879668654463 -0.4649945482415153
Ni 1.754786949836775 6.327015144110275 9.238492809767168 0.6394012174222858 0.5705630156026495 -0.5065335480255664
Ni 0.24645274295297934 4.856892530873528 1.3430523626220614 -1.0628714211677694 -1.0102548234133182 -0.2556509579742436
Ni 6.300301378691073 2.1135700395624384 6.9058302243214955 0.5929236426860369 -0.43795502762521993 0.9940422182091978
Ni 3.5802125605103527 4.419690159468412 0.8097624793343169 -0.28035463136851074 -0.25894402690321855 -0.8656328416941478
Ni 6.265969276525592 5.780965222956248 4.8251885294909345 -0.9584283256603301 -1.074281205666608 -0.20915255730238816
Ni 5.318996495288375 2.8130415422684596 9.250052846898624 -0.19112475326639985 0.1209331227426627 -0.5199017418023563
P 0.3154054523441559 5.505280606355385 12.447469680890366 -1.0765823429959587 -0.6652870840501123 -1.0110901748304202
P 3.888164664939539 6.226723572553339 12.726857981201729 -0.1348484472721742 -0.7127326791265854 -1.0733597222936029
P 2.403887272186036 8.485438704752879 1.3896846977141093 0.2556944096176693 0.6975531431726696 0.04308500411493225
P 6.297416328088932 7.934096518900549 5.8088221896765475 -0.11840598544543478 -0.8826890258454863 -0.2989748175728593
P 4.6412530299297305 0.9477751859359371 12.58359448250421 1.2033629256583338 -0.362133452509215 -0.2922814647130837
P 3.9059978839740253 6.171655169184968 8.137947883399658 0.08259926015947065 -0.1788330803832404 0.24579103446102832
P 4.74097660714937 1.097906006644864 3.837346301739447 0.35739208116948773 0.19633200849895222 -0.9681301263291262
P 0.18684669593442732 5.53179602454569 3.5502648336818132 0.3064312738509045 0.24478624734559778 0.9333317877030184
Ni 1.4963675579331015 1.1635589394098416 2.6880178744246677 -0.07624529291698481 0.22009800057029838 -0.7562776535970717
Ni 1.912950833316039 6.336463684832288 4.802677020589414 -0.32680572374219846 0.6378690970484756 -0.1008774896433682
Ni 5.898098277403184 5.7872672553653 9.119852316380616 -0.2528523121831839 -0.9482326160742508 0.1915890944973281
Ni 8.558746037396663 2.427499608207936 10.08602781411002 -0.2920606069515293 0.05628967573066434 0.13289209487675177
Ni 2.2893958421966856 5.193199273251883 7.033589280767443 -0.057486010031610676 -0.7593861173190664 -0.1769983411673468
Ni 0.6052827147509273 8.951176029769798 8.947664382240005 -0.5548656594720508 -0.24919388949499022 0.24072133324760478
Ni 1.3950481870991525 1.1073906104994036 11.373487054785445 0.46363186356603375 -0.5947789507272208 -0.820512809427058
Ni 4.086403704439172 6.794294168042715 1.623219626596001 0.05202550113767169 1.0431268915509906 0.6705676157227612
Ni 5.653599254654842 7.906751648662128 7.937600953803837 -0.8749137527754416 0.5130253263974971 0.0011343707147593366
Ni 5.346611839020746 3.033738897549136 4.8918530331232875 -0.19590391982259808 -0.3049014674699394 -0.43248629120116483
Ni 0.9486407011165795 7.314640091488289 6.827660679834792 -1.0809365061995966 0.11695202660772762 0.4570783787182322
Ni 5.224493056501985 4.65564221980791 6.958467070979251 -0.39595168661024066 -0.03816854064992137 0.05230215183782606
Ni 8.027824600337613 7.07559561753462 9.31183350080854 0.6878580273720928 0.596912966351088 -0.5000944772684419
Ni 4.488714995124642 0.31171529230835454 10.313306691076832 0.5060879758477155 -1.0099810009266412 -0.10745977084657622
Ni 8.154568479602933 7.282030003900961 4.560948547997441 -0.3858004571088517 -0.8573806289876847 0.4405328156547252
Ni 7.285933837996984 6.295955771221598 6.927985609789315 0.3504992107043963 -0.11118298533443434 0.6138634781624975
Ni 2.2263033918411086 5.345007029623305 2.568004277267156 1.0233594791160763 -0.9810175238147556 0.22697055932041557
Ni 2.349981904841653 5.028805483628621 11.522781210819751 -0.4894760783226474 0.49134064233521185 -0.17925448419137513
Ni 1.070200505081176 3.5186347617208997 3.8563353441714154 0.07051276130858179 -0.9661714599408587 -0.5518464130297528
Ni 3.677528923633831 2.629011376984373 2.5098786218388276 -0.06641905085518238 0.049034536830147815 0.574120908157237
Ni 1.1107354660412612 3.213612786809513 8.286001467675044 -0.47950019805685806 1.1035750695347188 -0.41894711906414944
Ni 3.6767535662845052 2.847139234072517 7.225108857099027 -0.49746732405824007 -0.401616855315818 -0.6824144877590184
Ni 4.108961193834664 6.818195009124828 6.002175576297117 0.3383090963961077 0.586963311337544 -0.46501665972870243
Ni 0.7401191609552527 7.298673139562063 11.235277804111554 0.3322749743868858 -0.040120779280285734 0.39987801824784036
P 0.0619762964038737 5.595817100563831 8.029679146927803 1.0028230497256214 -0.13357986497239574 0.14839507560835732
P 8.370117822715413 1.6364367646670608 7.990554254449514 -0.07613756369452694 0.5880650290421551 0.31692754539653806
P 1.7722775691122565 3.1700845858497066 10.373505075047136 0.249771359265015 0.08940368467581376 -0.03307312840488497
P 3.953231571800957 6.062915808833636 3.783231768226408 0.48676382159780684 0.035917796942531686 0.1877046718412574
P 6.741461678891001 4.086719256848781 10.351693190916635 0.018117278426001054 -0.25846323061205806 0.28766993408300134
P 6.15008040015083 7.623151174471641 10.281981352585769 0.19235554034970742 0.5089115613394397 0.29398919143280977
P 2.3344747578551432 8.604510152573129 5.776017361173576 0.7579779241176301 -0.09653463929364019 -0.03743911868306456
P 6.891033521045763 3.8844140991567557 1.3841697431724536 0.8557862879173713 -0.16445341462280064 0.44711149731350747
Ni 5.244021242765228 2.6815012663770807 0.4767428914857753 -0.2005599305373707 0.8257756004878941 -0.0978106777925864
Ni 1.2914117600003587 1.2115409372367036 6.963191341340257 1.1701165049003786 -0.5126268054074978 -0.2768797854460328
Ni 6.995778889469755 0.5198049764576734 9.31476363032634 -0.8108171794058487 0.23905037330308507 -0.6391795883297832
Ni 2.7865351398612868 1.5742008137089942 9.203115778336723 -0.30043340439625676 -0.40270443195304195 -0.3579983472949189
Ni 6.43635856193143 1.9371942741571575 2.5338939633667144 -0.03640450677096311 0.10366687946304727 0.5232135797844086
Ni 3.9773127285457046 6.625644928781293 10.462521508219579 0.03268977692353725 1.3645556672519918 -0.14430265070653858
Ni 8.12476230056956 7.100902920785278 0.27792774344402754 0.17795042066797093 0.4344506140163873 0.20839922407613143
Ni 7.55092573580366 3.9911249083034566 8.189991491527348 0.09929677541980964 -0.48650851105389115 -0.10576078587759852
Ni 3.1636563324768106 8.432651294516825 12.307557348782899 -0.8781929377473456 -0.9128208122338602 0.15248338674511805
Ni -0.0045178089272906105 4.882154755208527 10.26809884971959 0.7290987791894347 -0.7845117087421005 -0.5588472698276182
Ni 8.511710696798627 2.2897023788231636 5.751183386537331 0.24093936279568184 0.922923704995817 -0.30926694352748674
Ni 3.6842096189344145 2.534057149041398 11.423775289937396 -0.950350690858518 -0.0736227676924732 -0.20004776678764258
Ni 1.1281088801360304 3.2068329178944808 12.524993695304842 -0.4831182544254196 0.4307621094212066 0.6882213242487826
Ni 3.027508991405137 8.319160616455093 7.89982211774711 0.36061932985753375 0.14478524676991195 0.5211114458397412
Ni 5.617175490802809 7.6506222656739045 3.6042215909900475 -0.9063480600253229 1.2807374470837554 -0.1663768568977586
Ni 2.886925885032672 8.30678194621528 3.6481627148172855 1.236767983481341 0.11216437541109715 -0.2691477069090978
Ni 3.423130571006892 4.318947798754891 9.347118571251041 -0.013467438358815515 0.10751942043991805 -0.3070843340538711
Ni 7.289819640526742 5.948676820771974 11.445217526959498 -1.2160266371689314 1.0703139934887438 0.14707841367946284
Ni 0.5407928180099381 0.1532502816724921 0.3342331122580673 -0.200534476616074 -0.4483181160270988 0.16146425008748966
Ni 4.733006654860955 0.33542319563145057 1.6596785520022481 -0.5995493755326706 -0.6485018941719735 0.05462488643373173
Ni 5.885737638729635 5.57012211863851 0.45263017950006634 0.44473142711710506 -0.07758560899496315 -0.20933819095063302
Ni 7.93708975890027 8.656504173893593 11.40441750197534 -0.8353352191518709 0.5035685518599714 0.37433205145793597
Ni 0.08954656122058631 4.94485051110631 5.809574105989731 -0.18335025152730358 -0.6573531739150162 0.09497860766042998
Ni 7.941408319020351 8.657036105098364 2.4898870243226154 0.11394897811534568 0.9585483961779621 0.015721010279682604
P 8.504272675714983 1.572280451901944 3.586025035895354 -0.34249588078394566 0.8911073318161684 -0.5958696126882383
P 1.760926698149457 3.1776848910297226 1.5011477261495243 0.4870456145042838 0.16520417674589616 0.692707127934278
P 4.779185496061478 1.0012748430393945 8.116808576690781 -0.31207587373119156 0.3013474315700939 0.6571783389000488
P 8.472329756079398 1.667234679844919 12.137348379039695 -1.252777214425404 -0.8863114530894219 1.6354663795987834
P 6.323399815074468 7.628578675916918 1.4781872312480457 -0.7056379770633331 0.7508922209154424 -0.9460320088785062
P 1.7102940600818775 3.163295701151543 5.984744461190305 0.3107484131690197 0.6493336460446494 0.55048115725111
P 7.048061415850435 4.028459266251791 5.910612184389971 -0.41337862383743645 0.17173195056208487 0.12685822997784604
P 2.280325964366204 8.437510801624807 10.172168212463454 1.154375697126354 -0.10583200543516613 -0.17716931952757228
