# total energy = -340889.39174816717 ev
CRYSTAL
PRIMVEC
9.10043341524405 0.00000000000000 0.00000000000000
0.00000000000000 9.10043341524405 0.00000000000000
0.00000000000000 0.00000000000000 13.31940418911726
PRIMCOORD
 96 1
Ni 6.68281233125181 1.707960257533307 11.051908610202158 0.37869289952979296 0.5734873883382962 1.3293945459698269
Ni 4.835169520034401 0.5193717499225226 5.775666559975684 0.054524613410441576 -0.27112000014412013 0.09027400309590905
Ni 2.7038570964065953 1.5846766850035956 4.685819575850681 -1.1909298421013037 0.9038024107853339 1.3381861761195277
Ni 3.581930622845974 4.386709257932707 4.617811126314121 -0.058321361448712465 0.2802769840530399 0.228471055125342
Ni 3.4531867902204607 2.931286029830233 2.6546637931168187 0.5791733829794798 0.24644795131873687 -1.2214958878136188
Ni 4.769701001485737 4.893348591355169 2.5235875193870485 0.8410818918276611 0.13815025795189756 -0.6312335940098289
Ni 5.2987274013009875 4.718192547915341 11.484069995917887 -2.2514222215139355 -0.12268301555423386 0.8493161068119954
Ni 5.967809472573553 8.076052297296595 12.249843263010257 -0.7374980589967234 -0.02368860186619146 -1.0579061067426943
Ni 1.733022851373037 6.961604111309956 0.10545855344696646 -0.20200437629338114 -0.7193496702224709 0.05160718265333048
Ni 2.9294113405306743 1.6218701566894986 0.2251793062641672 -1.0081699158598314 0.11502729878118899 0.33420947240543736
Ni 8.328753134530302 9.085326773404597 6.8840010747417235 0.06090609145675317 0.2836299596856728 0.02649958895242533
Ni 8.565136894511054 2.3786349046671478 1.1790576236135624 -0.012079813982669519 0.4715896849605298 0.08252186995431594
Ni 7.188286809187169 0.7311725089086261 4.8114346794413 -0.7000751382635749 0.5810346045579349 -0.31926262128761795
Ni 0.8334295298527541 7.92154513745239 2.491553993491678 0.469874759151952 -0.828998735410882 -0.5176353143656827
Ni 8.003157825017642 3.810642717392125 3.567029573044531 -0.9912209467103187 1.2311393244406539 -0.15567052622384803
Ni 7.2971097928964985 3.65604455321299 12.746150874288114 0.5409624191273974 0.634084690305379 -0.6215767876463553
Ni 8.642727190472398 7.54030977756351 8.773491319333358 -1.6175419339098787 -2.0089571661023466 1.1017981801399541
Ni 6.676105311767468 0.7841370318379034 0.2337209731406998 0.8354414057124322 1.3405960711126008 0.2298525088539009
Ni 2.1735748367693115 6.379130865590301 9.004197318857825 -0.3863781839891926 0.19758979216545325 -1.0154739057204125
Ni -0.0667662403647657 4.728803653368182 1.1938649389500273 0.09359998214534848 1.2867173188162744 0.36084147317066884
Ni 6.639949289499767 2.122994627415201 6.814966096307152 0.7237184887141278 -0.036638477158640124 1.5058087324989293
Ni 3.2571634527811764 4.923507427950981 0.27629371106431705 0.41790222273940286 -0.6569772786328364 -0.33051454005235337
Ni 6.02983802726186 5.745904502280167 4.514412000966621 0.21123669352492655 -0.41295156360234686 0.4358575216662429
Ni 5.396183943577556 2.747894094079237 9.276259328347896 0.827963095057516 0.33619359271500165 0.2586221247874255
P 0.23129661765816384 5.902404657059339 12.287469915330428 -0.5964110870140051 -0.3737008456318403 1.4434201429593787
P 4.274664720766855 6.545386685073972 12.302148004511293 -0.3567899288091146 -0.5155750894025443 0.9465223182513632
P 2.2463965055803214 8.800583309842027 1.0376086757884675 0.5909531492232274 0.5222396459069135 0.6682641644005652
P 6.664374852994987 8.025745100947274 5.815837693500498 -0.9188220241226177 -0.299701925546871 0.4867761628929811
P 4.871971673080106 1.2941089440055031 12.380479985802316 0.2805487496571878 -1.1944301419450785 -0.03217478496033169
P 4.128384352800325 6.267859865271354 7.993707024835158 1.5704164411769856 -1.1402546843439394 0.554522160089703
P 4.585289817183526 1.486027985939443 3.735520458994084 0.5844418304672709 -2.030504810366135 -0.7211232171831258
P 0.3350870616458628 5.7364946540484025 3.3432235221944584 -0.4089524697452828 0.28638386828172613 -1.1098961266567402
Ni 0.5884003580536488 0.0881367883363846 4.594648702987729 0.06664196549926588 0.05578573951105231 0.3338382051089476
Ni 2.0184943496150476 6.953231712496395 4.427769503809787 -2.0908773979169215 -2.778712542470879 1.8452082337457383
Ni 6.577247302732976 5.623085051858599 9.087389841677462 -1.2634172106377533 1.0887169214759638 0.46472561085084474
Ni 9.128553832496364 2.489896804552602 10.27869118851251 -1.287882285658653 -0.243557002924187 -0.6960937850183238
Ni 2.6938648204312776 5.482437852224238 6.631372130932611 -0.480385943095921 -0.32501417905941443 -0.005645628321551568
Ni 0.6473183845740487 0.3050638215090967 9.162298239888418 1.0728686415897974 0.8115527720202927 0.43356975407333065
Ni 1.6162278879238368 1.0518645048552568 11.434402560043123 -0.7229260747198195 0.6920350415679178 0.1476301724178748
Ni 3.881453190401181 7.0394492194091045 1.4442233246026353 0.2833396821387636 1.44175509655213 -0.004716688749378973
Ni 5.9938003106295685 7.649160062573318 8.011714962631112 -0.7330791039934214 0.7360772673897968 -0.8435599210545085
Ni 5.723644841956283 2.982730780366179 4.810103286021273 -2.2063386989117357 -0.5795842452646535 -1.5494380391531055
Ni 0.8052736986687521 7.236728416670423 6.943192114266913 1.0464135327220623 1.0432603318050615 -2.2923670393574134
Ni 5.302786194638866 4.381522010841695 7.3010712115960015 0.5467443159164971 0.7487072974489815 -0.697228155733083
Ni 1.1390466577182254 7.279837170126778 10.884790069623351 0.5758021525144019 0.4087439532789025 0.2022162351938711
Ni 4.75476719012372 0.3365658820884758 10.109041817379298 0.3181974132478972 0.47219415131374803 0.31142049953537976
Ni 8.182563770898703 7.160239273161733 4.621620567774292 1.1042882935516594 0.5220864081585009 -0.3929218986449814
Ni 7.402793127050742 6.030484158039863 6.643186313693227 0.4550734324730614 -0.641287121591089 1.1252908639452555
Ni 2.3451544098463897 5.522406956125507 2.453434097676187 -0.7242962155944688 -0.5821975145177845 0.030600498494676328
Ni 2.8134809182633096 5.390186757905667 11.090188673647129 -0.832451984066805 -0.20364653988249443 1.915326844939695
Ni 1.3160955913245984 3.4187689507499233 3.614552946788342 -0.7372262933925755 1.3341498012666249 0.6258409622393479
Ni 1.428040023722028 1.3882893302245911 2.5562471551067376 -0.16791231970567855 -1.7228363216740201 -1.2741096573545927
Ni 1.570307100518144 3.6870861318576234 8.045466650369962 -0.5058280373181095 -0.6004268930416176 0.34642401219375824
Ni 3.8760657337733235 2.606254947194138 6.684130074021598 -0.641228757549328 0.4922839800850876 0.19394911008907245
Ni 4.63273037698255 7.114245682288096 6.006371649456803 -0.40623044282842946 -0.15424562085186339 -0.7719840085887351
Ni 0.1406208083772314 9.331402495055398 0.3078703951983388 1.2849849095061998 0.349386694366508 0.0324051558035829
P 0.39828138186462486 5.504824918617025 7.977337165067944 -0.9182180719900316 0.007665229854741637 0.5306918904393247
P 8.878155404936384 1.8873844042813537 7.939576736375426 -0.7293504901889245 0.15868025958444928 -0.24312145804866517
P 2.0118965353326206 3.331586797886955 10.40591797887474 -0.4052243701614182 1.276759436272614 -0.1268929398705234
P 4.067957474406785 6.586311334492008 3.8550883245286025 0.32549163291646527 -1.6246659465491695 -1.0175927518356283
P 6.923600701043177 4.014392322866969 10.488471651263167 1.8605150393061376 -1.3595361025502135 -1.1271358875737942
P 6.786184155298831 7.727441991480131 10.043549637703553 -0.38389192723222915 -0.3428296099742805 0.9948269188940223
P 2.3499139365632304 8.544597216117348 5.860285120723675 0.32398239536079043 0.789163348581499 -0.36693807298671
P 6.676633136910062 4.242358181866694 1.4830894559645524 0.8615298752693679 -0.04446748628475567 0.9332873076183281
Ni 5.114534627402606 3.1053227199504216 0.37505434546043337 -0.7824383711528395 -0.035849405598441485 0.1486437012840537
Ni 1.8263022946763177 1.1219833449188448 7.1276397003030985 -0.888211241215296 0.6684161165973972 -0.655896901084464
Ni 7.087899927325853 0.4514433842007004 9.103679617629938 0.443215761803527 1.648478475587735 -1.1635439938891832
Ni 2.8656173017447233 1.861084151486575 9.22239568258951 0.7332138297990728 -1.2128148150998534 -0.5715148379929578
Ni 6.3047348217850026 2.1617715745288866 2.4513164268023653 0.2388714245230596 0.2885703344100837 0.18770235784841222
Ni 4.276248196194636 7.079545729379276 10.124932084301431 0.9179478490477805 -0.03287232524798855 -0.23350656066672043
Ni 8.145124587508487 7.352540533302379 13.543036703406365 -0.2947098716489182 -0.8336645163176675 -0.025776594743471735
Ni 7.899795101404113 3.991149815725839 8.352784649255275 1.0187939712325809 -1.6597676753483093 -0.6920013601165049
Ni 3.232528579315618 8.518014849884285 12.171657798698472 0.9235654523448739 0.0039307025129738755 0.18350271794476786
Ni 0.4502949094938834 4.870115184647532 10.46347094037119 -0.9468935855478532 0.6739714991979876 -1.8247882753284894
Ni 8.896556481459237 2.29942473154405 5.610759424735676 0.5355744153426066 1.028689375969422 0.20830409325916383
Ni 3.5688168981825568 2.8482536746400733 11.655983554904155 1.0374303553868458 0.8531385658818791 -0.19492278685625142
Ni 1.1998557543184711 3.7237244771004536 12.53675626991756 -0.4212045476397585 -0.33087937959093977 0.20445155228229303
Ni 3.486084857297667 8.381253535351437 7.773764108002864 -0.430982967182761 0.9894412291020767 1.0738885982138795
Ni 5.547560554300168 8.272030132568414 3.461220652908084 0.7595339557508403 -0.111106366460228 0.3597364130319482
Ni 3.2159202881908873 8.573072472516953 3.7426197071619756 0.8079794528467374 2.493428335011235 -1.4691910812758955
Ni 3.849565271441699 4.406338892977114 9.306134231418726 -0.301389597661939 0.4327259180157967 -0.9282530876285303
Ni 7.2464567800744435 6.10202266572836 11.389369064902999 1.2055547911033302 0.03133300578532668 0.8843720699748641
Ni 7.826218096613185 -0.1910153688880847 2.68832174639069 -0.6235259409529261 -0.5487307502189066 -1.5085037628325892
Ni 4.556632552114058 0.5961211658291125 1.5521772169133834 -0.04634259182028148 -0.6808628270011823 0.55741927913184
Ni 5.930634201754636 6.051105740335008 0.4498917602901434 -0.04434972975996878 -0.6438679949443878 -0.7552206730874671
Ni 8.521673224148472 8.691469112260922 11.23944579340922 -1.589563703529398 0.9873293249653964 0.49228835096046186
Ni 9.619795232448663 5.192589045472093 5.390855639767403 -0.8337318792204931 -0.7591531753726539 0.7913194756925533
Ni 7.337442914137488 6.3536405513764 2.5217892737288308 0.22421150851803964 -0.6595697219503609 -0.7841561251748946
P 8.422524001242206 1.7397753730248453 3.2753879808942643 1.0306477852473734 -0.27659207900228494 1.1433281810629405
P 1.7008073168078066 3.203662004275812 1.3224021917352495 0.20604512202165803 0.8653734173851743 -0.2941979650095062
P 4.917173526239851 1.1571474199358083 8.009916716972896 0.31056997860962643 -0.7846829442126422 -0.6692509537938667
P 8.50808627694342 1.876245473685918 12.311818125140958 0.6815678234880068 -1.7326319676082034 0.04372469458146018
P 6.1636143996090045 8.066151025656207 1.2912031755911875 0.36079416487250127 -0.5530154936371896 0.8193321588553953
P 1.8341104666133141 3.477421244612328 5.839892869352553 1.2052496011580858 -1.0378594725044643 -0.413655531647907
P 7.101204761092623 4.077039707032801 5.7190991754265275 2.054569821735139 1.4377490607165304 1.4696410243291207
P 2.6171663669522487 8.79234741753086 9.980895883234275 -0.0059222790217059295 -0.5275098931669173 -0.029583370084071636
