# total energy = -340855.21825881314 ev
CRYSTAL
PRIMVEC
9.47608582930975 0.00000000000000 0.00000000000000
0.00000000000000 9.47608582930975 0.00000000000000
0.00000000000000 0.00000000000000 13.86920946863144
PRIMCOORD
 96 1
Ni 4.9530931961991245 4.082420955920928 1.8769899108789 -1.1703018814383073 2.2588002591455614 0.20600295592981296
Ni 8.988891809936481 3.305486156471977 13.230324328569397 -1.1255451460479067 -0.2132120720837425 -0.5208579350680385
Ni 2.6849825815690416 0.6863149908510865 3.875986321774451 -1.3048955323871978 -0.6700626510618847 0.02508316822087293
Ni 6.347319177461533 6.843648123914566 1.0078035208556595 -0.41272787762731505 0.8292005670090429 0.1264936475495757
Ni 7.221914517264933 1.8532286257111552 6.277661418283237 0.06938918922709984 0.46607826822399734 -0.46411857339446516
Ni 1.9457815558141922 7.778454512952602 10.754406942567597 -0.6983360440852813 -0.13088354908715522 0.3740435736832397
Ni 1.0834861753917429 7.847127706815273 6.90335694060129 1.8700998547810952 1.4647579852052066 0.7566188389865743
Ni 4.550264788430096 9.58951455681073 13.83093001848919 4.213628247503672 -3.6000141663478193 0.6802640170749188
Ni 0.7976191995542966 0.7592581089795946 6.310697896241487 0.06350701941470997 -0.19131167246622535 -0.20949399980220698
Ni 6.466869476036317 6.8887353401969715 12.11583619084274 2.3931617394789884 0.6827351043232306 -0.8714301651022153
Ni 5.623118795543389 4.779766110654469 11.448047895358137 0.7432249341781716 0.07828006395882647 0.07402360267531767
Ni 7.04248483245885 -0.03415465608378995 2.176994259135792 0.17605294653494197 0.6386535406229841 -0.09009325454367065
Ni 5.082024819725481 2.562466268135831 10.789842765452855 0.8955854221921801 -1.8447150961594039 -0.2093947552201813
Ni 4.112962380485491 4.150317110747205 5.640468561052313 -0.3835360865547072 -0.360779766694798 0.20224400310801297
Ni 2.663746673269573 0.3904924392620018 1.0258412501943646 -2.6378716250606957 1.0951431367172815 0.44343661956508146
Ni 5.164154055437882 7.401600056387877 10.042722574786865 1.0888817291886022 -0.359642053545929 -0.47444900878619584
Ni 5.123729073373834 8.274176989913817 4.965884016825015 -0.8586114160709922 -2.295935473434962 1.9350304940162093
Ni 3.7168525175555174 7.840608159778221 1.35501583339916 0.28308154338137054 0.45925995975058326 0.19929417645106967
Ni 5.244710260905878 5.88763425483449 4.209152232322279 -0.8100561328701081 -0.9178478331348063 0.6739884684788522
Ni 1.4949378212475708 2.6905450439393173 13.89500636312559 1.3657154918880479 -1.0363607764717506 1.2745007221454243
Ni 6.156821424429757 5.5798225594790125 8.076650824037008 -0.17696568815719846 2.1863889952626865 1.295186275519234
Ni -0.06288899108444924 2.8763521344953062 7.87042940182125 1.3238898141015136 -3.253509421514797 -1.2000032651574817
Ni 8.42950898850591 8.157478993167743 0.1849807758733865 2.242886673239098 -0.018164329613852587 0.8290501574741077
Ni 6.068220022109353 9.363822621081843 6.845911013205915 -0.20703756784191443 -0.19488216342630307 1.5431619763364068
P 3.0899525847310554 1.3799076156039987 10.149806134870447 -0.24176263002792556 1.0835932270961532 -0.1719165557690652
P 7.241492110547709 8.047148926085766 8.34431234381692 -0.7586983472234224 0.25535579533132796 -0.3961573748631435
P 6.58672300935701 8.643706432147669 13.443979740102842 -2.6173413663178278 1.1280830819784122 -0.898656090697704
P 5.855538752197141 3.279796487841964 8.059772019992826 -1.0618378376969329 -0.731295015509805 -0.10926339971421827
P 3.682539610838706 4.573746529066455 12.383622794955338 -1.0268975741763215 0.3442599146629039 0.2226580479879907
P 0.1914586281328762 0.5805306021320086 0.7043072349779049 0.4662924411173325 -0.30426794765099857 -0.3838549033467067
P 0.49713915178975954 3.250107911000271 11.13546309558033 2.535039839904434 0.41274484690817953 -0.2254644070885343
P 0.2366766143994547 7.029350977526649 12.531260211869983 0.5694985788938772 0.33480519700790723 0.18020270703725738
Ni 2.80525306266536 7.466293294210486 3.9126151838631453 0.5053444128134715 -0.7352614563567209 -0.4156023709616326
Ni 2.6041136652693266 8.466551007935905 12.893039163520106 0.642088791556778 -0.836870939070107 0.7737084474790095
Ni 6.26637445247534 3.305552489072644 4.190678603036329 0.0650936471755395 0.02870868078860217 -0.9713609745615982
Ni 9.081037268349702 6.116557535824473 7.903687620187445 -1.0897289076802457 -0.6739884684788522 -2.3522670581471554
Ni 1.168941517223338 4.111086115495176 9.165009602752084 0.6014805311171125 0.18935094919542872 0.4442362326482414
Ni 2.2954206939335493 6.344173116972723 8.769583913217568 0.5303710167647963 -0.17744159935235246 -1.5463984809958333
Ni 9.111948260260842 5.820192952127076 0.8043396396105137 -0.4530957399214003 0.01576523325405672 -0.161352921320606
Ni 4.035031050786773 4.788152446596025 8.367433045583931 0.20581937916409712 -0.7388437743913405 -0.07271491116622317
Ni 7.790072194155256 4.110934498122222 8.467540311294435 0.1356935688812889 0.40775690677528487 1.4041378004199883
Ni 1.1787397899505356 0.27751570141338516 9.045123850739637 0.5450998383345386 0.1728364964801733 0.1694992045768242
Ni 0.08642379780134314 5.83265400496679 10.093012162178777 0.6104891623736262 -1.415549898911672 1.42508354943372
Ni 6.8733082724988295 7.490940593401436 3.5823887551334765 -1.9835739501425516 -0.10103972625284532 1.2672687231733593
Ni 8.448527492725916 7.645950405076001 10.685421037873205 -0.6950997965361706 2.204119065552598 0.2194631951997769
Ni 7.975035913074185 3.326049262678958 10.944443210220442 -2.8900572501941584 -1.4154408841376334 -1.159234824990868
Ni 0.44584320408485933 2.936743229360327 4.891906110126091 0.38308485794990155 -0.4167434265446113 0.3559599767086515
Ni 7.913081264050569 8.953214346863078 5.488726103764921 0.0865333051065542 0.11495762188551815 0.17473474194415067
Ni 0.8099817011015906 3.7177148413641974 2.5906993181971587 1.363876124686464 2.082479403661213 -0.12258865606821467
Ni 4.500657479216478 7.421082888812555 7.668535707994765 0.7546601725983068 -0.8140135748559594 0.5252902598077792
Ni -0.2189989763215172 0.5889046191620131 4.027479558005048 2.8436064149307865 -0.5626203637168052 -0.5639321405496933
Ni 6.913249974186584 6.952755775927095 6.260048217588805 -0.3557488891391099 -0.06365691472901294 0.32075514667274435
Ni 8.718226370954905 7.654564167076989 2.7119856356922742 3.408671640643658 0.031194680435249502 -1.2315820684050274
Ni 3.433593360532892 9.282631517864601 6.807507280245069 -0.9057309952666143 0.8104045173484623 0.029854621467587297
Ni 4.031373281664241 9.18645872298227 11.107988132383776 0.7159504147329346 0.49081845128315466 1.30893859210832
Ni 4.670260463037934 0.9977939314149062 5.023400067255382 0.9168692712716209 1.327265929662598 1.7697928929292166
P 3.433726025734227 6.802057583295929 5.962276435148672 -0.5809700698685866 -1.0017660692160166 -0.7785143535080851
P 7.312373232404033 5.809835590337108 10.172718362749647 -0.8622037614079407 -0.848095604141333 -0.0060840014105508124
P 8.837511339127019 1.1218264185776636 11.127752404557004 -0.6050214543908355 -0.42068647035275936 -0.5074002669012357
P 7.51860128787986 5.546589926544503 4.630277066572616 0.027132851661050044 0.6421330145311521 -1.0655343127119132
P 2.1953532277834444 2.1095377946910823 2.2550089783896348 0.8332081455065392 0.6671452203047735 0.5502523290697555
P 8.58612973476812 3.835966916183057 1.3207635736315306 -2.400073378997157 0.9609084117697063 -0.020180845823249118
P 7.506500326300912 1.5527324686007418 3.9950116451953788 -2.181132374849437 0.5799863657990785 0.13779750259816914
P 9.096199005645172 4.319721096766659 6.37261085048754 0.46840125993021914 0.7632533135839565 -0.26302693872334054
Ni 6.470640958188565 4.488812371954392 13.875450564840175 0.9590153085120516 0.45785973696894694 0.3370212308226196
Ni 6.574858949923305 0.10646666689737404 11.045605164281564 0.5858901328780233 -0.20006113652408125 0.37456859294877426
Ni 3.0528726609578207 3.5705038483109894 10.394292939194232 -0.8340290987459378 -0.9227640394895011 0.4471320661387977
Ni 7.060650488955986 1.6300099483785924 9.05792509505992 -0.8223305793620871 1.1082506206335172 0.9234188994646807
Ni 4.3379909902077 2.383605148478329 3.283147231784263 -1.3256011403656653 -0.27991343006603403 -1.031326813592269
Ni 8.953489153351557 2.0769590116774403 2.353854029470292 -1.6647515017161458 -2.60594880821017 -1.0072887988064587
Ni 7.150322688972884 5.151882524314361 2.4353085678730446 0.1510505109533334 -0.4762564943085798 0.45219328271178894
Ni 6.664227915194293 4.295566554037812 6.183933453539801 0.4372855123620211 0.08054649139549999 0.6389528170309577
Ni 1.5512826274718623 0.8262170789192965 12.265679640533875 -1.6025002090854081 0.9844242355034594 -1.031742560973449
Ni 3.6736415662634267 1.670188552211589 12.960027509325819 -0.9029290070414449 3.892584108835599 -2.263712094624882
Ni 7.927854481827844 1.1945174728236345 13.18272500193885 -0.6198024693547519 -0.7046987530785154 0.15180641528275146
Ni 2.7065027724427995 2.975254042090822 7.653237515063637 -0.21551758028846757 -0.31377922957554344 0.4756569130513679
Ni 8.510955946040015 0.47349157965173055 7.917390987876807 0.23994588853416096 -1.7085085921974381 -0.720677645005275
Ni 1.1808245288286627 5.079864272160876 12.249008362768924 1.5661224417873223 -0.4756103760841486 0.2485572843522558
Ni 1.7717532399196212 5.227586973847806 5.418020289496075 0.3908974120157849 0.010595516127659172 0.5352340012840524
Ni 2.5708052236483394 4.853745912570555 0.475111990325184 1.381097373660757 -0.23320471315558547 -0.6073261912646121
Ni 1.388341331974604 7.438281984557105 0.7405978008031943 -0.1497785862194453 0.8662162250014436 -0.09602916041213139
Ni 8.313370080822606 5.1908008087346715 12.160259133509888 -0.9886557570863038 2.2346084923907066 0.3700169690223498
Ni 3.449361567320181 5.790504375285383 10.58444007705105 0.6851509128535749 0.9701540987376905 1.2978265413555583
Ni 9.427928341584254 6.792041360595108 5.459364451883662 -2.9215954300117555 -2.205890298520407 -1.6610874226009975
Ni 4.588633459873446 7.0055565260585695 13.069524628465123 -2.380141673070236 -0.37832857421183874 0.44322244667174643
Ni 2.8560922630342342 4.321587885671163 3.3056150312389883 1.3353849592253066 1.1159117367232005 0.12126736615362986
Ni 4.647318859292725 1.2756043390969722 8.44794376584004 -0.11337973587543701 0.4394596371952045 0.3342009877650051
Ni 6.122868608973714 2.310658239915497 1.5648628060456993 1.7275758932415344 -1.3625954582018276 -0.8649098474851943
P 3.3008144461678097 8.628573123109627 9.184246056945712 0.5596175723347394 -0.5963876899752374 -1.3614885982908937
P 5.844499112228877 2.7867462670790766 12.858324470764964 -0.20139759594731768 -1.5194070400086543 -0.1287245937626235
P 0.9426753306943856 8.383843730989115 4.556493419632791 0.26671030111219873 0.49795917609299406 0.04062445838958165
P 2.588317030224608 1.8527263931632427 5.91513480346273 0.8136775316727792 -0.3381023797019403 -1.162883734597365
P 0.6789767100000788 7.584592749458394 8.986512364789673 -1.5216271875884246 2.193219130810642 0.4262349109748143
P 5.063868639314155 -0.25980489703511384 3.172733775147162 -0.4567569908230714 0.711048349445627 -1.8833603193354276
P 4.397150193917464 6.1198173093429995 2.2301693146567496 0.8841954351876837 -0.9451573195830367 0.19657549196832597
P 1.5694388078831882 5.772120768814625 2.057497026641542 -0.7113738511058458 0.8414557302273121 1.5509184803533742
