# total energy = -381167.4993950023 ev
CRYSTAL
PRIMVEC
9.27562650765277 0.00000000000000 0.00000000000000
0.00000000000000 9.27562650765277 0.00000000000000
0.00000000000000 0.00000000000000 13.57581698864363
PRIMCOORD
 96 1
Ni 1.0958781807373943 0.41538945863714943 5.225670978941468 2.049635103437683 -1.4689535113437928 0.7927106996131251
Ni 3.14072716806055 4.6129082444891685 3.5353735429235296 -1.0106638859262789 -0.6779826772399098 0.6059871607382143
Ni 0.09582000550565829 2.189882684900813 4.53276126525602 -0.581644984448424 1.4572889305216707 -0.2588992897082122
Ni 3.6689833787758963 6.932408535552055 3.6728290535658488 0.14512951748320813 0.978947014438972 0.8624698705851341
Ni 3.8973585813890645 0.32416830880167546 5.009748305043956 -0.3615189588536677 -0.5473971190091476 0.19762758738192415
Ni 4.783756010905315 8.73996844309575 8.748120791317866 1.6024151055707694 -0.805947252908057 -1.6358047367748088
Ni 9.45019389652525 1.7287912864238784 2.0006821636863066 -0.5740018660808696 -0.29602190559212244 0.19752037238009854
Ni 5.606838013223746 4.888143912704941 4.0258139515376765 -0.3903094007227988 1.1682550262116074 -1.7791427095752328
Ni 4.753350506897924 3.414052057195931 2.2608347354815734 -0.0018406527531645719 -1.2513109142925225 0.28683046890084146
Ni 6.0469015661897725 5.179871645022343 9.39274159290372 3.4221761028879967 -0.6648152866200163 0.7627077254931316
Ni 8.955969959819395 7.918463297299972 4.154553155860367 1.0787042744349682 -2.0548570139582547 2.504441398292287
Ni 2.557605625983484 1.6893698733575544 3.2578838974430235 -1.0951601059981462 0.231102322100602 -0.6510465149706981
Ni 7.769710073454173 4.713901266951788 7.671137989535156 -2.9643981269995785 1.3496674372862496 -0.7115150046694004
Ni 1.2392793680327756 6.148432574995416 3.157151520087971 0.7684762525457927 0.5716246240979446 0.2761866160337501
Ni 8.94364265206289 8.77005857579861 9.986656254097015 -1.811612914288796 1.0812859191192152 0.734913843209315
Ni 6.262012622759449 2.665546092772381 8.738061374266001 0.5403425261552114 1.4389842186752122 -0.5575653177914011
Ni 6.978564053532767 7.806024151608211 3.3099331485678167 -2.0556260309137953 -1.5649564465036787 -1.1642261075578724
Ni 2.277871278864848 5.467583031020282 7.65450771859713 -0.5051734344532463 0.4306415246829422 0.25756900093256285
Ni 7.686489151564513 0.0071960311192598185 1.394888207501472 -1.3744788399029748 0.3515906439963622 -0.07046648145167864
Ni 3.633717446428093 5.496318922238982 5.7970644187406375 1.0101751192153183 -0.5344061060661184 -0.5087572951497625
Ni 7.963004856251616 7.386097983999123 8.45664813873207 -1.1123404744321748 -0.542279338166608 -0.9492862541497458
Ni 8.512103399945794 5.263092566912004 13.189313998303428 1.040316418685389 0.35398125571572586 0.5974058468271066
Ni 3.480150172374902 7.6889379169879275 6.848158019109366 -0.057516606159229974 0.36076845384088835 0.3361041183249889
Ni 1.8122533746052394 7.142928156952828 0.9331410222236461 -0.8031928300913715 1.245793326908403 -0.9707256549704442
P 5.356627985585136 2.450045459885344 4.153589418256227 -2.1438830035796754 -0.19151401828501854 1.1790246060232856
Ni 1.0991432013019464 8.86998490120179 2.8182581540526983 1.8115419518415448 0.3247640107218214 -1.260509292962339
P 7.924121429528315 3.7530483826865066 9.785679397346271 -1.6368406342384907 2.733342598976512 -0.8542860492227611
Ni 1.2309498553425264 4.455844059206329 5.528846689613331 0.43545283002865653 -0.37845584381832237 -0.22873202209621252
P 8.395351087883247 4.268003344851945 5.690874262691885 -0.08354876855693352 0.48197617040117646 -1.8283433396695998
P 5.068091068819456 7.533951472064349 5.303365482500561 0.07562385728290202 -0.13320294124895127 -0.2500788632031048
P 6.570872437414145 8.184636678323791 10.173282788928955 0.26163931434719456 -0.19097331529020012 0.16269889382553915
Ni 5.57255529729595 3.992814054769192 6.0674535720559035 0.18908998222455822 -0.315751779920882 0.06472289409968209
Ni 0.112132122451173 3.1237898738819365 7.97467915989521 1.1467672886514766 1.6396377373676536 -0.2372148627562431
Ni 2.53018687374253 3.052228414633303 7.708185769753557 0.2076839431766617 0.3052215698135195 -0.38614935580783816
Ni 4.214084127403818 3.4950653799538784 13.427745835280481 -1.1489527263385697 -0.35948650180467123 1.2204047116319692
Ni 4.019017699925043 1.5042840201045118 9.12666931620988 0.35795695253402227 1.1137602375978366 0.18196391270273823
Ni 5.0147840427271815 1.7466190407564608 6.901632934043171 -0.462564598643784 -0.45966413716753735 -0.450837540014843
Ni 2.105613617204918 5.068712535801913 9.972958008728462 0.954407377426395 -0.01475736081483265 0.4856600470106668
Ni 3.5038215714679044 1.2428783111550659 11.873518131290249 0.8427518233309164 1.1756238078718528 -0.14192746560614267
Ni 7.563049112720598 3.0422478404075703 12.504753276124097 0.1617974650571923 0.7268212960091677 -0.8947804097923815
Ni 4.268439299302326 4.152503242380918 11.213203897053356 0.799928557517803 -1.0380546192344058 -1.3447926256924518
Ni 6.2091229998643485 -0.08047162616428265 12.293051939893994 -0.4380061925781295 -0.1976090754391629 -0.672466632517687
Ni 6.137338925577223 4.882884632420564 13.30796595869444 -0.47380057656891944 -0.30261832786271753 -1.0276676195731267
Ni 1.666987786362486 0.737056130943769 9.80398020863565 0.17428582733219017 -1.0295602086101494 -0.5342947772992347
Ni 6.251716677229185 1.1261816528521427 10.328685709487045 -1.026960051983141 0.0823776310669678 1.9177511381104715
Ni 8.392215926091149 0.8823541838796358 12.33885683918908 0.7136749884351967 -0.20645392742430252 -0.5307728801889052
Ni 8.175871211183162 6.628715244915697 11.351432994954436 -0.6147006293518124 0.418012523065022 -1.5278492572387365
Ni 0.5226583700599287 3.185454239544271 -0.05669262980267596 -2.1857179373375906 -2.2654751000625755 1.9024597591690393
Ni 6.552989029321941 8.526035391104761 6.588249396293781 -2.612836536468939 -1.0861357910123486 -0.23588277420838083
Ni 5.3661169516008655 7.782528989420683 1.4969785365913266 -0.450731610564598 0.75892563274288 1.0841915228017844
Ni 7.175142408147969 0.4434955348094479 8.382008099013621 0.4606229015363809 0.3821949991457805 -0.439456808981727
Ni 5.789642062332244 6.38220619229202 11.379208858819638 0.22866825873781266 0.8275476047866522 0.44274165038058594
Ni 9.332393438656467 5.602895871917115 8.871701819686159 1.4469117010524049 -0.4257955094445505 1.3187586635225352
Ni 8.139074800445727 4.0169863376988015 1.6561547820518603 -0.7537155492968504 -0.15239802612016334 -1.9163555433145254
Ni 2.6336008347487527 0.7938007042554264 7.1593970319879485 -0.12601516525126039 -0.32710705703270115 0.039002092294810255
Ni 1.9379381150872845 4.14804166598447 12.355432383930145 4.1858554482657775 0.5022914849197607 -2.5670822130519593
P 0.37174949059139845 7.273779421453214 12.709028545695165 0.20194061293498125 -0.14648346040794125 0.44080380992792473
Ni 3.5795663383148697 6.135919754706835 11.939306440540651 -1.759778446116008 0.3896743382419612 1.2340984070689778
P 3.1299396143202824 8.252144688746545 1.9783492375122385 1.703749480245898 1.3946141772002691 0.5021207636698515
Ni 1.1313389012438781 8.053581350038122 7.885744452017582 0.46945515511603025 0.14905173535574975 0.9540510225282409
P 2.589625089019943 3.297596565184708 1.6828722969215637 0.37938735449365624 -0.49823197013840637 -0.20704065316570797
P 8.113084494701763 0.47165911986669024 3.534029504628633 1.8349091658125753 1.739462103156159 -1.3093941915884997
P 8.999825122402354 7.825419486836843 6.401934522515729 -0.9385948358741707 -1.2651596472501567 -1.3615803866737517
Ni 1.9044067249143994 8.828708362814698 12.020191759651464 -0.8434714751057603 -1.1310100258172198 -0.11013114703115226
Ni 0.8065871555288212 3.859226480420675 2.8726968065906404 0.9789878949792364 -0.3468785832326736 0.4953222526907792
Ni 2.936988029707183 2.724808071144321 5.2249382044397645 0.9425275952696736 -0.009812872325363745 1.1823888945098282
Ni 8.106489524186431 0.48411814152096944 6.091604521044324 3.039908598633068 2.116205078048433 -1.0451446933119677
Ni 7.274966701658505 3.12483801968817 3.6922420124850275 0.8679339790234988 -0.2192683055801514 0.37766934336128505
Ni 0.42209480910906605 9.050015537955739 0.4133182112165117 0.018270259064097565 0.11351960388741096 -0.3463769610059067
Ni 1.7256190221253649 5.063174986719419 0.7275161489817186 -0.15996144028971807 -1.4204676479282634 1.3965401905783885
Ni 8.53006101305083 1.8620171113348463 9.763985561845207 1.2102863922510447 -1.979454785767855 1.05124386423117
Ni 6.753314737085093 7.435314458759104 13.420143531715972 1.7167716035371787 -1.93611961331533 0.16879420808999962
Ni 2.4509915737989356 2.8038085829292347 10.096715274002227 -0.6447588821897735 1.1555550621464357 1.1788582556487504
Ni 8.296435805779886 5.401596223360558 3.4334325514219968 -0.8476186645049144 0.33783652763506333 1.7992644200257721
Ni 6.25759742449602 0.41825284456975514 4.369227330417002 -1.477871125548397 1.3336391801787937 1.2926640233180127
Ni 7.079584902875199 6.322480432589888 5.3269738073326565 0.7849919908126287 -0.18151525520109382 0.27598452732527307
Ni 4.645521347628273 4.186860163321545 8.124149389677484 -2.631002151634372 -0.09283019385885947 -0.6313438943354482
Ni 4.498289326545505 0.6150510315354677 2.581903129872245 0.5641874510936089 0.029383595368439718 0.7257175214220276
Ni 4.164023570622889 6.238971966275508 9.67657112916795 -0.2040723145660034 -0.8845124522074702 -0.8436121144486826
Ni 6.460464653948626 2.458328594442574 0.9629955540107686 0.440198572243758 -0.25129062412301884 -0.17295579566685698
Ni 4.142068162451597 8.357469428833161 10.908454112546822 -0.1694639804635146 0.15789555889962484 0.7489836910388198
Ni 4.9716245521395095 0.743370977535664 0.3991979248374846 -0.053736570291507454 0.6333133593569931 -0.5428210696026909
Ni 2.545185561960941 0.9789960099023943 0.7195159210359058 -0.46360281010031124 0.5646124544461696 0.3279300671546288
Ni 4.319816995061001 5.704473258855776 1.7653994019412576 -0.15028432221127022 -0.3954354090954545 -1.1012690471093614
Ni 7.414230959488574 2.6342130261046064 6.590747322538196 -0.24636413335567894 -1.2478898044261153 -0.3436377076978727
Ni 1.6039506279627829 6.791159293628764 5.487915204535901 -0.6988047561915837 0.9425576771766605 0.21996378898527924
Ni 1.059322936291657 7.166126499089035 10.343360678336982 1.6263351067214766 -0.6349187561709001 0.8731396915941543
Ni 3.7581592529452235 8.094857888425215 13.272560891947581 0.45757074497361844 0.006705694154949741 0.5580777386514453
P 0.4993533582177782 1.1403826371826231 7.768327077527542 0.4129271381223147 -1.564422942597712 -0.07315302714490626
Ni 0.1731388461872954 4.231782022963947 11.088727770717792 -1.114934460411596 0.044953167671922575 -0.49284268080203514
P 6.532860919591605 5.7049648670657795 1.572771536696632 0.96235131486382 1.010909940498814 1.5696062865708644
Ni 8.800881483003174 6.8116120502902335 1.6546474927287362 -0.8423746424971557 0.6090323753224415 -0.9328517627428063
P 2.877178789365616 7.721244924449105 9.172622625530629 -0.9926489374060969 1.169229988530367 -0.7164556365041274
P 5.579187370317697 2.257056772765829 12.300396381038915 -0.2180452318063277 -0.4655668758052175 -0.0930929606019429
P 1.264518348021827 1.6077536348703578 12.227005768224004 0.3059581908692279 0.23934784993884586 -0.48299329881178105
Ni 5.820798892094546 6.607390579353468 7.275144793689298 -1.7155372169094454 -2.4747166175343445 1.6085351024255783
