# total energy = -340869.04514011234 ev
CRYSTAL
PRIMVEC
9.21313308008658 0.00000000000000 0.00000000000000
0.00000000000000 9.21313308008658 0.00000000000000
0.00000000000000 0.00000000000000 13.48435154047016
PRIMCOORD
 96 1
Ni 2.33034219436533 4.70467709829112 8.952638008908092 -1.8712326828339578 -0.3960159641892728 -0.49290772971201563
Ni 4.36243685074296 5.1205026382496275 5.907156777120925 0.6926839880058263 -0.6043095159254754 0.3861503842491027
Ni 2.7302658669518247 5.584107485387307 2.031255339971148 -0.0688464293497524 0.5764014766612976 -1.6392698125052734
Ni 3.9276138307606487 7.699792896496261 13.299939524935676 -0.7259643473255111 -1.3451435812739672 2.367631970639
Ni 1.0895450958366861 1.943915761465971 4.864803190584887 -0.2507344945092327 -1.9674662459474113 -1.5887424931796832
Ni 4.252607093534529 4.915851317314228 3.5022370359327537 2.2684912611810804 -2.788762470507713 -0.01421742915096261
Ni 5.110257634473453 3.0330370531896143 2.0037882268795033 2.2069724758409923 1.6180512694461295 -2.4742409634495064
Ni 6.332278368167704 8.710031344396517 7.919440433840365 0.66066758300023 0.2295000106104886 -0.7021240503728037
Ni 9.192200654312067 5.810962456593013 1.5183915565118 0.6182024718574837 -0.8093832751727996 -0.2645390044924928
Ni 6.312884723429532 1.0977724235094592 2.7031138430050943 0.9293746028274833 1.2047302383195058 -0.05939736812171062
Ni 8.031898697862953 2.2332634130797624 4.8130235411039015 -0.8847927024520504 0.09411163167444436 -1.3742626101271107
Ni 4.926879437386243 8.791162192645611 9.902813279543947 1.18919074792301 -1.6905221829223467 -1.1338269264407248
Ni 1.7344367588950365 0.7380345939723512 2.77851780784837 -0.7810314635029839 0.616639498245738 0.1896751653040669
Ni 0.10397296862883268 0.4352035223707618 8.202692676732648 -1.9020095590054986 -0.7697090965116292 1.1186584462304026
Ni 1.3257053312635572 2.3530802063433858 9.854701378267363 -0.011508514860231793 0.43518826351336026 0.05636295217076099
Ni 5.864822431481067 8.141525766147756 3.2822799373234703 -1.1623836550324949 -1.383404938748011 1.0336071249860135
Ni 7.57719373709918 6.761766984205408 2.8092491339237364 -0.7640637253003938 0.309635382610499 -1.856087085441771
Ni 4.590802775742994 0.6058546976806265 12.91811597322928 2.2430594513715367 0.15040053607416035 0.6080985506542623
Ni 4.839271756713902 5.376130223477808 12.691390907197357 -0.49193970937179143 1.3638144182105931 1.6690007639108029
Ni 0.3125979137806564 4.061499077950727 5.542445698448583 0.20650714925974112 -1.3047965449154881 0.08683078174231498
Ni 7.9163936507929 8.44764131962543 4.302614136247047 1.6559470160506382 1.6503350691804999 -1.2373539378917982
Ni 7.202772016358415 7.3445160659055775 6.034422388327926 -0.12245881535856974 -1.7061745447476229 1.656683637106347
Ni 6.395333049682217 4.392379532642751 8.562859838262534 1.666121385480479 -1.8979585288645764 -0.8136942438433277
Ni 0.7371105167432591 7.597241514272701 3.0836282085274997 -0.6082427895416106 0.515680504632157 1.4633292231784798
P 2.182370066983011 8.67747213275533 4.539344664599948 0.7042567804450903 0.2921415967011098 -0.29112343984924055
P 5.119028536986868 8.836757987329323 1.4774530005051172 1.3100541937700019 0.8928186580803205 -2.393657448168484
P 4.697223673781296 7.216333747975797 11.44669020426227 1.1728845545638187 -0.8764615568785358 -0.94133306074094
P 8.429122922512022 2.5090032674117104 9.234703600283854 -0.4644978111107549 -0.07527033059822522 0.004966085756023706
P 8.70548926988064 0.9374915505831036 3.1336149823476553 0.7662712744746738 0.6387031629139968 0.02709582777552753
P 6.199756664645678 1.3082464444327564 11.568453732506024 -0.6607868821869136 0.13744320458254394 -0.4535299992453415
P 3.132870561209962 3.8345796148147766 0.5695696950978157 0.5817442290304498 0.37829694964295496 -0.29284556474666984
P 1.0815020308217578 4.347797182577186 11.13539042090613 0.8385372710289366 0.20093813981239586 -0.08980143433486469
Ni 3.023694936436879 2.8245807083697185 5.395021752473354 2.2842711497231565 0.008348629075011429 0.202783934771883
Ni 4.3942682248856615 0.7341355961323537 6.9631163183122275 -1.0924475921629895 -0.47144313208033645 0.20461198911955733
Ni 1.5626671092520537 5.29974413866822 4.016988590321722 0.05711448562480487 -1.187129237408291 0.03929082717982265
Ni 8.073772386858199 2.7112591737951264 11.462116673977043 0.6237365143018355 -1.0870863278510763 -0.3405593258828651
Ni 8.589505139900192 5.663607609114473 4.4507935591194405 -1.7792229279938647 1.2063130094255934 0.04118752998190326
Ni 2.9992985605382194 8.458531242704062 11.295463077029122 -1.9357766281536144 -0.22398962231522068 -1.0077497976032772
Ni 3.3271478945086947 1.707912149298268 1.1468913202111648 -0.3515788169218203 -0.6440171189277425 0.18416349145721833
Ni 6.981822663336638 4.433009448697544 5.937685414272662 -0.3344326441598369 0.5095882756914901 0.17640390211645748
Ni 6.781298825936964 4.602052011004423 2.820454146147283 -0.13891104737732207 -0.5817491141264562 0.4137989992043067
Ni 2.49967957692476 6.431946039795991 6.724943013348401 0.7864150964124005 -0.28418223264471704 0.033279073768103976
Ni 1.8007713157191878 3.3685332874606515 2.2226121101430403 -0.3211919770998468 -0.6004713731263077 0.8908170542692594
Ni 2.6638760313303194 2.8548182105220605 12.065069234796612 -0.38062971154118963 1.2800319363762986 -0.7056251215475267
Ni 6.0526413586223375 6.422309102790705 9.86481463424318 0.6375708490817664 0.5747618841753456 1.4024041055583332
Ni 4.912562228871698 3.067005874163315 12.893264468565745 -1.3895912700643809 0.5727258275819234 -0.35255686456437346
Ni 4.770560211603552 7.741657372358614 5.4913533486813595 0.1806696193713469 0.1944013671351426 1.2006054175178549
Ni 0.6627642195560131 7.424651895802309 5.499039865453357 -0.6953857032077057 -0.7605464561757548 0.538112351273112
Ni 9.1326561764295 4.064576264336737 7.757223881693349 -0.2974668655687651 1.971212086143089 1.7541078780937918
Ni 5.6586140910868785 2.8369447327111086 4.4187548894866655 -0.26581478588112284 0.07065777152687831 1.2157481866965643
Ni 5.148989645152444 6.3120647546021225 1.4890228527911964 0.16393353756358864 0.33464835971506884 1.0036501736126069
Ni 8.277723509693788 4.942716812828009 9.981548713241057 1.1734085453880887 0.37708390317146023 0.7098162768107388
Ni 8.135813623754565 2.975344415018387 1.4013608146347911 0.730725259049264 0.07112879762602589 0.02862074906048619
Ni 9.06053577214902 7.759060980392062 12.914677632033897 0.8262345424021835 -0.32968150262809676 1.0503612045159008
Ni 5.696820953191011 1.8018676785333647 8.902463287176934 0.19569694601811458 0.4058560902081462 0.545360548195093
Ni 2.273137852237391 5.557407826265586 13.103984480137264 -0.7068101429945634 0.1978949821106979 0.05745284280083009
P 0.9297156664220503 8.31625283144915 9.862589662649702 -0.6681469220964107 -0.39764578648321197 -0.3246709367873828
P 6.762780428823555 4.438113524319847 0.03018867254801344 -0.352829915720102 -3.5628429566141606 1.1101864042036493
P 7.798308926513019 6.607474647659011 11.433449089669537 0.10733352968135708 0.1671420171985573 0.0852590663798209
P 6.04554724629531 6.1123148203653965 4.4441591821237365 -0.08657521408808316 -0.7323576524463645 0.11845895017055727
P 2.363187013126177 0.6704396805685409 8.798525328453092 1.0546035247320225 0.1867057982630978 -0.9402843077614516
P 2.0846647926607713 4.079261998166972 6.817687936921456 0.1400510745190362 1.9238536514637836 0.7966568287450666
P 8.485894247394024 0.7350569094215781 13.210619122858667 -0.2829146787862031 0.6975603422615212 0.4673890166156209
P 9.034352048469264 4.012015341186489 2.9897233515233106 0.09143408484228124 1.0451976580370903 1.5908227727474797
Ni 6.347406332376768 4.275345105512585 11.360552018286242 0.12184817835776433 0.02241616291167107 -1.4590509075181002
Ni 6.115032694568609 0.5186459456625196 5.3596654336860805 0.48713894554903847 0.7615774685434303 -0.07253261995208798
Ni 6.7971822670431905 8.440547207298403 12.523348891122575 -0.8526821950707509 1.1129179442021992 -0.8277170404849808
Ni 3.373895330803937 8.249172010860727 2.3101525349452676 -1.8692945852709806 -1.804596630871963 -0.025439523119027155
Ni 0.675245250685135 0.6323120514072814 11.58882949721051 0.05712425581681775 -0.3466456412862611 -0.5712009062969646
Ni 1.1264989718674738 2.1302421610786983 7.125185460332967 0.72562239060506 0.4851399128411387 0.1572023894873422
Ni 7.107084418139577 6.385732965208499 0.049275519960873766 0.764809859437799 1.3921070945076992 0.8287084578639727
Ni 3.4404325765517183 5.360191503574227 10.884891786759061 0.08359042042814636 -0.6515244830483812 0.001277581160842961
Ni 4.5414940885037085 5.562622459482595 8.54357675111907 -2.6462007137516816 0.08524209709895643 -1.5530668941549444
Ni 2.7655337396633315 7.0741935337142685 9.251828971703956 0.6207357798022987 1.45768282352598 -0.6328037667104263
Ni 6.574768025891546 1.9500148554406362 0.20901005410671947 1.168192805515104 -2.079554773815251 -0.1504882106919602
Ni 1.8090170696577454 9.050327620904413 6.6789206506117775 1.3904973268184182 0.32724306838993317 0.24838733443329478
Ni 4.19605688384194 0.5438226739171528 3.8463171461194943 -0.9126480341014217 0.7130784925017783 1.424155895413128
Ni 8.97835462675021 4.624476776464142 12.9354707516584 -0.2766059629593559 0.08244499396979349 -0.9446482411571021
Ni 7.96888086888001 7.65859176620215 9.417322635220744 2.0099470408194415 -1.8757989620484017 -0.020841105115067333
Ni 7.71822837541364 2.3380443734632452 7.101169586822756 -1.0770857649949386 -1.0978667062960317 1.050771809690758
Ni 3.91410737794062 1.3050126347875788 10.797432437526286 -0.04669637561527442 2.5895287149809336 -1.2874799080139117
Ni 7.95960324405752 8.910232722144963 1.5639016690596141 -0.2705643847509663 -0.63758190482536 -0.20416410294886128
Ni 3.2864074208591956 6.645847346155203 4.217109813814005 -1.2746495890184628 2.697580353775238 0.5415709992456738
Ni 7.367622603199324 0.320157289318742 10.021731792350575 -0.13855906335454202 3.7457723185539615 1.2442905171106313
Ni 1.3454490750516344 6.774886485443962 11.29797181311568 -0.9103800640028514 -1.4109838768075442 -0.7225370668115169
Ni 0.6715618401548162 6.593240357340495 8.16887402982509 -0.7572708707482765 0.08357885046392058 0.21558905695635128
Ni 3.346992982758587 2.6892121467839885 8.211578743407218 0.021245282532021473 -1.0313851776340301 -1.0428738949999201
Ni 1.0243161149596038 2.244991731251588 0.09138506515816075 -1.1017650129091736 -0.5325754806152828 0.4052994463737278
P 8.087886906449116 9.489711141668385 6.237981953015595 0.6195157913522686 -0.2850962598185542 0.7858599952398788
P 5.414899086688368 2.699862528407422 6.929433104458185 0.3765609407884547 0.7948843102256762 -1.5324777571496833
P 2.515268197778436 0.6044800982531038 12.802852310241006 -1.1921367179252114 1.4394261913086372 0.6228553972484627
P 1.5875794205926792 7.275933504655718 1.2895677388070224 0.8936699503370222 0.043556030214079826 -3.3494192827402447
P 4.462178227434386 3.634507220926822 9.699482200552005 0.6848230972005109 0.6348228540229841 1.7326304249463065
P 7.733540602280549 6.179699674339265 7.894642365347603 -0.35079205935446683 -1.4635030297521827 -0.8823714946050675
P 3.7343683683458466 2.600286988108057 3.3342217379433596 -2.6206354636880675 -0.14749158995748146 1.270151186927477
P 4.535763519844733 7.540405697460453 7.681144594209072 -0.6412986915553148 0.2741842408917407 0.005322954874810187
