# total energy = -381176.14664380543 ev
CRYSTAL
PRIMVEC
9.11839339613239 0.00000000000000 0.00000000000000

0.00000000000000 9.11839339613239 0.00000000000000

0.00000000000000 0.00000000000000 13.34569043657907

PRIMCOORD
 96 1
Ni 7.60681895438159 4.126483268016198 12.516482841312074 -1.4476066702369006 0.9486239379753986 -1.0019216209572743
Ni 7.312832837986292 6.383860053263839 9.581685121124305 -0.20822516039211236 1.7213018873073644 -0.5299835515183905
Ni 2.168709529398633 1.2955048377214848 5.111292533733241 -0.5969813576951783 2.0165084960870434 1.8907116174941758
Ni 1.7067078991948377 1.9896607597718206 12.768876318790293 -0.6792700285927656 -1.452100701452512 -0.37378414937426596
Ni 3.0651478870469124 7.393877117088101 10.689817919871079 0.6129833895503894 -3.4893088919807522 1.0264373467104515
Ni 9.026507189615174 2.169475474430649 5.734603099518782 0.0851096852861502 -0.7836151650697601 -1.1133917985148243
Ni 4.515975435189213 2.342351091835148 5.354597708670871 0.5161157923973627 0.5271923619264984 -0.2420436516034541
Ni 5.217717860413795 6.637460806006808 7.301066463351619 0.8385424132352591 0.9897011676316827 -0.7651448741797144
Ni 4.7450203549415 4.343975183535588 3.843465666847224 -0.5777873012652307 -0.1271809034245874 -0.42495193049733265
Ni 0.6476557638924167 7.9716914598112565 2.676304949472463 2.3014206649192492 1.9703122000366389 0.5241895705444327
Ni 3.4252241176332445 1.6651097892418165 1.1588383598661849 -0.7600304357712846 -0.04066945269490415 0.2337518439083071
Ni 2.6828866057118517 0.5689494408169024 3.1238521027149417 0.806976979724152 -0.803883685510809 -1.6874103767662425
Ni 3.256898578454646 8.163551571937848 6.942147356867225 0.37282332812289337 0.5954579790721164 0.5192080581694413
Ni 3.0511146798532036 7.117252421418482 2.9843899254927857 -0.48711657695153526 0.5435409784878511 -0.34094139181263217
Ni 6.809689017491389 3.2022794029573642 3.9525398867634967 -0.014595895536303896 1.4966288657718743 1.7084414864049287
Ni 2.3296126964812744 8.988656739283085 9.338233140055541 -1.683766866476384 1.7090971177110565 -1.6461737387139586
Ni 4.671963788316423 5.690789220008859 9.294899799869276 0.08866577806852471 -0.9009081199566743 0.9180000424419544
Ni 8.809635324835986 7.160227408750484 4.647850197397798 -0.2325763355429672 -0.009080365034713394 -0.13017392461464034
Ni 8.504889504419522 2.1531991425003234 11.869417037462172 0.888604877109289 -0.31442174825554886 -1.250824461574407
Ni 8.539265846927826 5.035349995648249 5.922524065766439 1.3416746488887603 -0.577227829217335 1.0364718481283182
Ni 8.712825343825196 4.274775697250302 1.2366346672965192 2.449785915730936 -1.4891834652374225 0.883624393175562
Ni 6.724997381094269 2.4065354618393817 0.5636553017027586 -0.6238905233811964 -0.7543182158778557 -0.2539730560511884
Ni 4.167944602070645 5.502868253761203 1.5649022949104445 -0.6047142075630618 -0.37979436012408785 -1.2950638910087569
Ni 2.9355664007377538 3.5479394538339806 11.522321751489851 0.16348565139289264 0.13725705671366684 -2.2592322044766573
P 2.279124153120933 7.0443964594446475 8.628242216307612 -1.050384087334036 -0.39933422992922835 0.4186036196818017
Ni 5.283388528515868 6.585121228819097 3.152705434438823 2.025261559689325 1.2085267292474606 0.04142947078938026
P 8.020876072938524 5.208708887894377 3.8698096167519305 -1.5329966057676307 1.1369749851514033 -1.3336813462706385
Ni 4.414743033457858 0.09035962963403267 5.1049671043438485 -0.2376007853407521 -1.041673961154548 -0.924535529567627
P 4.980001348691906 8.826650246618613 2.894280139833482 -0.746032835940612 -1.3403896115287497 2.572759465942395
P 4.891224672124038 9.15906127212001 11.442688087822006 0.37606368943706203 -1.3164904363136487 -0.6626676441493942
P 0.15522149625587056 0.5049073177471857 4.102705233968742 -0.13437844961429116 0.18823766152659194 0.632865216075981
Ni 5.233383259997155 6.583096945520198 11.633571620032779 -0.2148976873162815 -0.030962766930101516 -0.3779359667591104
Ni 2.2477295252015446 5.116904904771401 9.778947881244576 1.352935052293928 0.9956121337994788 -0.37368233368907905
Ni 4.577351340076056 8.149500127957664 9.201359674673732 2.1192379513374857 1.4911233625726128 -0.5388093773401366
Ni 1.1852908186504272 3.1916564748347716 9.121778897686667 1.1234355559040716 -1.9435778693655879 -1.3638103044455352
Ni 2.466224463977145 3.9232798747011883 0.3216996489643944 -0.2596163703798948 0.27930973504376416 2.732695452310816
Ni 4.070140716196883 6.392631947559062 5.166090429737993 -0.8537890549816844 0.487100121891303 0.15552243068175797
Ni 1.579296590476389 6.324745509900088 1.1302904943157863 0.9437478408300198 1.4213179117437005 -0.360937632428901
Ni 5.610602069871449 2.5992982948965637 8.710838445938576 0.4485266324934792 -0.7887997945944931 0.6952674324622864
Ni 2.778748273825861 2.956511350006077 3.5175770280291645 -0.03161634135370038 -0.6312757601016742 0.45883418506707435
Ni 6.139560061623915 2.5041569798483785 11.316451228152646 -0.3174265965201436 0.022325917190709938 -0.28911592250090856
Ni 8.487017453672497 9.091165716067797 6.259448695920784 -1.0066385668169695 -1.0124885978398432 -1.1675747123151312
Ni 1.6703711021403025 5.717259915579578 4.65804638471684 0.3848946574651307 -0.14336188405982406 1.0666067198404856
Ni 7.637219677438007 3.1314386058891883 9.85292267006875 0.320546373096048 -0.021815553213194686 -2.0182046528425435
Ni 2.800030603644 5.666953740084002 7.1627121709079145 0.4044149868862454 -0.9052067473320281 0.004719516962856388
Ni 7.591253857123851 9.17219175838313 2.668297176530608 -0.8190166844975056 -1.1261400993194282 -0.0038101177747095673
Ni 1.9748433707596198 8.96735617267847 0.9118219988805767 -0.8315986349275742 -0.5011146910028401 -0.5754709944272283
Ni 1.122902772114134 2.1088655145758195 1.713253081861273 1.3999810979391374 0.7240267639831659 0.7158426855104769
Ni 8.831273271990419 0.8013535766381711 0.34875392170236313 0.028479852607247724 -0.5488513349571709 2.006951448526227
Ni 8.20059048527173 2.2260277492944445 2.4766796136641536 -0.5085973725331305 -0.1691940146315796 0.10798067634705275
Ni 4.787986223880262 3.980579857810523 7.04900671906592 -0.278895530324481 1.012885576167946 0.40373544432071756
Ni 6.575528679132429 7.8447998995073895 4.8112144188154495 -0.8695157216883219 0.5597522981403908 0.13296717108906134
Ni 7.097565810417042 3.111058997001639 6.333290356203677 -2.4158861776596976 -0.5222597005115716 0.32977329101095465
Ni 6.98425153764497 0.4405916428803206 12.388670323291139 -1.8535761460944593 -1.299023132766821 1.3336687478651483
Ni 0.2835446442981469 3.7128729507279403 3.9492162324281446 1.4071051105784282 -0.983233814739784 -0.6227471538053726
Ni 7.723616453370685 6.969880949901445 6.981717536164053 -1.1584115577586243 -0.32046538334646746 -0.44618410040323153
P 6.400355226631883 4.814365735518599 10.61944580821535 -0.7984314041469863 -0.37134622935673467 0.8708447249123905
Ni 6.254087080696678 5.577183158653162 5.332364330437979 0.8211900379997407 -1.0573363502821533 0.04596926764126276
P 1.7882354531382751 7.411229419420542 12.549312704327166 -1.4045831154875228 0.2112822020508813 -0.2844311154307295
Ni 9.245138904289348 4.472407752296723 10.538477211777417 -0.6169847974002988 1.8924172873313732 1.7438409489501452
P 0.6442208651595576 3.8568341431738618 12.451715805979914 0.7768601057341137 0.7861351032781364 1.2255155504959734
P 7.6445052736353905 8.09680493343366 0.6972935611636268 -0.695962401646782 0.13359991957705378 -1.200747599522674
P 6.838293417079865 8.401833424040511 8.2811204869949 -0.8648136882269624 0.8637199409421512 0.3960691860247114
Ni 4.4533685472152005 1.8196847914170933 12.545255931175456 -0.8464164166666972 -0.8272822669404075 0.38249041889901225
Ni 8.027176882666174 1.4802890766951744 8.045356223265328 -0.2947985747079826 -0.7151142919848846 0.3245657786680862
Ni 5.623659608988662 0.7811508645794439 7.1448155004991465 0.34629314304284875 -0.5356998851768774 -0.2306482652823189
Ni 2.6376867304297114 0.17677737787115805 11.724656161929255 -0.6034844489210187 1.2896128951965147 0.8200890916260779
Ni 2.061732539927164 4.844492906777867 2.595082861702508 -0.1541198939072765 -0.668091900488759 0.3593384062625811
Ni 6.681894736256933 1.1307719454787672 4.69572085005943 0.19120162925092232 -1.0750095991922002 0.7314446537137919
Ni 7.077031188844441 0.698366796047772 10.221384175077002 -0.06617428183422797 -1.2536886704960797 -2.6658953639671314
Ni 5.091072496727362 4.076496236283962 12.584198765017492 -0.416015033019019 1.824093306143994 0.20716149501428838
Ni 6.639959245754096 4.262857957287873 2.002721034407005 -1.714184559536293 0.8336981977690804 0.7033754062814015
Ni 4.951232818025141 1.868960588476744 2.822453644456248 1.4861433928595178 0.522674676561803 1.1883816217581533
Ni 1.6296301211516797 3.2753724431553954 6.7201290709443535 0.1953709301372635 1.1044428168516527 -0.5246935067640448
Ni 0.6560984841917376 6.776051264835385 10.484614862918916 -0.09692801807731695 0.67787906178251 1.0464135327220623
Ni 5.562256348922102 9.087910449681733 0.9819278534537479 1.0991725695916488 0.7861070782536784 -0.9504494212199116
Ni 9.164623491995359 5.594745184030084 8.34901057201117 1.4472950525337527 -0.5960922702220056 -0.46651175621699015
Ni 8.97788791686868 8.106871639568716 8.709530868348207 0.33928920092118986 1.314275173829885 0.14096741568571852
Ni 3.879238035360309 7.914044977758868 -0.042635783103536974 0.68588907657118 -0.3747187453733934 -0.19182743576037933
Ni 8.961274204388538 5.974945708493295 13.127768070094973 0.6315454688232929 0.6587549393585493 -2.050317474216688
Ni 1.040928416902021 7.191348484872724 6.6416698563255965 -0.7001820961550844 0.008255298030256751 0.7965897229525571
Ni 7.515662377178533 7.010211603194345 11.739776281596965 0.3105347544963168 1.1716799927327564 0.8370174919503004
Ni 1.2697636136098278 0.7505167106561276 7.275523108373233 0.43151287154430207 0.054206567949390515 0.556179493187468
Ni 0.06800041757445292 -0.07773430235631393 11.500782282982394 0.7358047304547006 -1.078406026468259 -0.6556084233097677
Ni 8.326342246420813 6.565188421200222 1.9418110794146364 -1.8441972759827208 -1.7138464594705838 1.1963193885479915
Ni 6.43996552685896 5.775252896575022 0.3452889322718178 -0.04883579055578041 2.087139271030728 -0.2614241130125949
Ni 3.350307398787558 1.9444608844896798 7.655688071102814 0.6697651744261239 -0.3720676809037915 0.0805061250758678
Ni 6.740206861015716 4.73364060018013 8.078920116936102 0.3966209447631234 0.20278342055125076 -0.30615488026106624
P 3.77337348986391 3.6386127561954096 9.192137331752537 -0.7583281083681972 -0.2369644373083338 -0.13090283236086486
Ni 3.6579802234335106 1.612241345246285 10.088060500182856 0.9555322350594577 0.5863688722866547 0.21597857908528612
P 1.0562473175423268 1.404679359963379 10.25406723196096 0.16535741449430877 -0.6131456261598666 0.959911852184392
Ni 2.0421735864310593 8.237447030740848 4.8433777272848255 -0.45848682902998456 -1.5214253559902637 0.031181824919443074
P 4.629061748130328 3.459946959084604 1.2367440880153782 0.7982318865416704 -0.49861377895785736 0.6793882993381848
P 8.605565684163341 3.531717832263085 7.816010396536177 0.34074598797237443 0.5706609746330946 -0.9383510952944808
P 3.299755026674549 4.238840109498251 5.572986874084907 -0.7619420509717006 -0.3287237667005177 -1.8675040690294613
Ni 3.166343815205314 5.760982611157117 12.612197703294946 0.557129258695247 0.24232261629645366 -0.9909499524371191
