# total energy = -340896.4360480897 ev
CRYSTAL
PRIMVEC
9.02581938436699 0.00000000000000 0.00000000000000

0.00000000000000 9.02581938436699 0.00000000000000

0.00000000000000 0.00000000000000 13.21019901283259

PRIMCOORD
 96 1
Ni 6.383402536226545 1.9808966071190175 11.685544388509623 0.6471181264505693 0.24738203309723206 -1.6983853877205073
Ni 4.639957188687821 0.20370372044502258 6.036057411243337 -0.6689830448444607 0.5106195451694818 -0.11425442517090648
Ni 2.8116149828697816 1.6295485311846212 4.749158773734577 -0.7873766889947215 -0.35488499847691785 0.7446943196348464
Ni 3.304388624653487 4.19889246685757 4.792105428111001 -0.013305458859654503 0.7202469852257596 -0.33481059632454596
Ni 5.240472037922111 4.517169940119693 2.7218423768929867 -0.5737804940986828 -0.9719911519464293 -0.6281004476974861
Ni 7.193478862765656 6.017306271218322 2.5184581704584987 1.0330484242690658 0.6478002401192585 1.5042681274846867
Ni 5.250355310281866 4.656772290428664 11.528567335650399 0.6516548379786584 -0.2988120667427499 0.38320132892310776
Ni 5.5716474072592 7.65280281745781 12.521300074127033 -0.1779061976935968 0.881305001013766 -0.5629906025720304
Ni 1.8785528397333953 6.5446758791709225 0.4727643025194684 -0.3087519515642812 -0.25562396139105004 -0.6325805949560266
Ni 2.6397182503661054 1.5508072818088234 0.09324483874099357 0.6469728591219567 -0.997853878645804 0.9914091514617247
Ni 0.3303675584912464 9.382790668112156 4.9519093676397 0.40686936196400897 -0.4695852529359913 -1.1133036096763924
Ni 8.648197270106948 2.201920875197254 1.3367536541355538 0.5126021228171496 0.22558216361332117 -0.38867957842885964
Ni 6.743198779219142 0.9193609491253293 4.869332144973587 -0.174275542919545 -0.49842351732392226 -0.8049447797854719
Ni 0.9037914104764009 7.429495017044398 2.4582595646771117 1.1612148315353745 -1.6955301776598994 0.9186430753425922
Ni 7.37693767005732 3.846389086026326 3.8545646733354273 1.552394036457636 -0.01748864370306666 -0.3129461921512869
Ni 7.576263868041629 4.053648979356959 12.633534334528017 0.27282027066467857 -0.7459821852083346 0.14837656366559607
Ni 7.721778130127439 9.020801150979448 6.757531780595664 0.2437236104090383 -0.28600643033764933 1.544381450565805
Ni 6.845136384726967 0.5892235490315019 0.3683202269346544 0.07510398022369001 -0.17942983342697486 0.34230459070874597
Ni 2.043508717036476 6.441041419595853 9.294114699205416 -0.21208258646498956 -0.5450571580220613 -1.2243320717108332
Ni 9.032859645840299 4.725043589176777 1.4930167646718042 0.24915532294757095 -0.5025041151511992 -0.4094862307615657
Ni 6.329662806884099 2.0969957234327365 7.020361839464686 -0.5839574346316846 -0.17442389557195123 0.864283269644789
Ni 3.2224883384503706 4.0925322097915 0.27603212506136304 0.8024027300899084 0.07919743356677328 0.28619000710336523
Ni 5.93609194729771 5.619168346961581 4.80127295298388 -0.06951414484073834 0.7126012957550437 0.24506186960448764
Ni 5.466884720245802 2.7928322524764946 9.400576045449961 -0.07236318425375923 0.3596412822149806 0.012705620492126507
P 0.3183108687942965 5.4655037698612885 12.4905337631748 0.2637332207617458 0.011596960808980027 -0.07237475421798505
P 3.9312859443056425 6.019273899870767 12.802149279059083 0.5580864804021938 0.23954273955847136 -0.6601723885313663
P 2.3725720446090155 8.628909093821292 1.3542303484462321 0.8036939380975061 -0.5129463935304456 -0.5409541915972812
P 6.1957467228643015 7.730370710297747 5.758008918104193 0.46647936031715787 -0.35805773977794464 0.45925276066173165
P 4.636698867845929 0.915227123791295 12.651526403132523 0.7653302507176432 0.11631002214835454 -0.381748141416349
P 3.9066815603305822 6.081317383159308 8.010268593853798 0.007009084327981477 1.1436392845454562 0.8976459042656347
P 4.623033777112899 1.0852555116570992 3.8283293237755203 1.929804726840896 0.2803309772194269 0.04359125432738944
P 0.14966343131300594 5.6029579751276835 3.5368323595715054 -0.16080244813377467 -0.04248439441645586 0.1957421974337532
Ni 1.4964628225594336 1.010909836381028 2.7559121377846445 -0.7768403082397718 1.2609162985927704 -0.6291003497169101
Ni 1.7489059683402317 6.616322834414513 4.699132266537156 0.49369757260316266 -0.26969020967612906 -0.5556105080578754
Ni 6.004435452601876 5.710130555949349 9.279359289475984 -0.057022183021314704 -0.5795341087530084 -0.7305902761332965
Ni 8.619540293173415 2.3314594367563375 10.22598904449473 0.10694323622147389 0.7520800705759564 0.12715596372392293
Ni 2.177623369085419 5.19720225920735 6.762261310017135 0.7801228356457854 0.672104878302894 0.5960958697664315
Ni 0.43478004370778717 -0.03379808372450847 9.21861823194225 0.21666712051187847 0.7074179517818914 -0.4610548468674769
Ni 1.46461973134006 1.0244936947384988 11.292791268170534 -0.005689079964977298 0.4208255670337849 -0.15495138866963634
Ni 4.09392218599552 7.002799399868694 1.5149856093509297 0.04824315127710401 0.035985159845357384 0.8328970420240236
Ni 5.502753326965131 7.930996626291009 8.10543502956775 0.325887068582671 -0.16933928196019224 -0.16146373586685742
Ni 5.2608342867290565 2.9852717501772488 4.814906453348637 -0.19385835014747904 -0.5186753255944228 0.16874972800530938
Ni 0.5374306889566348 7.500131080503246 6.738179520991507 0.5125391307896979 -0.19366217497627292 0.870901546292255
Ni 5.006324228281242 4.480822964966514 7.1944193531582465 0.5310572441985435 -0.6065054951355296 -0.610405087300252
Ni 8.152851269763856 7.169388950502475 9.184483485150144 -0.5755059614302217 -0.7257866840970661 -0.4306777772375163
Ni 4.6663577107447 0.45044886637128845 10.46937387781868 -0.35408564250407404 -0.8650875107136391 -0.2528826512004871
Ni 8.137778151187792 7.269331849899335 4.726331573620372 -0.22736368099377616 -0.12357673101309685 -0.6024367243827947
Ni 7.2279304158224456 6.182334355077457 6.963742873699626 -0.13537758030276686 -0.40200329212095925 0.325025234803008
Ni 2.374386234329847 5.147569277740419 2.427505889872188 0.33849267316182347 0.1257994496960285 0.4294606170009636
Ni 2.3141118116646044 5.168734824483455 11.561011546448913 0.03958701826400279 -0.11548135559947208 -0.8921833384891666
Ni 1.113479249254316 3.525205298883071 3.6926071732724473 -0.9581208217222402 -0.6433918266389178 0.1691940146315796
Ni 3.6321161309390457 2.6430126744860236 2.505221806152033 0.2625245451656253 0.06254516972207293 0.13693232638439642
Ni 1.2379994551677163 3.5435367383010266 8.151868358019584 -0.7805961757377783 -0.8733867746079539 0.44358548643811996
Ni 3.528680239393122 2.53954970548158 7.1220674814111895 0.23660859663081188 0.5203185176248006 -0.45543775779101564
Ni 3.950799766078966 6.739191315358201 5.852170780107061 0.21920017134637734 0.6032412225619611 -0.09977808593160237
Ni 0.8289836132415905 7.308873965157859 11.220479110029306 -0.2926761290483411 -0.060554621654605394 0.7536451010702311
P 0.29378500944894403 5.678377722925042 7.950690061872515 -0.4300931083786399 -0.19957185559248855 0.2035969175914816
P 8.644975052543083 1.6867632010371179 8.074364548498144 -1.0031009859773563 -0.08694930959805025 -0.19245375649046853
P 1.8332432258101372 3.2165944783125444 10.322925443413933 0.36706585681382586 -0.18472784860112057 0.4260927289699952
P 4.020659609060244 6.003325276802561 3.6436375895392525 -0.7701767801766671 1.199164057085638 0.459899393106795
P 7.126173326704754 4.073397472437455 10.416678435793148 -0.8845034533464058 -0.17983478217487736 -0.033652397947122686
P 6.21128918405471 7.646674286012811 10.294695387743062 -0.060013147328838584 0.7280765085725074 -0.1429754472546828
P 2.3003835401950274 8.479739374835297 5.706092404302086 0.5456834787521505 -0.09551056890450003 -0.42322646316579365
P 6.906800783596229 3.6866050033005417 1.5363858274011377 0.1469794262077533 1.0419056175493797 -0.20950248444263922
Ni 5.264913957146051 2.8151350524773653 0.41016482874931914 -0.2881615290074392 0.16776216728105947 0.6669138210202579
Ni 1.4906862980751934 0.94530115438737 7.03233097871242 -0.5928439384880371 1.3013461244730429 -0.18186466812071259
Ni 6.895256760447255 0.696362734320994 9.26823586951602 -0.06566083253291918 -0.18658212820103995 -0.5284761137349284
Ni 2.59467038520854 1.4589515166898996 9.129264423990561 0.6045537707257975 0.17405365671672604 0.5511013073336122
Ni 6.42400969818685 1.8373409478661449 2.6759244227349823 -0.1651237012169479 0.315277925608257 -0.9463230577563638
Ni 4.146994004694476 6.541814694387322 10.567023316478906 -0.1500056146285868 1.3542630270767322 -0.04435178664249781
Ni 8.29230920696072 6.9854066456794275 0.37022377226860165 -0.43502242735945723 0.6954368681606152 0.5416658729523253
Ni 7.6117172870636525 3.9281630107563497 8.257483984976357 0.6516934045260776 -0.20032441748779695 -0.3945674046682044
Ni 3.0937711264663896 8.140864981459057 12.260147915104293 -0.02087967166248662 0.8997518948650441 0.02765092894804915
Ni 0.2614102974606304 4.964579813063101 10.194799422607637 -0.4704200901324608 -0.8956448146752058 -0.4577100987649601
Ni 8.4708850458993 2.3814715026425475 5.870942679516939 0.9326383611804195 1.069076778647533 0.2064135611046703
Ni 3.8077676043574775 2.8318237927451153 11.404496615548428 -0.735709599637733 -0.9436599091019038 -0.3804872724260544
Ni 0.9917119182904364 3.2691789027581426 12.548526458668768 -0.5021768137187674 -0.07400071985718223 -0.36983107826378886
Ni 3.067957282677442 8.277786663374561 7.900597666192696 -0.08846831734573796 -0.3460272909759718 -0.09616131511462149
Ni 5.74356219140189 7.930355793106039 3.591734614466405 -0.522540464976784 -0.10958015962368871 0.12524563407508754
Ni 3.2101590690043205 8.512042782849509 3.4720630787919635 -0.41822721017898934 -1.5639431747478163 0.93031588369483
Ni 3.5426251305308574 4.352520940679837 9.322292405123148 -0.0032588732569298713 -0.3939997050901924 0.03310732407693008
Ni 7.446553815911919 6.141176618127246 11.424563720057508 -0.43969000803845565 0.036203446503750555 -0.2517295114326503
Ni 0.5551474700661894 -0.02052290839416422 0.1394850146553848 0.5222463307751329 -0.7611992592684051 0.5555035501663659
Ni 4.745992516251652 0.3314398258486334 1.7537203404650659 -0.5096091016270965 0.34053181507903935 -1.3891480118793753
Ni 6.039527838843634 5.682538625717597 0.5867504744866865 -0.7276059966939922 -1.0851371745445053 -1.1596073778389384
Ni 7.92497640468009 8.68868709641367 11.302949828025241 -0.3599271888865156 0.2986120349168019 0.4036493123648145
Ni 0.034838760713622345 4.985212836455246 5.7268463736756186 -0.6518574409077676 -0.9012297649621511 -0.290778397804996
Ni 8.337068245894075 8.785326545871104 2.3360653124505686 -2.8756840121916216 1.7935647985378338 0.3371706119162903
P 8.445748138573348 1.8531451578222455 3.4976909906990747 0.3590684404306461 -1.451316772098636 1.4241291559402505
P 1.803340685784688 3.034354156654276 1.4625275463784244 -1.2376426727768104 0.5865249382485447 1.1255623724390873
P 4.668993250040634 1.0338895728448956 8.243190697205666 0.5460971692508014 -0.10456085203222638 -0.17386030975899736
P 8.547631589164132 1.53123930511846 12.351972089854945 -1.0016855936870683 0.6262325412508118 -0.3521038361873549
P 6.370351201219965 7.773974444334252 1.459621232497291 0.5636356923551971 -0.35487985627059526 -0.0008708326407275325
P 1.7121077022117213 3.123366788628614 5.919093621420883 -0.42307553941022624 0.46054499711059393 0.2943018375772222
P 6.83552388695241 4.000477876643431 6.008064734625489 0.5164137832537558 0.5298161727025907 0.6203740255875059
P 2.3478864282583953 8.429465560183395 10.077862710243702 1.0765358060287393 0.2172661875484581 0.5682292252631505
