# total energy = -381167.1939417761 ev
CRYSTAL
PRIMVEC
9.26686068752038 0.00000000000000 0.00000000000000

0.00000000000000 9.26686068752038 0.00000000000000

0.00000000000000 0.00000000000000 13.56298732481422

PRIMCOORD
 96 1
Ni 7.951124088777293 6.126933276707254 2.358521711584308 2.63566047634199 1.028827701319499 0.1011140311342065
Ni 7.459461523054041 1.8531868194612495 0.8600184284906333 1.716840251991585 -0.9474862248265294 -0.2738505117014058
Ni 8.276678174958377 0.12001604069169212 4.855169689889276 -1.4822918803239116 1.6010436791445393 0.7322594363056034
Ni 5.38014476675664 7.764276374801909 0.46638256950617946 -0.19684134403520293 0.2156967861788092 1.4293392393862803
Ni 7.80838663213082 8.210067979647409 13.38840461237997 0.27994505463491787 -0.45757742984183775 0.6614201448955382
Ni 6.3701235042456155 6.7391762349439075 4.2362499584581945 1.460732151875265 -0.8686063225001751 0.9885215455012848
Ni 7.384270214657658 4.524072167587572 4.122808755492314 0.33001857425254133 0.5951342771841106 -0.1853271727480163
Ni 7.8536459801968705 6.67402093677593 9.309363240367581 -0.29979397104004496 0.5086647354359563 -0.5247624123287672
Ni 5.838075959228372 0.6487636565839715 1.7206688568866935 -1.0891817769275243 -0.6150942652458052 0.5599379317886357
Ni 7.668994512227149 3.9689408723589183 1.4907756478864103 1.4688594089680895 1.2687450506085698 0.18619389162368577
Ni 9.101261981185504 7.502570959418346 4.402328784045857 -0.4456212859212261 -2.474260246723216 -0.5537212614549625
Ni 1.1579035217446876 4.690773726219877 1.3976520371881003 0.10375121164673744 2.4270735617350847 0.8140277159233464
Ni 3.8499636467610436 8.611841995771831 2.391154961832997 -2.15801995720169 1.7531426859670451 -1.8169556666579483
Ni 2.1150034371742144 1.6092645099210006 12.156872174966978 2.2222659116649535 -1.3832632709638242 -0.4841736922731274
Ni 7.630462905089836 2.0898995113120256 6.2354611900857835 0.1175490367617782 -0.9947857812434416 0.30149501289155173
Ni 3.938814307952135 5.82782681120195 8.45541089894575 -0.5482748936284105 -0.87522665603017 -0.22578065277737244
Ni 4.193921718457929 5.7454444188376605 4.277603324704049 -0.18323738009852314 -0.2748455286248234 -0.5450556153601644
Ni 5.487000938449848 3.290476926964199 4.61130761494412 -0.14089542479720252 0.9607425756158033 0.15692548167687168
Ni 2.0723573438490783 7.527600750394267 4.591613682407271 -0.0687024475727204 -1.9825542506287859 -0.15356967783076134
Ni 8.669250198324898 6.6414664548439 11.363179449161262 -0.3269052254345402 2.584374938694136 0.8577678371237744
Ni 0.38065298702693195 3.038816788669824 2.7241938914688206 -1.1903857966723757 -0.15882989778843615 -0.9194254620345714
Ni 3.281942148182702 6.891829232628601 12.881027304140254 -0.2784468728228366 -0.9559978618419663 0.0669075604558267
Ni 1.1976583545054074 8.671140637924708 11.858377322273377 -0.30975082514244073 -0.9837390365109767 0.8580501442508836
Ni 4.1338075925561135 7.598381033057759 5.853039159335304 1.9657762598394983 -1.8195879620744728 -0.0032480746236524705
P 3.953576417180067 3.9277496761767736 3.0996583631431354 -0.37623749601076495 0.8588253318540112 -0.1538854092989672
Ni 0.25507404980697407 4.824262855804532 9.937329281295401 0.7740146658655186 0.37119967647654134 -0.07060043592638163
P 4.736774423148598 5.346969405152124 -0.0147176282961714 -0.19547814513908918 1.7336760926020014 3.993261052432387
Ni 8.092415915141558 5.9928974023363795 6.449743445410378 -0.35073292398175726 0.20905871203700124 -2.2014919123423957
P 1.5965874443693304 6.4202664879445095 11.341288343932673 0.2462628318911243 -0.192206673476669 0.10778835783058857
P 8.820568768056786 3.122181468277152 4.825141354206798 1.646994949063673 -0.19678837931008045 0.3756512844899918
P 4.420292593674448 1.5957256263164756 13.57248153498112 0.6550178409136204 -1.00411220085069 -0.8140459707557915
Ni 8.858581430990228 1.4284217217332504 8.47080408139303 -0.008801143231397747 -0.3222918950322449 0.9942157676725846
Ni 2.065258928489006 1.0835184302364593 2.267107836700532 0.5339939582293641 0.9560960779827276 0.14387533336113287
Ni 7.872522575612625 4.300833491315837 8.27293436320189 -0.07325278594756417 -0.8793252515795759 0.10111788778894844
Ni 7.291434803329711 4.669098538847541 10.880093363093033 0.04677813669580331 0.9228290883994816 0.5169133485979938
Ni 1.0115612562534781 1.4136874130876689 4.209598466845181 1.2770695113138653 0.5512823129961667 3.5011454796043635
Ni 3.3067958688037393 2.9078760458005997 1.19176741110541 -0.14344313091972072 0.057155623275385446 1.7282477224975783
Ni 5.180582919786453 8.562838835949293 3.9315166550852196 2.0233761697411543 1.0701234747444925 1.6401072208049046
Ni 7.29063785330234 2.364300525968827 10.58188392971156 -0.070949077515052 -0.6777988433638779 -0.30604920792113743
Ni 8.470513101964432 0.907836356818976 12.360832074064959 2.030268783095929 1.6742746107152324 -0.9864788040396429
Ni 7.3573221834995755 2.1519411442567855 3.399617379840511 -0.10740937722461502 -0.3012520436428102 0.411138164542692
Ni 3.6899249610319917 4.553123776143482 6.299627714208174 0.10840310859645201 0.9243676365311951 -0.7191074723046776
Ni 4.906673048751172 5.29387029286333 11.596245631293778 -0.13100799048016146 -0.6666011748758456 -2.7382184390115745
Ni 3.4380146174964654 6.533275855197884 2.043480878961974 -1.4184192500396668 -2.002060181872197 -1.0039103692525293
Ni 3.952019584568458 2.739339648733184 11.052112246442844 0.5530165220784541 -0.41321561589701095 0.7622580395502226
Ni 4.366368730775934 0.9090679226170879 7.948141086291122 -0.2160336006929376 -0.2522936114662365 -0.2896584252679399
Ni 3.58231817361533 2.2305519242822367 6.202964162690611 -1.0005782195555026 0.01219448518366287 -0.27372041388144475
Ni 1.406774334943264 7.997430592111865 2.225211432412772 -0.29980656944553524 -0.2527589811384292 0.19419310777907847
Ni 3.4269129182779703 7.187238220681334 10.176417996251038 -0.18175333935382892 -0.23779464651911303 1.3210790841255957
Ni 0.8209372965088655 8.018373697482314 9.476133373769683 -0.4333057017786666 -0.08465460002660259 1.9857707006835543
Ni 5.141291430064902 0.9955203202374393 10.151760733078609 1.3203285791128165 -0.8910816207845557 0.5649983770306786
Ni 3.9559394666798298 8.941195494874101 12.283319417042337 2.085513562501847 0.9990463562920084 -1.4297151346684605
Ni 6.9524530358735035 9.277239667461977 8.082170473859447 -1.0712046236238133 1.3950944592707974 1.567679758972113
Ni 8.073706123219905 3.3572539257692684 12.742751840960981 -0.8999185023498953 -0.8288310994847661 0.15591529524480247
Ni 1.853149752018116 4.469193818028368 7.846581852221696 -0.11442051843512552 0.2618159491343749 1.7259982643417693
Ni 4.994587757003141 7.838513196537603 8.040003477236812 -1.7484833328181628 2.990804384907249 1.4434651372647012
P 6.895396974030204 8.059259087258608 2.4195690103670104 -0.432038662140785 0.09890545351866192 -0.30044908812554066
Ni 3.879061589620871 1.9019305071818526 3.75833107396278 0.07972219572199173 -0.07450954117280072 -1.4822980509714987
P 5.938899404551597 5.206400393928963 5.913679642929616 -0.32765624466795185 1.0154055143763223 -2.71739507450832
Ni 1.1256641130792926 6.79044050879759 0.20580863782426662 -0.3768584174242155 1.078642310848781 -0.22183092410100505
P 5.722786944222285 6.622163583832109 9.90149618401821 -0.4871844540749932 -0.2613603496541951 -0.07444937735882662
P 6.284664514101243 2.0907149950609636 8.602474126205907 1.4139051642193972 -0.4938729218387623 0.7630013454741504
P 0.8493272512048425 0.8373850477132947 10.223549250195331 -0.5450391602999323 0.8876476554023421 0.1850402376352168
Ni 5.681651349204841 3.1721113141780277 1.9427084013730582 -1.3971318014158 -0.4689933849882633 1.5921335211391032
Ni 2.168473223894343 2.093624789346946 8.917338888473356 0.24806928897224373 0.942732255081312 -0.15795880803739248
Ni 2.9235092399421694 4.182060136655197 12.920780283528817 0.7213507598128996 1.419035286357111 -1.0994309654593581
Ni 1.860804179025192 3.7309771543023853 4.379244107148367 1.267767774296965 0.5371620715447006 0.14842155797091858
Ni 6.688078764584325 8.020162201613507 6.316540661823929 0.002940827795878806 0.10433176674055579 -1.7326108845622805
Ni 1.250952070870652 2.951884367660893 0.11615453980325575 -2.8905820123493764 -2.0226534326425165 0.7519049784506728
Ni 2.964867239618415 0.14218885848809643 10.280893511408994 -0.22471775873049687 0.877959738690617 -1.2153522368097263
Ni 8.916295439949147 8.278105271519019 7.545429263855421 -0.317451279110492 -0.9085625511781384 -1.1376799816382277
Ni 5.7178569742855245 3.508683697830556 13.232661116624016 0.04143744120918025 -0.9490057467948494 -1.230157677253675
Ni 5.904899292337359 7.408262117225841 11.91376905591998 0.7411395124040525 0.659897794713741 -1.3608157405935855
Ni 1.0965847039410317 5.3803671714154415 5.909692112734526 0.003618827699509897 0.7433745723821584 -0.9935825049639597
Ni 0.15516709701522655 5.068954314789802 12.619654569058811 2.335634077576165 -1.7221788905956794 0.2899715856329844
Ni 5.5680859703044625 1.0768740910547727 5.396427567839125 0.2593176081925534 -0.6499352841843904 0.5661018945075025
Ni 2.117051413407342 7.220821324160321 7.815861282038698 0.15033240184038624 -2.4247652253168823 0.1330900698201708
Ni 3.1040832891672014 0.16149728961635654 4.805624418710911 -0.2757942656913379 1.164087782207795 -0.09207377530880916
Ni 7.422329211895019 5.809969570472368 -0.0942115401542794 -1.0585789644400028 -0.04806600226929141 -0.11515122595356297
Ni 2.6184812503962824 0.11063612420675024 0.34586704501826293 -1.1595636690851965 -0.748090232690273 0.7220902090820854
Ni 9.121148664426649 0.6269503929859626 2.6546562948363808 -2.7535825801724703 -1.7547097733438488 -2.178473854180668
Ni 2.7278116739186538 4.546785243367648 10.473989869610614 -0.9879417617384147 1.1476347788580945 -0.8325851672105596
Ni 0.6483318208714658 2.9411904103168673 11.358445936673109 -1.2613181620168792 0.6185914797657862 -1.9277481014221831
Ni 5.372749811851499 4.214901891271512 9.539215675180415 1.188089030218399 -0.6989451384241898 -0.2350255684144081
Ni 6.216302882102215 6.18595391303663 7.724243536217688 0.5440323163019727 -2.27320589304793 0.3328470448402719
Ni 0.5814454731091525 2.817255414199882 6.937495395883042 -0.12498209600105571 0.5959392895839092 -1.634082354767063
Ni 5.74289603212223 5.978505967539783 2.0561218037565885 -1.0373308536945038 -1.0780046772647822 -0.7455720942541094
Ni 6.235114609492485 0.7272113398596354 12.56890182592037 -1.632989893033833 -0.12892154026477795 -0.2295169798913531
P 0.2810435004663311 0.31323657482780914 0.5428480712602775 0.8868349296930598 -0.643974181504949 0.23062461113323507
Ni 0.9636515860033797 0.4865574521176861 6.416038946055129 -0.051250827755176254 0.4820700156665633 -0.10789891526652384
P 3.8048989027714444 3.660910419919215 8.281030819468333 -1.1132465311862116 -1.6160442663184298 -0.08484409032958937
Ni 5.899524513082996 3.4215659396059577 6.959101081799504 -1.2316923687306462 -0.8228237169484217 1.2406853162578761
P 1.2093623996748222 5.8525600626328025 3.3015971599042606 0.031067667939081983 0.5737804940986828 0.0861934052686322
P 2.7692252747595996 -0.5052357367126761 6.785698656134732 0.6935923587527086 3.2239491913591767 0.4586218119459521
P 9.477033185951749 6.0510562206129 7.978874630079217 0.928080309496092 -0.37487892510034143 0.5648009163078918
Ni 7.536496936746317 8.840603721070464 10.633070361934662 0.10714686759184774 0.05598551422668422 -0.4345729985268645
