# total energy = -381167.9072494279 ev
CRYSTAL
PRIMVEC
9.21794399591127 0.00000000000000 0.00000000000000

0.00000000000000 9.21794399591127 0.00000000000000

0.00000000000000 0.00000000000000 13.49139280207311

PRIMCOORD
 96 1
Ni 3.1754527158363395 5.398553529602257 9.098663052048982 -0.2669861804814047 -0.23589511550355502 0.8221588296709131
Ni 8.619404620482847 3.4409295079732813 0.2690469019145335 -1.0628112573537953 1.1919832230664826 0.034702179367875716
Ni 2.5365385694267655 8.362611131755385 4.1877959203687904 0.23029473859764207 0.35696733492724325 -0.4886168156461456
Ni 8.638080175374148 7.1764460757768544 7.842681286916104 -1.7157465047067741 0.22456503520271645 -1.6951887351600805
Ni 7.891288428326427 4.899521685994006 2.426359248129015 0.5620346664166643 -2.102481557814753 -1.5043244346439189
Ni 1.3393396342750434 7.031097532081879 10.66533746906846 -0.18620906113233734 -0.6947159308341906 1.3923999431577698
Ni 6.785715858238635 8.991947834170851 9.028048990723807 0.04130065852099984 0.6387363301447774 -0.7464529541971661
Ni 2.716288480769487 4.2260863386624585 7.082805589911468 1.6933056592047546 -1.8375527740830095 -1.03819114481227
Ni 5.729698956016406 4.686034098983882 6.347161102750247 -1.6093547701133961 1.4061036658971073 -0.331671536474932
Ni 2.286169987786784 4.199824415718078 4.609550050810345 -0.900661808273823 0.03537966505087455 0.5879873817266841
Ni 7.940355545150904 5.044040614713554 7.142910273086804 -0.4007593924115292 -1.199196195875154 0.3971117683566128
Ni 2.0723966445073456 7.960220214840318 8.11218539886154 -2.176981585905857 -1.1002280074393567 -1.0642968407603863
Ni 5.936568059111449 6.026820950493838 1.029359529472895 1.0222806442296006 -0.2981422943692349 1.774795231239814
Ni 7.029272379135937 3.027043814676452 7.283031320642168 0.08056526044857738 -2.1133943480725152 0.3679595722726889
Ni 1.023763315566425 5.324339861078141 7.898967897615638 -0.37806220792432954 1.5505009331999813 0.024638110263654343
Ni 5.784001865130251 5.212434018837084 3.440143217335459 -2.761553514193089 -0.6396393015750209 -1.612913948219564
Ni 4.469246487960389 3.5862319619473997 4.423112520971258 0.4373721585385564 -0.49049063563009077 1.2149819979545011
Ni 0.8341179411556829 0.8568484696879916 3.8428881033067084 -0.19764147133899512 -0.8336460043749062 -1.0925617491433506
Ni 6.953159814112508 8.464819696728107 2.0931490022204673 0.8264109200790477 0.5852926085033404 -0.7188781299026911
Ni 2.2633555759625157 9.13997879961971 0.5608003657065298 -0.887729159372555 1.1251116580549139 -0.8505720907062835
Ni 5.76415563132918 7.111892812744388 8.301995774472951 0.571381654849203 -1.6562995142940506 0.6612697353606031
Ni 3.9357487510951925 6.471540667044073 6.974645920181675 0.7171727171758101 -0.3242911848504609 1.5334756022865785
Ni 4.273033328327509 3.5340123082162966 11.014588781424113 0.9509474439022526 -0.8075392799855253 -1.2875961218768017
Ni 6.0144135976391055 1.598732583258847 5.413272742855183 0.04004621728860845 -0.2205669697869169 0.4386499968097155
P 6.750300516732033 6.823951890661692 6.194195771786426 0.004922634112597974 0.0814764594089371 0.43828181483701945
Ni 1.7484780863235907 6.81777586806684 13.623608967665184 -0.4563607838259172 0.21232169905898915 -2.74894302451793
P 6.979394083224374 5.283826996444744 8.940665645361982 -0.06351036184881964 -0.723690977910302 0.6334424287356897
Ni 4.785680075476949 8.021086300204216 0.4272452597844709 -0.1004026068894787 0.7525521251163685 -0.17334403224421113
P 9.349207696422638 8.107403129425407 9.391709793408229 -0.30280884660696883 3.2348311283790028 1.19016236780766
P 3.5710960976179256 5.53896125522135 0.8972433446359951 0.07060763501523323 -0.35358119206382976 -0.5312765592982012
P 2.9443680734029716 2.059380907337298 0.8669421185556981 -1.8915891350031229 -1.7745715452647823 1.0504532500090746
Ni 3.1330593905919715 9.160544033066152 6.29693252496017 0.31534271740792147 0.9164995466370282 0.06819131226425675
Ni 0.7312512149691208 3.3145607113272626 3.218250708829833 -1.0106908825094723 -0.061669709095655084 -0.2711146008274815
Ni 7.8977778610231075 0.5089770835747977 7.171808528064211 -0.9189953164756883 0.48554897535409924 -0.17129614857624692
Ni 4.924990865739643 3.8942587843796237 8.54038932483984 0.16548802653490208 0.982033880894412 -0.01811804975694944
Ni 8.784848282471522 6.62856834600424 0.9967335378725656 -1.1332312018382547 -1.586946834731841 -0.381486146004214
Ni 0.5869101925720815 4.726224335571279 10.181576993569003 -0.3291292296690525 -0.17033661287645502 -2.0150277977764586
Ni 9.461021359221983 3.150656446015215 8.288154109505143 -0.8191758357831892 -0.07440155484002671 -1.2116614182217005
Ni 2.9200695725671038 2.048854015093535 3.2562148118998326 -1.4405903868200673 -0.13827804177901346 1.4385311902981937
Ni 1.9476962957563544 0.12636510946835006 10.147659567990257 -0.0018051715295388264 1.1652779458611544 0.08524235420927255
Ni 7.286342406188543 5.288389878809598 12.799675933024506 -0.19133121285025112 -2.3518970764022464 0.1961486888435525
Ni 2.1795552455001217 3.1279526495210037 9.605709898114283 0.6294525908500063 0.8637459090840801 1.6868048819717594
Ni 6.153724387901799 3.639281230653931 1.2037344575692603 0.23312012386157918 0.639741374370524 0.5231655001552925
Ni -0.12318030975712391 6.13959327948701 5.709557748001849 0.5170755852074708 -0.3893493508023746 0.9081452611350618
Ni 0.19007308702029613 1.2374997870691777 12.309682283676334 1.1232406662844463 0.2436793874346642 0.7018653973947784
Ni 7.43767339565077 1.644693252897555 0.965255180321578 -0.34444143454609066 -0.7771732660991583 0.4641684527957942
Ni 7.783899378729365 6.213687114736897 10.790901539188312 0.6264384866140309 1.1596022356326159 -1.1871971145317488
Ni 2.703549281924582 5.086664388562207 11.612082095699405 -0.3113130274232381 0.8114175319940091 -0.06441076217590198
Ni 5.0861020939677495 1.3398189673719574 0.5723550587254068 -0.8887401171355725 -0.19125150865225127 0.4062181015332552
Ni 5.811563518202801 8.143675739739951 10.985946785294674 -1.8712511947767194 -1.281834022582044 0.02445221950509337
Ni 0.6120770237488967 1.5928607528216516 1.483014199308489 1.3455665277439988 1.7104544030698994 0.4267311338849425
Ni 5.419764019140698 9.104720163164023 3.9635012156120912 -0.6130458673572087 -0.7749652027042461 0.1027011731156683
Ni 8.872280482937457 9.023924882501513 0.721130834063317 -0.4794251218445485 -1.676270815209655 -1.8951233734086264
Ni 7.090958861531091 7.528783555841101 12.885103230633156 -0.8019805549508253 0.3632228289186519 0.6258669303812769
Ni 7.497811263425125 6.267095883266114 4.099912962432874 0.2750663863863779 2.5194648682843126 1.035369616203075
Ni 5.4074119739509925 8.69593199299399 6.614681513109994 1.1786723648901893 0.41655265069004394 -0.22898810397107658
P 7.955251742931921 2.353055390694619 3.039826337858962 -0.05794006684989376 0.1805256375943149 -0.0976471556315286
Ni 5.418934404165269 1.9703724384180514 2.9241383731243697 1.4445925660009251 -0.0855935669011042 0.1593297202429901
P 0.4373637971014404 7.5930694984925955 4.495710283882123 1.0098866414406222 3.570047187672084 -1.396297735550279
Ni 3.222547192608132 1.7014573531051693 12.232983457403604 -0.5464123864983751 -1.9734224635308466 -1.574662103827217
P 6.478850496772011 0.31932249121988404 12.79248501477638 -0.6572873536740873 1.0444322406259752 -0.3174489651176468
P 3.7727109725352586 1.626718261763283 9.777806150411473 -0.45994104497800786 0.3095585066259765 0.4515865023657255
P -0.09872971284242814 7.681423493375672 12.37831264341582 1.3388065833123457 -0.21855662422510747 0.15158941417593894
Ni 1.5321790263411832 4.660057932308816 1.1042525604824442 -0.28420768656601375 0.7555770279856213 2.08971063130233
Ni 5.018506909358716 1.737914322303142 7.906874128331467 0.679078738517566 -1.4357119756818435 0.1909242072198196
Ni 7.886439789692259 8.795614841263744 4.309434068066035 -0.33331652827752273 0.4753386104800007 0.6749919700427021
Ni 5.546639802716144 5.459567102072897 10.404737891192616 -1.0934343815562912 0.4971166255870407 0.3442642855382781
Ni 4.031762857584719 8.835593065135198 8.763239577744875 2.2712374564676496 1.8091348850619489 -0.31894688981941205
Ni 7.920205119192176 0.05525788813000389 11.037254784347223 -0.19306542193253848 -1.520926047756342 1.2884394437137037
Ni 0.5965696762693142 5.830792149744386 3.4034198495509327 1.2962070034742645 -1.4255448053408546 -0.9016272575108859
Ni 3.626615775362398 0.16866072450450093 2.3345503677704897 1.3716130883194055 -0.008789830377488086 -0.07677622571979036
Ni 2.1945251868345106 1.6555980808523467 7.988820730220988 0.5278014562654071 -1.655040959296601 -1.10938807667207
Ni 6.9359960020653215 3.1451533333448762 9.875119987029173 1.2891606381504441 0.6358230131527244 0.04522827571018017
Ni 5.755407802310501 1.3043759720328412 10.687382182554414 -0.6988199257002351 -0.1328890095529582 0.07699014150280935
Ni 3.9255629227857716 3.562615588980218 2.0131317160460247 0.09626493057202132 2.7393602659255016 1.7919524597453913
Ni 6.175377338760469 2.795323134095256 12.55166345791474 0.6929917490542323 0.24406582423980547 -1.0931564453045561
Ni 0.6118696200050396 -0.0720041273062255 6.161451790500703 0.6065836566716327 -1.00150484513483 -0.08957414881540703
Ni 1.486190702869961 2.0576110620563854 5.687255853873513 1.1162248970882453 1.1625533478411398 0.4874243379999411
Ni 8.328578481874496 1.8526132016281405 5.2275099665294436 0.9632422021092057 0.036331487441182586 0.1256420981825578
Ni 4.94617370144557 6.96684846120707 4.976785572244445 0.3519295153930197 0.1461268483994709 -0.4734308519343266
Ni 4.833060308518057 5.754845507716044 12.632544465458045 -0.3787445787033348 0.22087833037974863 -1.0685566444780048
Ni 3.196801474537352 8.444171501784123 12.045763324104362 0.6071048192824254 -1.1652136682821224 -1.089727365018349
Ni 0.3829143226752702 5.4210637492688685 12.186370157317558 -0.6467959672244602 0.1573049765034775 2.900574604785714
Ni 2.1743471070432685 6.772902915840359 5.813306631445617 -1.3703411635855174 -0.3009201142246882 -0.0618928808500547
Ni 0.8217483818720523 7.923422181708003 2.3257407785258626 -1.2092142422327885 1.930598683497101 1.3364481103824983
Ni 3.9507463462620955 3.5448894823385744 13.29741357727109 0.7147504808875627 2.275788566173442 -1.4330627109844545
Ni 7.081012699770126 3.7215237285513543 4.743425019395152 0.6775437899302783 0.4291780527635383 -0.968763903258383
Ni 8.89254152422624 1.1445921277654194 9.352004420684247 0.5973135442236165 0.48303109402825195 -0.4023892147054683
P 0.5319869158155002 4.1056446801186635 5.94758626777955 0.64921074731354 -1.3708471566876583 0.627200561591036
Ni 1.4220153755485236 3.3508517575301493 12.867604807212546 1.3209746973372474 -1.5457024833700734 -1.7634525525334854
P -0.008744141841010524 2.9237383143473297 11.072116127409123 -0.5833105450763051 -0.25955440679370784 -0.6599142497739732
Ni 2.8080899867726745 7.2907117117257965 1.919946596622707 3.4089274654082065 -0.9517763675614511 1.531337472897653
P 3.275799256086435 7.320946568608059 9.860265269996926 1.3279051059084939 -0.4702563108610869 2.188963955078714
P 5.35065709168755 7.309700676718924 2.6146993616450835 -1.8092521273661033 -0.18578791443451875 1.5357875382492066
P 4.079696167276112 2.168088122950873 6.063909348867552 -1.9910355486269193 0.07247554146190743 0.09485236649521082
Ni 3.24269761856686 5.99441065878712 3.801051541890294 0.809975914451476 -0.25997606771215864 -1.1233442817418462
