# total energy = -381177.0755682044 ev
CRYSTAL
PRIMVEC
9.12877918659442 0.00000000000000 0.00000000000000

0.00000000000000 9.12877918659442 0.00000000000000

0.00000000000000 0.00000000000000 13.36089109073100

PRIMCOORD
 96 1
Ni 7.439343582246947 7.637620670800734 10.297920434578643 1.1368603139504099 -1.330267178382767 0.13582366670124996
Ni 2.834869412231596 2.613770375179445 11.795569725276492 0.5212582558302506 -0.6273931372178163 -0.3117269750322051
Ni 1.0413472524215561 0.448841086873207 1.816627100469784 0.4827320747305944 -0.4487768008310723 0.4149439114420273
Ni 7.547455716673397 2.9179869486626386 10.124816868096492 -0.5835067202475113 0.18902621886615834 0.546626302281394
Ni 0.6482610986077926 0.856040333638359 6.887993605742608 0.0853030322438789 0.07373615334188592 -1.7184325361793693
Ni 7.850923730245844 7.398035855464908 5.845710653432618 0.5422759957324984 -0.7835352037614441 -1.8128326456285102
Ni 7.3593754747086795 5.892882708100798 2.248451229664671 0.017559606150318145 0.32479949194544705 -0.09212596870298327
Ni 1.2156065223756651 8.59427110795516 4.794235020267489 0.4288268400717066 1.2522344545480562 0.25358507658415036
Ni 1.9662569236044585 5.758872226518403 8.757236252036401 -0.2887721660082446 -0.8233929591883303 -2.03292987486786
Ni 5.489372401090922 2.6845184155243733 11.229695860747793 0.3173324941444406 0.5146906299150619 2.41495158166057
Ni 5.719864952145 4.831625587809269 3.506325826415186 -0.9730260209688468 -1.2810254106378196 -0.5249369902334184
Ni 4.298888279622255 1.8710893983662802 2.5777171738196687 0.33532455984648696 1.872414618957201 1.206807689673825
Ni 5.397491236436507 8.409495484133005 6.218172155949441 1.3396671315404283 -0.6199963305331129 0.1744310946608028
Ni 6.537840101443967 2.9225330808035124 2.1073595539022043 -0.08879690432975029 -0.09437414130721167 -1.4321088317116175
Ni 7.676134991086573 8.840182167414735 7.485652967261887 -0.14698585396565653 -0.701236762671844 1.7348202335087737
Ni 4.019511114884681 4.646986895678102 12.204225925233779 0.9211871819206846 0.15017787854039297 1.3723329972045657
Ni 3.747181367843402 7.092459093851212 7.187451346524923 -1.155133915448617 -1.1095451710752247 0.41924690969275535
Ni 0.5275603773896443 7.64437596755625 7.1375488739384 2.1330568594984487 -0.6137416078726526 0.9574212245520544
Ni 7.3629539562332225 2.200209282050889 13.17059212230293 -0.5972981176046488 1.9536257405198936 -0.05347843153411435
Ni 4.179483845078814 0.42843096189215 12.279033533777596 -1.1857146164489516 1.8233289171741436 1.2830941202413901
Ni 6.647513257147705 9.507715032212484 12.181952616377316 -0.7185973654374785 -1.1995540934352051 -1.874457874639475
Ni 4.333888019839346 4.846076445598433 8.02731730882352 2.4546764110540176 0.27204585439249923 -1.076561259950036
Ni 3.756675298418721 5.698567509806326 10.14841202420998 2.6105580248474074 1.8644668248650345 0.13704314093064784
Ni 4.726051254055836 7.4706735531455015 13.418744297105043 0.08717608089687567 -0.3976840959203151 -0.5427632197815621
P 8.535646086652564 1.0914003498681681 10.996801527833748 -0.2677971064184743 0.09004671757645137 0.9289300590908971
Ni 8.318152917463154 4.308957323299733 0.6852217006398632 -0.5147042567618167 -0.3199884437100489 -0.5502158194048653
P -0.12281312077115675 6.200549960196944 3.584580462060197 0.9405115932809093 0.18936637581439644 1.0335428474069812
Ni -0.3565956839207592 4.777683630338535 9.404383639557471 1.4792060423097362 0.7827782709907616 -0.38130822566545297
P 4.799583572117565 2.659815938469744 -0.03665661367807245 -0.33398192977566354 0.2436323362468127 0.6813269111217943
P 3.51715438453869 5.53487936639666 3.718910450921568 -0.09694781557165884 0.8103911476120236 1.5790381214077258
P 0.21066392932075959 5.718404347441105 12.416730216481447 0.1036779352066408 0.11305500554616658 0.24988937290011798
Ni 6.210828965800607 1.3094595033803376 7.297879452284987 -1.0098020521466158 0.7848035289509064 0.3041725597237148
Ni 2.194805044646476 1.336928000592969 8.49871560959251 0.6694353018905309 0.013637645388092642 -0.24771601939788304
Ni 4.3296157510804525 -0.16598859581830192 8.334563724189358 -0.10880471491024488 0.0449084304769162 0.1723544146374322
Ni 8.587251076597065 8.516913831325105 3.3529422491915004 -0.3443056802991748 -2.713474142187359 0.15540081750222914
Ni 3.2199578424135926 3.6139011886129553 9.483293721563356 -1.0379435475778382 -2.173080193968922 0.17972782428336787
Ni 1.8918391139409927 2.5498324042664278 2.829248822755419 -0.14592990189731644 0.7655307967642235 0.1243622030288697
Ni 1.6587083456405036 3.863034707200497 0.13932434407075323 -0.304480834992753 -0.3595168408219744 -0.21567776001541566
Ni 5.759346923047169 3.371997663309695 6.233884611051594 1.602714381978743 1.0191991770907995 -0.40443452727027124
Ni 3.918309466463535 -0.37756905459075585 2.2031843512571356 -2.014186789932402 -0.16275185855066165 0.00923437411407442
Ni 7.589721965292368 0.6386475810223416 5.255800712745443 -0.6092995129408991 0.04038277469242078 1.2179292535082833
Ni 6.435250878554121 5.133468678648633 9.300423274001846 -0.2426874558350401 -1.3452240568029155 1.5025120640255285
Ni -0.008116397763958215 1.4993472436661266 3.7999977468141957 0.33342554305156125 1.4355633659191211 0.04184881771498599
Ni 3.106103705744954 0.12074180072544521 6.227538283613169 -1.1877463021669996 0.7739100219668542 0.9720793407848614
Ni 8.916580922207858 8.215837557955288 11.957289703847659 0.4530219492606714 0.12421230771456672 0.6756159767799461
Ni 6.915881113929669 4.590406720960959 11.948738776184292 -0.3548176355740922 0.8597630131769322 -0.40684056560860254
Ni 4.918914976425811 6.709506798048661 2.3004779692174218 -0.23969469175530334 -1.0336798872054778 -0.40062980881220034
Ni 9.306425446456915 9.281047439726734 9.260206436358027 0.2834247856534022 -1.238939537211363 0.2786345633536105
Ni 4.357705005292239 1.3791029614179457 9.919139078083655 -1.7475842180426613 -0.06588708961111234 -0.2429880177945944
Ni 1.8028791586943693 2.4064923101379025 5.250883952160956 0.27510289605126814 -0.705785558384791 0.823938290168839
Ni 2.760214254303748 4.390422550659494 6.505511442079124 -1.0164105586020686 -0.4387191594847541 -0.34734472423581475
Ni 0.8852789011765231 5.1078807099922665 1.93861224094942 1.0486575915612326 0.2256883501738823 0.9689305107432346
Ni 8.033691022600145 0.08376841840221547 0.49865774893337617 0.4304268375689748 0.07710918357917688 2.5525145996504293
Ni 8.332119949944152 3.1273555041866308 5.8149274964200846 0.34966745883172035 -0.8201024613625166 -0.20126955500988564
Ni 4.2155151373680315 3.299606442672884 4.582826182547742 -2.3028630537927306 1.8311324723789626 -0.6022544331686596
Ni 1.941709635799618 4.753118084974895 11.126228449279731 -2.0057700266236167 0.5079347992484672 0.496027763398236
P 5.630028634076039 3.0683470741492602 9.116550486462284 -1.0199311701608176 -0.11169977706985279 -2.179823683340343
Ni 4.80341765946529 5.686645323910781 5.610986913126944 -0.9760727782149707 0.12947432744445445 -0.8611868901076523
P 5.475031088654549 6.3267188202753 11.571293872993369 0.7907227226488188 -1.120135030775929 0.7871123795897412
Ni 0.16498260432849401 7.369800540782732 1.3994601394784865 -0.17885956274580161 -0.9599650740198307 -1.4134660197994495
P 2.993810590353603 0.8776664120354087 3.972807366599689 -0.9909736065862029 -0.05835015780411886 0.5643843975957634
P 9.093825303025554 2.1592119337684275 1.0964978602847628 0.4226765041995946 1.34183405728476 0.5202367565442717
P 2.929480081926415 7.635484536421288 9.496574269833523 -0.12037365069476688 1.0018545151647649 -0.8306180161818598
Ni 6.684612616626646 0.6610505185462758 9.720903981915104 0.2557175495461209 0.38527980871869133 -0.9406458048659284
Ni 2.3798727894094105 6.1868202759803275 0.3690254299509082 0.02027134865452638 0.06124521996372678 -0.13357780808986672
Ni 7.434395783812501 5.116881686480021 4.923635468253213 1.1430073073884122 0.6754000041143982 -0.7418825612176643
Ni 3.4749429085961157 4.452762985177626 1.9629687372648141 -0.09157292441299068 -0.7326674703772995 -0.900689576187965
Ni 6.2837313980837814 7.375223035745943 4.192046871288194 -0.19526731467986372 0.007228913648271422 -0.35796440873318996
Ni 1.0044761124275992 1.125569371159919 12.703281688948968 -1.4253108349531778 0.6908788164762876 1.1937158894868733
Ni 6.691094050000181 5.66447151874977 6.886243618731753 -0.1134455561163659 -0.3409424202538967 1.7411844851639044
Ni 2.774007839976159 1.8707790198667023 0.8320645074239176 1.377108821326654 -0.43815557367180025 -1.5818385669709982
Ni 8.490832908581176 3.8343612111071526 3.2715080596816977 0.07140030611985768 -0.6908829302413456 -0.4896599121986793
Ni 3.774951114776211 7.955968594794116 4.415187103414039 0.8200404977763296 -0.6665955184488906 -0.04960300773910812
Ni 2.1178311767511935 0.4936989959636516 10.96205009041632 0.518865587228358 -1.0720296906282698 -2.7217710920888285
Ni 5.952101100064353 7.189224155484275 8.621997036746855 -1.7983992438119996 1.427718930174038 -1.234920388749641
Ni 2.859316283463044 7.403412706531122 11.652540922525485 0.29985722017781263 0.18875059660726845 1.077778677296905
Ni 7.208905803869265 6.8263186592426885 13.325778633457986 -0.005384661350681049 0.018664923399354952 -0.4592283351816995
Ni 2.0300397052676864 7.145132150985436 2.810850680753978 0.5238278163296397 -0.23781804355788075 0.42726875155596733
Ni 0.33777670518900815 5.2703090818448235 6.630556549413421 -0.26495089521893084 -0.5249133360843347 0.4843349004413401
Ni 0.8919328684807062 7.027872979600841 10.358565654762318 -0.6082654152494299 -0.2427622749370335 -0.30921963522931906
Ni 1.4728646546286248 4.534054765728798 4.279841081405521 0.18025078666637345 0.6835748266157066 0.08995930006896764
Ni 8.263982740507437 1.9678453312199446 8.14966303608943 0.3784499302810515 1.4997632976357977 -0.27587011323459587
Ni -0.03936968691555798 3.4931639522772095 11.779509463679222 -0.23166667924450424 0.8639482549028734 1.921309801996007
Ni 4.907595289970622 1.243704905366851 5.038592361473293 1.168446059176491 -0.6685806671997194 -0.08279414977909613
Ni 2.124549958389112 6.561419738632477 5.354217170571848 0.008460472062527364 -0.7450406472306718 0.697442071516102
Ni 5.705678828958416 4.7277674645829135 0.7692950202740167 -0.3333782347533936 0.11818641323546099 -0.34428948234925866
Ni 5.457248226384624 0.6914639599931357 1.0630664443684794 1.6678075149336502 0.4404667383034801 -2.6989363535825004
Ni 0.8440907614046155 2.5494672530904543 10.037449884855056 1.3091717911650487 -0.14762271621870707 -1.5006562417637122
P 6.746715702880395 8.038145866947024 2.0254178042577977 -0.07548913147725063 -2.322439176152445 -2.4602127674912144
Ni 4.090377829361802 2.2718336852181547 7.371671027681657 -0.7807805238344424 0.36116517505867474 0.4569647359585033
P 1.156470289426704 3.319151159366883 7.761489078470456 -0.23766660558168104 -0.22211914476538522 0.0038527980871869137
Ni 5.235948356185687 8.27272811117201 10.816362987104222 -1.2010635881011962 -1.2539239264353372 -1.3602662958480185
P 2.4572391948188645 8.3942504225361 13.919243320843266 0.2740127483108829 0.04029458585398867 -0.5767233787770907
P 8.054577669865846 6.60601382599828 8.323848362930406 0.9101314383271553 0.0897924354738002 0.2664843011443217
P 6.81052587088182 2.492485412079738 4.106042814811079 0.07099510026163902 0.925757060679554 2.635738894988409
Ni 6.635381109325975 0.5793178179501145 3.0844283319391477 -1.321847072639872 1.9894437786597674 1.1119717782388463
