# total energy = -340864.30536303757 ev
CRYSTAL
PRIMVEC
9.33913680550320 0.00000000000000 0.00000000000000

0.00000000000000 9.33913680550320 0.00000000000000

0.00000000000000 0.00000000000000 13.66877072926818

PRIMCOORD
 96 1
Ni 5.789583099219542 5.838940437550306 11.851603763405917 -1.2473735269113293 -0.5673769045651842 2.9417284533162045
Ni 1.0094859819960071 5.382247305721987 2.190940028480412 -0.06293906272638193 1.655080811395601 1.7769559863365592
Ni 5.12792393061823 0.44207271306638796 2.980557513008176 0.4649896631455088 1.1401225296414494 0.3474982190945434
Ni 3.2431647025110597 0.37619444162169413 11.16637448118508 -1.6501779747773453 -0.7140727380942476 -0.915821803843713
Ni 6.80424296303868 6.458265298743227 0.249215801152367 0.8292337342398234 -1.389529049367878 1.9431988887596146
Ni 7.41035294556783 1.3950055517772602 9.476832164877681 2.0436441759615707 -1.2192052920072294 -0.687984268537312
Ni 4.642914535815667 4.562588619641041 10.06927805625986 0.8828618039779246 1.2151036111340299 3.7587440482232815
Ni 3.7829294567522727 2.7836978470338773 9.128060230832261 -0.46344700124873733 -1.3676885564540187 -0.730411070242955
Ni 1.8018930667053032 8.003715006276451 8.396794607349806 -1.739784005271952 -1.029965414468368 -0.23598587544514843
Ni 3.568288074187289 3.047621854834706 5.9872225831220565 1.9177310835058132 -2.4486536018987053 -0.4352317151567859
Ni 6.673728525352318 1.4481919362226148 13.076831278289587 1.039708609898061 -1.7841391343485593 -0.9882778049215948
Ni 4.5713207126096815 5.017171106537903 7.990312410961696 1.6069942403010196 0.14181665105989122 -2.1380537984924084
Ni 9.269102677506377 8.932165297696104 5.644956291816697 -2.1855497871908427 -0.6242857019370861 -0.6263469553414891
Ni 0.7263625766284079 1.3993108938719585 10.899628186223692 -0.00491054992773993 0.6592804728447162 0.06403126734929618
Ni 3.9693106111642025 2.412616582845692 11.958521003975846 0.8408044697965584 1.3161322816432819 0.09790555149923783
Ni 6.730482460080047 8.897171551863488 7.138009705883334 -1.199625570103089 -0.2646919851305893 1.488536832792359
Ni 7.5534938962954765 1.2343630585648733 1.9688768338489273 0.6614000902908803 -1.6252516438493105 -0.7852850965730154
Ni 3.870343777807325 7.5511591120792625 12.19669887926764 1.1408871757216157 -0.875996187206343 0.28876856646381877
Ni 7.557024090030392 3.2362537412310663 3.1563518218701048 0.673906193177691 0.2569365095548865 2.264897887402867
Ni 7.965779432331407 5.0246424160297884 12.266847004086946 1.1165509129690965 -0.996776329310909 -0.23847033242989898
Ni 2.0726533226912065 4.246234697480911 4.665069770200165 -0.24531589459682265 0.6494560305551266 -0.22813501194216196
Ni 9.085943525312821 6.274517780927187 10.471809797754133 -0.906993921139438 -1.1560685114477445 0.1641345978308012
Ni 3.75784453513327 3.9968610649155276 0.8564987792717429 0.6259952284290251 -0.4779693632346284 0.21152002909330023
Ni 1.1297834039522165 9.102109571225888 12.989829747083963 0.6190635343061983 1.1190757362734793 -0.9455805231633845
P 4.497550870514184 8.171315156453156 8.026657529898657 -0.0007875288983018695 0.10718543413926702 -0.13104681413789687
P 7.596911543580192 8.170661416872615 10.045549177313633 -1.4000638874609308 0.05404741666370691 -0.173719670416075
P 3.025534796149322 6.727437901462105 5.768440227271196 -0.9580038365284018 -0.4056881971717142 0.8154855314157954
P 7.90658798288195 5.525033369248769 2.448897261738284 2.3631937323619883 1.7278366031020889 0.7743437670701632
P 8.05892798342148 2.3127531923497875 11.49877117265166 1.64761612758744 -0.15303000327720742 0.27335660278412277
P 2.7440158544951045 4.771458415623544 9.280248003440896 -2.29120438650788 0.5354404608679038 0.02376367807850101
P 0.7997616549903701 4.767760117425061 12.867835403959408 -0.5000852212970613 1.4935975351447182 -2.040033575792177
P 5.734594261359271 3.5828291102858696 5.727215409322348 -0.29170990848032985 2.129025626851869 -0.6274566434659001
Ni 6.507015593177775 5.560895654809815 4.188795270107301 -0.9701201601759616 -0.9277452947541763 0.805520964003916
Ni 2.02932906677514 8.685126449346935 6.191543285537688 -0.040069100106743895 0.5090653133084846 0.40687193306717023
Ni 0.3055373338432537 0.26972361179390414 3.111271808223445 -0.9877617845171246 0.08720667702449497 0.7019119343619976
Ni 6.3721397785755265 3.10149933540806 10.592723602743423 -1.2157718408456482 0.1754230262604269 0.11811467945726112
Ni 6.084914624296881 2.9356362646882186 7.735854552287086 0.6397148920079628 0.2995402031580261 0.290558568484706
Ni 4.255863347588577 5.219774341684088 4.885382810583176 0.5956592964496452 -0.22471878717176136 0.12812167007130193
Ni 1.318648768770198 7.5991249190171635 4.0088319705489 0.6499707654080161 -0.5646055124676341 -0.5358582651316126
Ni 8.264818594744094 1.262053599369171 7.024736248763183 0.17169724066940753 -1.0799528021300886 0.9223531772043277
Ni 1.4755556072366425 3.806015803082197 0.8463788905649849 -0.4584904285744104 -2.9624484594723755 -0.21783517267805064
Ni 3.5311183094651626 6.981817311387051 2.1357998966029297 0.6012810135117967 -1.0497927336069404 0.7575014987018438
Ni 3.288963829696313 5.066117522846612 12.115397023290637 -0.5867511953267378 -0.22363558140991163 0.2775881243669671
Ni 9.091817842400816 7.447270553594605 1.3761582396702945 -0.8106492863694168 -0.3399306911599307 0.21491259971461696
Ni 5.845431137671381 9.37032958198455 10.671838232866678 -0.6832508676173845 1.5883735398760386 0.2243043253421621
Ni 0.7104654978570502 6.572464264326686 6.272598588301459 0.177550614126391 -0.3960540165160598 -0.4710947476019822
Ni 5.859103634041531 8.679569662912344 1.111569285324688 -0.017318693784105655 -0.1608520704247875 0.5084852724352985
Ni 8.889999094751278 2.151326211640753 13.639382592567364 1.477103908365069 -0.6950638010919127 -0.8460400071638848
Ni 2.628089148591648 4.6986131480776665 6.98840513853152 -2.847699354053238 1.8863047466757321 0.3156381371611532
Ni 7.507386577593683 5.294674219340233 8.11967346524525 -0.023866265094636317 0.060431208702863656 -0.13483610597700005
Ni 6.422561778508883 8.761557945448915 4.894295148893307 0.9763329738548928 -0.0558728999082199 0.9876851656429182
Ni 3.6931896906178725 8.446268684891379 4.658822821551262 1.7214147587361452 -0.3001860642721411 -1.0937429139356454
Ni 5.435629812041502 6.71481138842082 6.661789372784287 0.10446392144304589 0.5773617836920379 -0.8886604129375728
Ni 3.5456500064268788 8.771457430525663 0.6360718014189807 -0.6636022401485216 1.0902495560704062 -0.0703384405142466
Ni 8.316267899732585 6.812825629817483 4.302778501629181 1.8544323234471674 1.314727173765639 1.1110343540262413
Ni 2.813853919970497 0.5554414293825606 2.9568015505650416 -0.20211519083963253 -1.7507937261188944 1.0391239410391846
P 1.6787658862790427 8.250651124120107 1.7706116277764683 0.3303900986593471 0.12471650104449489 0.417678536764371
P 2.190737369210445 2.1352815745069305 13.053580563150843 -0.9864901168935525 -0.5048399623732274 -0.029567686354787785
P 3.206667355643203 4.82126403252382 2.8988998359166214 -0.711254294808846 0.3808991631524924 -0.4092111227233082
P 4.6998272358700985 5.742037553440562 0.09211284081176052 -0.0013714264262298962 0.7348323392391022 0.11900376693043375
P 0.8031190746932858 0.8456028082915154 8.232932913660102 -1.0895245049789237 0.05391706173342973 0.0745535070368587
P 8.454365716553209 9.217690729065344 0.05135404579246979 -1.6609012747321201 1.5576079765584079 1.211836510346984
P 0.21663248654457115 4.44265542402256 6.755530025151592 0.04189895422663107 -0.21477118904074624 -0.5172313940590446
P 5.454420155413593 7.575300780874916 3.485399498856947 -1.7887195546303905 -1.5661072722786706 -0.9532706927187904
Ni 7.328859637285097 8.239304072829308 2.843746629247528 1.070712514478743 0.6546023506427565 -1.3590655906716982
Ni 8.538473983158102 7.488624251632187 12.602934522442515 1.05062757080341 -1.1634635183602349 -0.9340748365166299
Ni 6.0768829665931055 3.6365291472587917 13.016265107893624 -0.8171112399446767 0.9565709607366171 0.6189576048559534
Ni 8.783140690743599 3.1088865926681613 8.371507026460835 0.3646081393019527 0.6176388860445299 0.6288311552159235
Ni 4.810580059950425 1.751162875255406 0.6573500908518684 -2.790310017500491 -0.9819341220917542 -0.6969234800084707
Ni 6.053656533210209 4.8265032883050045 1.8658278637684205 -3.5201042800950537 -0.5287350238232701 -0.09611940613309253
Ni 0.2121497008494403 8.47736801065135 10.463690352163828 1.508663171228589 1.6384797125038104 -0.16535561472209587
Ni 9.23904933507527 4.658735033664732 4.260118258344206 -0.5839546064182073 -0.14160324949750452 0.4860966203274531
Ni 7.920475279399991 3.0731550550232223 5.674384845991545 -0.7720138333854059 1.3706414684347554 -0.2676994044983454
Ni 0.9986806006433689 2.409712111280722 6.503956091940848 1.2270420144428285 -0.45990787774722725 -0.7791378460246969
Ni 0.7685717396028108 3.828383035873527 10.642873833794013 0.17745059821341697 0.9466665571387115 0.3674553789427607
Ni 0.8378550603484309 5.6274930397931024 8.554053531276054 0.5246690812840125 -0.5513661309592246 0.022411534925980758
Ni 7.95680452180428 3.9892870249181294 1.0337714734993786 1.7823977261774204 -0.44203639678344514 -2.2954906725880595
Ni 8.77778002618317 7.782050592789096 8.190313762577333 -0.25125925666445115 0.5015890595360974 -0.07552898357625057
Ni 1.9056695555475824 6.952660526094971 13.549880040509331 -0.5263881208576483 -1.7892515158744606 0.14877328488338248
Ni 3.585911025451272 2.6506058075728154 3.1495856172115166 1.4869620321060715 0.9560215159910503 0.07397449460493713
Ni 3.4193008237822426 7.130487031138692 9.65090433690173 -0.0848137513122862 -1.2630523710991666 0.8063468023393209
Ni 5.55961619305933 1.5346536653174507 5.229740134632576 0.6853596864302712 0.6251423935104266 -0.3061381680905179
Ni 5.635935619518933 7.19579561523463 10.22567591176717 0.30349558826134826 0.2977260327674227 -2.3556647709747947
Ni 2.8404797991722015 0.5604145197630963 8.674530264660069 1.353197304816379 1.119169581538866 0.8589693136310433
Ni 1.201900218822634 2.608066039153397 3.2698708982898017 -0.9512855439679618 -0.17613213651230955 -0.3256507842021488
Ni 3.9640806945198834 0.5367510147749244 6.58488905201169 1.5223149576840684 0.4133809378302816 1.2088326905236537
Ni 6.3188226462140635 8.169101781016185 12.713023333891751 0.573559122116496 0.5674218988705066 -2.576452855633582
Ni 1.5719635170925503 1.1677096387603965 1.2793104564680517 -0.5437831764056441 0.9988434962525831 -1.870888669230978
P 6.7236275336212445 5.192672166502275 10.178259246076923 2.5691707201498724 -0.10126289800724496 -1.760426364112652
P 1.976030612687407 7.71599487774397 11.283624542782286 -0.037188950345471435 -0.2410193241039978 0.3946165127385849
P 4.741386394918707 0.21752717585622433 12.626964121595792 0.38438377926698314 1.258982571905167 0.522006703960501
P 5.36840670488827 1.2492589818643185 8.870826780681416 -1.2092366108302917 -0.5850378121800569 -0.059914674077761326
P 5.890006837927339 2.5680478376874896 2.0813163060470465 -0.3171180641407893 1.0325843401484538 1.4441598493388805
P 8.00575093811299 1.1576794057675412 4.667912603461827 -0.06394822071718663 -0.5642620130852862 -0.787236049651799
P 2.6243067981613812 1.326559017694731 4.988444855455293 -0.38988285470834144 0.1543160690784826 0.1092752267887602
P 7.708999864232194 6.961924949864908 6.492297113478762 -0.6490076301637984 0.3562535966896703 -0.7510796543359001
