# total energy = -340857.2196931039 ev
CRYSTAL
PRIMVEC
9.38181211455483 0.00000000000000 0.00000000000000
0.00000000000000 9.38181211455483 0.00000000000000
0.00000000000000 0.00000000000000 13.73123035774860
PRIMCOORD
 96 1
Ni 6.760918260169489 2.5760672745452986 11.734819024444834 -2.2662266335166192 1.8675205240896933 0.4951510172202376
Ni 7.3702012659521 8.798272517529819 5.474188694741438 -0.6541588353474347 2.149060948236189 -1.0699301277867637
Ni 7.018505285819172 7.579894142201229 12.771883566133843 1.0291082086743955 -0.20537020744182052 -1.1431952550295021
Ni 0.5524395460758494 2.4154881832348387 13.69481461416614 0.6082792992065008 -0.8179938996599461 0.3760492912593588
Ni 7.831748880821776 3.6821453622490816 8.067798081049549 -0.8035558698577451 -1.1510702869022047 -1.6878767748796997
Ni 3.1295378817414456 8.63849088022505 1.4829595416987662 -0.918602966133276 1.088317629155016 -1.295332057068479
Ni 5.224702863608381 4.704040452387502 4.935731801019474 -0.00024014103526410257 -0.4977941112700395 -0.8433002396352186
Ni 0.6929847164010114 3.1752835962325534 7.393347133921955 -0.01506512186323857 -4.077948048358822 -1.4366368014889581
Ni 7.891013786162286 3.771675992558483 10.34310417007711 1.7106742323901896 0.07815150880076217 -1.107278743638551
Ni 8.607080574212697 1.3467121793736816 6.929355557070135 -1.1622563854260113 2.1404927469512036 -1.202420873460039
Ni 3.364655468054336 1.9595790372759823 7.917660946307712 -0.6407315061979352 -0.20494803230273734 -0.5614096312381557
Ni 6.23439221655383 9.260823986265482 11.167568412030365 -2.8721289478505114 1.5995246713968516 0.5378827517608092
Ni 2.2046225805067543 3.1864573341240443 5.561889871743669 0.8344201635367694 0.6714309921643211 -0.5793037379097571
Ni 3.0786790798020904 5.999152666687128 3.60117938796079 0.36442044877117885 -0.37981621450095876 0.13133040681658673
Ni 3.186992097398448 1.9957834491343056 0.45146216715065607 -0.7524587940716136 -0.9014128275072346 0.37004627959838854
Ni 3.013550542066801 0.33941425026412003 10.38516283251838 0.030253656678218863 -1.0039440507039419 -0.10127755329526429
Ni 5.327030285256148 5.014184387918068 2.310060072776712 0.6593704614553612 0.31275695895861616 0.3189972834413732
Ni -0.13480256330301119 2.862803589555907 4.394103854898415 -0.8886339305750115 -2.884518836874432 -0.9748556179784179
Ni 1.909573980213307 8.841344415648908 3.5751176528736592 0.5676075325187515 0.4997144682212039 0.7525487826822588
Ni 5.884422489797925 2.7434387976218697 9.2365316608898 0.3423408432633201 -0.8264158051750541 1.4323358601207592
Ni 5.548272171870034 1.7047033552456448 1.466028185886194 -0.4475483277406098 0.11657895953902504 -1.2680469961002807
Ni 6.428070340006338 7.395522776085714 6.822636509303974 -3.4928870962503136 0.4754697367412262 1.1515577680615843
Ni 7.397427283887539 5.555927730324657 3.4723671115122854 1.1333669560851707 -1.0377126625139548 -0.019816520505294904
Ni 1.7272478490770908 6.280344330905234 11.909370448116164 -0.7860834241045945 0.23151369860640775 1.4877176793251734
P 3.6233401656883224 7.917432968280203 4.703000947636555 0.9720813976673904 0.12460028718160476 0.6704915110691873
P 1.6812863529138553 0.8930227700941925 1.810654970803977 -1.3058198439736801 0.3976432153800506 -0.5758432901649825
P 5.30509560919376 0.3502230356753599 7.247466527208136 -0.6357718481998147 -3.755464349030745 -1.781046868576481
P 0.7111479041070787 7.430807770384535 7.238390562442201 0.08551309137215594 -1.0874228852548886 1.4716135746744592
P 7.018852412856942 5.195394083446318 6.09841035950358 -0.31431221926087805 0.6536764963943775 0.48533968755677065
P 1.164667502592415 1.3467403248091765 5.40944574947243 0.14146595258869185 -0.47627089248628307 -0.09294177973605929
P 3.0841205306644457 7.015165360807106 10.171766016958118 1.1516780956895327 1.2133573178668846 4.3038521140879356
P 0.7182086556915759 4.143927522414549 9.905255950075357 1.1103872073605456 -2.0052961723109917 0.14536168809867225
Ni 2.4389802400612814 6.573328932595719 8.423601418402372 -1.781243300858003 -0.03791682965043147 -3.1820553793388684
Ni 0.15189059537317195 5.110948395149669 7.807110366589507 1.5074668369276425 3.741136619554163 0.2291696238542634
Ni 0.1910793615751421 8.932216645050234 5.950359739713102 1.4412701864959114 -0.039372845370667674 -1.3432095974760478
Ni 4.186070621162304 5.78387761239817 6.745041420006793 0.3663166373526272 1.5175980118243735 -0.00016146527852875416
Ni 4.8384536704995 1.4578585041431964 12.533180251338898 0.8538515327885038 0.8618630902390705 0.4780716931404477
Ni 8.741662664937666 7.647471332824578 1.1215777790308463 -0.01760588600722129 -0.31255589869140366 0.23075728005635743
Ni 4.810824234655301 6.929969127563925 11.753054452102004 -0.9953925615895051 0.5625946526851924 -0.21720525240353558
Ni 3.523817905778217 9.148608134947159 12.68830194270689 -1.1106026658054615 -2.036678543277015 0.6844970813196598
Ni 1.645372777222313 2.428481992621669 11.49662326566998 0.1034766178291121 0.9867006902424621 1.022245420116291
Ni 9.368320786232486 5.280327625958214 0.9927148407984503 0.807132788575726 -0.15830179319910803 0.4684208003142449
Ni 7.239071681981179 3.0511340802643767 5.539521755974657 0.3146408062448904 1.3743597978266073 0.10794776622658829
Ni 8.62658536101069 9.314131441092895 12.890398365915933 1.5669616498591659 -0.4041879584771039 0.9167155193025761
Ni 3.8505770300626296 7.974164784426169 7.156277192566899 0.4053999765073341 1.630431131167721 -1.5422782881798731
Ni 5.862318941122565 4.855491040785769 8.509421542132356 -1.3595098772979683 0.2838027378181112 -1.220750267896846
Ni 4.746352423748227 7.578214797883365 2.4962824703666113 0.9048059123491837 -3.329749315115143 -1.3366391433473819
Ni 8.965512695240749 0.08651062508079456 3.2374259032618298 -0.5036852799434938 -0.08719819238406273 0.7426191822733726
Ni 5.981890132916899 7.179487795038393 4.537498281476847 -0.9875738368760347 -0.30672180850812986 -0.781205527187003
Ni 9.010404664855177 9.197130865740435 8.492573684445087 -0.5061697369282443 -1.5947046243003888 1.0225277272434004
Ni 2.84213545809079 4.782744471843183 10.79792314950113 0.6569875630454814 -0.31318016253896386 -0.13642144818624893
Ni 6.784382171560436 9.011990191054725 1.4732099628433195 -0.3474537390098532 -0.5002793395857384 -0.6001047338155084
Ni 9.011596154957795 5.850788694381472 10.07592142728602 -0.7513066827450415 1.6205025592000994 1.3094073042146224
Ni 8.257026411150306 1.1652304113023138 10.971115148638054 2.0595639325156205 0.10633954119920397 -0.8916403215015031
Ni 8.464758488726622 1.4081911923064605 1.2716013938495205 -0.9928222297591675 -0.1364417599012231 0.9938912944536302
Ni 2.308741928214366 4.283894773130881 8.380526705739735 1.457161403804871 -0.12127790767659113 0.7137660054871062
P 4.365244463523087 3.46833387060586 11.979097950011326 1.2293225829468895 0.7019772403822943 0.7888928685289317
P 7.0321182947868905 1.2034331490807777 13.210431669298238 -1.4370882872040798 -0.11948250633906521 1.8974160260975452
P 4.779883019234531 0.9291821492557241 9.219916472135953 -0.15651281961948527 -0.6698523348232915 2.398012896923702
P 5.969890795584223 6.23821061396931 10.031967638854756 1.527062756781699 -0.07775118803854997 0.7348709057865214
P 1.0974749662541634 0.34896587288991926 11.676461340308443 0.2250856835928769 0.022174736324826326 0.306672186217117
P 7.071259213748519 1.178280511560134 4.493215191450293 -0.30615796558485986 0.6582995969886856 -0.6949334461616354
P 9.08610650452473 7.130786809820316 12.339213168081974 0.29833229889285395 -0.8664874763849594 -0.6759419926607972
P 7.727132297087087 7.641241809768365 3.0337233138672075 -0.3855947688559488 0.005234251815745824 0.653513488453952
Ni 1.7736878176437405 5.841800918646755 6.016859898338177 0.3483297138569033 -0.2176184286815542 0.3820386760735743
Ni 3.5642159875252863 2.7588812598967603 10.152802560702812 0.5590964097239468 -1.347610554757221 -0.6917586479780796
Ni 1.3037903902438994 7.97804885452447 13.6080056474691 0.9535823104219384 0.4809808963674426 -0.08522127116335002
Ni 3.3219776060321764 0.7672398806861263 5.664846812965339 -0.349284878681321 -1.180372635410748 0.19897330277654118
Ni 3.6533431999259274 4.213427984463385 0.9871598700129325 -0.9438416860954069 -1.380151721918036 -0.5452918997406867
Ni 6.084789845086396 3.8476686683948187 13.71343469610841 -1.6789007966333345 -1.7483462930196663 -0.3738250299145304
Ni 6.883698031610245 5.2771847189946115 11.79964452965796 -0.5007470232507764 0.6089704117362544 -0.27214381342294425
Ni 7.026001353472657 5.699291196924046 0.4844579993625565 0.45058068680903046 1.2724181285847829 1.3400471405876664
Ni 8.894361034309542 4.212855693941655 12.573577394904783 0.11615575595867737 0.4055768684048305 -0.3509776930027117
Ni 0.9229817098161891 7.913670861735713 10.361174477846044 1.250044388875273 0.7360363868495324 -0.8449292905982094
Ni 5.250493464333577 0.08761580251456251 3.235695897160074 0.053637839930114076 2.379482185109367 2.1362465700803406
Ni 8.4046304566976 6.8777499629089816 5.685786078792391 1.716783430611721 -2.654265750148003 -0.2922048458388774
Ni 7.978076999959965 8.265207351067504 10.519193272707648 1.1299710430297445 -2.657690459558836 -0.6936507227944699
Ni 4.902062354718063 2.1916006256844294 4.593865145142562 0.3715280063502375 0.6346099666812297 0.38085725417096344
Ni 7.6845951622424025 6.251701659383217 8.099612743151845 0.094514780650134 0.5409266807934555 1.7292124004036928
Ni 6.619693846667715 2.818549583146031 3.18935256125529 1.4202079665089735 1.339768433004983 -1.325403936753195
Ni 3.046114810934446 1.7014572483518948 3.277932814026146 0.1762673765385932 0.016103076209449688 -0.41874554457630464
Ni 3.4439974507145696 6.3066696949048335 0.3001250986755513 0.7265508159566004 1.5635405399927589 -0.834851337536917
Ni 1.3086689323963554 3.3299802915245706 2.4754388990202423 0.20381931801493286 0.07554106776110861 -0.5726191268007299
Ni 5.283667550970279 7.987214884683988 9.100208305888879 -0.13590825599525627 0.6923227480116658 0.23532972991838827
Ni 5.6821600085194595 2.295335319106943 6.927336591163965 -0.7066985571173635 1.8694519367844513 0.4711849933229434
Ni 0.8136845401586917 6.789298240960219 4.0031065268215364 -1.115969843654646 -0.1935413331276925 -1.2062263632490582
Ni 1.9143117951882884 -0.09713740334250043 8.077285907354893 0.33233205287706635 -0.7853367757465571 -0.7305853910372901
Ni 1.0991261651365332 1.6400251444782743 9.524736229452062 -1.0270832078245666 0.38030858075634505 -1.6936630425441734
P 7.803040536616939 1.6463578674646357 8.983491999434916 0.568382463011563 0.49635197950687415 -0.7248970824032612
P 8.45141755230202 3.5633716244604385 1.9812791680425803 0.05018639104640389 -0.14318113550758566 0.07048113673969797
P 3.760042545887242 3.7680358495678044 3.1856317346828598 -0.08287333975646372 -0.009185266043693857 0.22217982279999154
P 3.8584577520012124 3.8491416128523874 6.938226060156957 0.8742743194192297 -2.0814275653579317 -0.475347095120433
P 1.8289654529558013 3.9038938667018757 13.051630431329874 0.9867950497284812 2.233605505047489 0.6727895630747445
P 1.9377006520845828 6.658102984306476 1.734845240298358 -1.315387433057457 0.5868427265992796 0.7026773517731124
P 0.4647327399865199 4.682612394164021 4.71939660199354 1.2289664851590512 3.0176168771144027 0.10606443316094635
P 5.359707135865773 7.603273617285692 0.14894658282040132 -2.6259165095813484 -0.1990118693239605 2.0176279544034674
