# total energy = -340865.2308894149 ev
CRYSTAL
PRIMVEC
9.29576630919830 0.00000000000000 0.00000000000000
0.00000000000000 9.29576630919830 0.00000000000000
0.00000000000000 0.00000000000000 13.60529362397106
PRIMCOORD
 96 1
Ni -0.22015720434897207 5.8065165887680195 13.193107036636375 0.3277459761682807 -0.4175420111865067 -0.1336081471071699
Ni 7.095718492175689 8.26264388922426 6.922155385475672 0.6394822071718664 -1.2388076396191892 1.049028087526774
Ni 4.122830262343691 2.4205338123272298 8.619156967161423 -0.42093175359434604 -0.33120256725831343 -0.8900477802034026
Ni 4.133250816063362 1.4425820429032719 3.4881794985984076 -0.2033068971548886 0.271507465390526 0.41924151037611673
Ni 5.758364520732431 2.8457128547750687 10.08420222867628 0.7861533581105815 1.061935025396429 1.4603495717248656
Ni 1.5558695435113263 0.7538680335038989 2.2516762223916174 -0.5599610717170872 -0.19773788770754333 -0.05588164165896827
Ni 3.6699312455942836 0.9109144231217471 1.1835629590891295 0.7804732770066687 -0.3584562607679439 0.6798295006406614
Ni 7.806482058598309 4.000525868686501 8.773767866079403 0.07402128868247251 2.0547947932617516 -0.7678193356880841
Ni 2.3180851749101983 6.142372615433238 6.881475254175026 -1.49261383107521 -0.4891521193243253 0.051143355643034495
Ni 2.0777152569055146 5.313952538368446 11.370201740686602 -0.4823649211991629 -0.28066316374786504 -0.09459114241402418
Ni 0.284088835220548 5.753381990140331 8.443159299338141 1.9534097678543456 -0.06035279005644444 1.1774328360561335
Ni 7.633357712054909 0.8880440499580483 13.3961665385263 -0.9611220704424092 0.09797162885048288 0.0048748115937980565
Ni 4.511746521508358 7.877585372962058 13.555389066971781 -0.4580993637835788 -2.3822268377340388 1.6544496055695055
Ni 5.39899020601122 2.9996600359985033 12.879301496571005 -0.7795885604088704 -0.205031336045163 -0.4173476357875135
Ni 4.153813050521803 5.700489081429423 8.183869708732525 1.7374301603277948 -0.8376453553422863 -0.3965306990421622
Ni 0.3066096875815174 2.2096686557018823 7.675072462114698 -2.490534044182575 -0.3896781948967031 -0.1452380180366144
Ni 6.823993955351693 0.3899796947985026 9.579255288348094 -0.04009224003519547 0.8354141520189224 -0.06730531011487763
Ni 7.188202068408522 7.186222070244124 0.07636378836014672 -1.4792782903085686 0.6614147455788997 0.22708625896267343
Ni 7.3329092581981 5.7770211231547135 2.1183981769359694 1.479884813544316 0.3367839180008329 1.1055409350118381
Ni 0.40617106006962017 3.1193058405711027 5.065550148937208 0.08803842889717095 0.056815466327147304 0.5912776224421817
Ni 8.815202813581688 3.0351791579992726 12.494856500866787 0.7612861625552567 -0.5040974277802479 0.18099203570777217
Ni 8.067432802593492 8.780603972417891 1.8448637544659248 -0.15990024803447944 -0.0124312837848173 1.1348728512067359
Ni 0.4207849338454405 7.446484927553087 11.281931005618581 1.3229022533772636 -1.5639596298080485 -0.7822496521808012
Ni 5.351804897642755 4.776173881998775 1.608200058377417 -0.38071610060740885 -1.0472817942596286 -1.8804611434107614
P 7.687152310070731 6.91257330985191 11.60583174759257 -0.7533460817725736 -0.045146514629651274 -0.11148123330114348
P 3.3676422300635274 6.719825601219103 5.172990612712369 0.7198227532041475 -1.086579563417987 -0.9691963628101115
P 0.5827608681890172 4.213343136178157 6.858632768309417 0.8963492969413983 0.7630813067824664 0.8663324388643336
P 1.647767486484267 7.11869762580194 13.034782479189396 -0.169788710792785 0.8024664934483082 -0.08211280744135536
P 3.93914592559017 3.694100237272379 6.9695972569865665 0.46931065911836595 1.9308429382974233 -1.2848738378496323
P 1.2042014188290162 3.4829004330699496 10.33930221753216 -2.548119813016844 -0.41563425264083254 1.0393013471573134
P 3.5766389377168375 9.37896313600531 7.976061929554455 -0.6876623664215189 -0.3111281651059416 -0.7717006730203613
P 1.6159852624275723 2.5545880542463864 3.4331597186198275 1.1868793261810138 -0.42749629418574114 -0.2737463820233737
Ni 3.637702824768147 2.043934443152362 11.122544871690973 0.4360650096913587 3.334648037968341 0.3026728352497368
Ni 3.143911733252609 3.999726432807918 4.708261804113138 -0.04527404134645106 -0.34548478820894046 1.8026276800710503
Ni 1.018397647420647 0.8033029172516328 5.5311499708134555 -1.4473212777859976 -1.3696698485501055 0.09961482088086071
Ni 8.573066700031298 2.2043979563628517 1.558281794796121 -0.08746353023030744 0.8412251022737448 -1.1755592731825046
Ni 1.4775527147082692 1.5892134562610674 11.252162244483992 -2.171906228265479 0.3058386345722281 1.2373171711165916
Ni 6.0323200414036355 3.244315302143033 3.291487596439057 -0.06157046451362945 1.8395528352321737 1.4711104097857954
Ni 8.683769977683001 5.048130812973523 10.72080789201768 1.9981947853795199 -0.2825493250269843 -0.048493576725013254
Ni 4.093548599349076 6.728275452540407 1.9175027293778357 -0.26399264507071957 -1.1835407487260845 -0.27692246575851015
Ni -0.004082700440392024 7.608166186113511 6.110517884401509 0.9861851840586242 0.3598508271226254 -0.8823280429616418
Ni 2.890090841802463 4.146292775803503 2.4871296097430142 -0.19657446352706145 0.4880879397258691 -1.1002619460010856
Ni 2.487863045682784 7.5698490385377 9.052635269520879 -1.5270702129808669 1.3320600086171317 -1.0580773422132357
Ni 0.15914351443422461 4.042942449081558 2.9558583864649712 -0.8148463551699 1.4040719801790593 -0.9532691500568938
Ni 5.769556623032594 9.125662807452846 5.172188388103978 -0.27041603209856013 0.3352024324463259 -0.4266419166052459
Ni 8.286729219008084 5.63841195588084 6.673953784590683 -1.96839878506401 0.5507544655171547 -1.2404395187956572
Ni 6.539664359790967 5.732141164761697 10.055890114078597 -1.2557041582642114 -0.7224167391835687 2.446849973031063
Ni 7.693510614035276 1.1274090956548848 5.675720512842391 0.28614732679088783 -0.5982404269132601 0.9080820119972942
Ni 5.005035641658274 5.341672512670015 3.8415766357623045 -0.2627268909844185 1.2714058852701846 1.1039715336421891
Ni 5.805977434338277 8.29314329756881 11.48813247642666 2.6329621035742203 -1.0704847147386534 -0.5680878145892796
Ni 7.03222841019054 7.018981943597738 4.803035857095772 0.8582622602616896 -0.6409641910340316 -0.24031458472748932
Ni 7.013209272893086 4.432834763679378 12.235199727502984 -0.5620272102174967 1.2334355766739984 0.055723775924865326
Ni 4.836791572280643 7.440991129829334 6.592430846083865 -0.5857512933073138 0.32342523730573974 0.003202823208013839
Ni 5.431134964943086 7.8951729622908875 9.044608375553944 -0.16296397456146772 -0.3131415959915446 -0.9333073622229862
Ni 4.6456706227030935 5.445766500674364 12.129703937981306 1.2014703366213115 -0.3444177803970068 2.322718397955761
Ni 1.0392480506260189 3.8410848897393155 0.5737430455632788 -0.24673771464501382 0.975289877302359 1.037489490759555
P 3.6961546015650164 8.193092967787527 11.634009073582817 -0.9626282226742905 0.4474781366243068 -0.5104660503107531
P 1.1130192498403884 9.112899720693607 10.210132900661787 -0.04192389392729554 -0.31772535870748503 -1.631814898889125
P 6.387948162414742 1.2710193850529183 3.694517617167127 1.0929654123396724 -1.1084935898822588 0.40706142337015705
P 6.862060117244692 2.2740139481617954 8.23108011566927 -0.0038252872833611532 -0.6659036345881887 -0.618788940488573
P 0.5696296690949877 1.4038094027919898 -0.03559069939920068 0.16245489613553313 -0.4230925086910907 0.3803535750616675
P 7.192877838721631 4.7582237577947755 4.429380457022616 0.28585036437575934 0.3705625571131747 0.3578672210336934
P 7.840188506223221 4.218511582090857 0.640547068138136 -0.22255134720679734 -0.4245996893642364 0.3930028883945618
P 4.08952353265807 4.516691869036337 10.394457715694777 0.2971300510546367 -2.7050710057253284 -1.2442974590891667
Ni 8.38747673124162 9.454630671489808 11.111279332839173 1.2022588939608778 -1.334408197134334 1.2640959818723327
Ni 2.3122009550131852 4.445886019185549 8.94956195662663 0.7681808327925609 -0.1285631284840947 -1.3135277541408992
Ni 1.8573870104615897 8.124601763678218 4.467992280381579 0.20256153434843183 -0.14372209561272023 0.09981202449333133
Ni 2.2459035516869648 0.059041128363173725 13.010850529545067 0.11196228670262008 -1.2775983872341417 -0.36786701255888254
Ni 1.9877043544366713 1.5319701290481027 8.947480634612504 0.6254115880114133 -1.0016105174747587 0.5371474162566814
Ni 5.956513069428689 5.078388531401292 6.2963253741162895 -1.2588614729462708 -0.14873137590185354 0.23130183970591775
Ni 2.8222038624851065 5.620266620590208 0.058035326478723774 0.5605166871102412 -0.8035743818005064 1.6282984010954344
Ni 5.905432835093638 2.079304832896651 1.4162025180632343 0.2610171073821634 -1.3835939148303655 -0.571205791392971
Ni 3.5040575965543126 0.4510268494709582 5.713107154238595 -0.41163901543851045 -0.9479027435386579 0.6716011991935982
Ni 5.684305152771129 0.5982457552418521 7.684827438986618 -1.4910901953418318 0.6370172905711416 -1.913115439110673
Ni 4.239529309084769 0.3341846479330176 10.035550048428274 0.23013455887069398 -1.2532184157278803 -0.6132237876959697
Ni 0.03413684159210298 8.434290208968882 13.38528212608173 -0.5892104555005078 0.5779382250207982 1.150022819474297
Ni 1.9773767583773008 7.536746815704741 1.7928102534275294 -0.21720756639638078 1.1627914319938748 -1.4032389427548027
Ni 2.512757107111222 2.4469616751506242 13.173365618318385 0.3965924055180331 -1.1502457341183803 -0.5150860655812677
Ni 8.789732414659388 1.3941603976528119 3.636273135952728 -0.39255705910639493 -0.6867210855541721 0.32925521372395555
Ni 4.690504102265959 0.6270170806814178 12.709942864846374 0.8124536865680072 2.2147840014656115 -0.3904832072965017
Ni 0.8474169045237739 5.829941919163711 4.612996934684118 0.2858827602755915 -0.3871011781981462 0.2068593903928373
Ni 5.439082844898768 7.792882352896366 3.2149034984239977 0.8849559675027922 1.2799540319505116 -0.157395993555387
Ni 5.173660837443135 2.244434820654219 5.839554670815372 0.19615563082208798 0.5524588498027712 -0.3453693456769988
Ni 8.250661646811542 2.3508248628679866 10.29064910770755 0.7439433004014349 0.5170917831573869 -0.2893622341837597
Ni 2.230983847208756 2.3761372337677757 6.497234765323467 2.011444708410891 1.1626590201810687 0.8789776384321701
Ni 7.754063233954932 3.33785859570329 6.391412694414137 -1.0579590714678166 0.08516213579064043 -0.25978940562264935
Ni 8.312218209462443 7.475022929265298 9.330074843300142 -0.9903701686742493 1.101633886647948 -0.6197109380822101
Ni 3.9814137737287463 6.571260668527061 10.284418155737617 0.11001724716110729 0.9956062202622079 0.7660331903219387
P 9.096436919054412 7.820992749371197 3.779862974665495 -1.3183987090799552 0.36873758808929397 0.10030927584472402
P 6.0047952781886975 9.078821442427493 0.9658245130611727 0.14368558594782996 -0.012896139236377788 0.13780778701081428
P 3.3676701173616173 8.673470268921722 3.08879620688392 1.0773814418584864 1.0893743525543045 -0.6143357898132259
P 6.499525242073269 6.325322586670385 8.167216343889713 0.9524795642760627 -0.3104784473370847 -3.827351622089351
P 8.963042676523388 -0.1256601651940332 7.458966352601616 0.3266404018089278 1.4164366723919992 0.1869037732065168
P 3.739733152713828 3.7057850151721343 0.5637463787745776 1.28773239034435 0.3543676925208671 0.3356639454637767
P 6.56330349280535 1.4036978535996292 11.56090716952261 -0.4699603768872229 0.11228933102473564 0.1675037714133502
P 0.6083855768274158 6.128336008727882 2.3470898240771176 -1.2259323263184176 -1.8258079748422555 0.5713124921741645
