# total energy = -340862.1859483497 ev
CRYSTAL
PRIMVEC
9.31249257361264 0.00000000000000 0.00000000000000
0.00000000000000 9.31249257361264 0.00000000000000
0.00000000000000 0.00000000000000 13.62977420265914
PRIMCOORD
 96 1
Ni 4.46911185354408 7.352343434510997 6.287674071032529 0.024554549410912552 0.550157455363104 -1.3716372566891215
Ni 8.225650383598122 1.9837379021475212 4.109949494024763 -0.9373735618725599 -0.897754147708725 -0.9852477598460194
Ni 2.648025950508884 3.7508672219434622 2.0977311951701982 0.4710626088124662 -0.1997816576104495 -0.5665163563371018
Ni 1.3237708504418393 4.622982171953158 8.407812986359838 -0.10884739522272223 1.3490516580791216 0.5112389239210358
Ni 4.533163178970312 8.589843351723902 1.309573023930523 2.518442597667385 0.29933348646385866 1.6245229932134022
Ni 4.7251215929003685 7.614238669312093 9.862300504380974 0.3797123419332428 -1.6580283240596994 1.4167791433330823
Ni 2.2992358454617605 7.956901154101808 2.299111058058342 0.6779474531266002 0.2184828335643786 0.04937340822680529
Ni 1.7180897327510816 8.446626525069345 9.65831686850807 -1.9944111499673713 -1.3099107262136023 -0.02161834960072406
Ni 0.8151876815696608 4.894450649344857 0.9825005833245908 0.40801375998109735 1.6917691679555704 -1.9363774949624069
Ni 2.185912120670858 2.2891969782315367 5.698213764756783 -3.1994522346590766 -1.2354865456657562 2.3210978316332027
Ni 6.94701718572112 3.0564811968770127 8.720057144692406 0.15642231678820803 0.4143065349683445 0.2355279619721234
Ni 8.775376145627192 5.9520983932578435 4.930774958730953 0.7131116597325591 0.20981847302116122 -0.0025875582215181244
Ni 0.13711807512480256 0.5185000424468216 1.6505108350550821 0.7994999546208167 -1.4886533037655652 -0.7110120968910529
Ni 9.107543451039854 2.7813715348034793 1.5146220089788784 -1.998964573666009 1.298667806309931 0.5195019352607763
Ni 4.166446525297789 7.099006380586131 13.15673917333618 -0.09542135162480339 0.4484893514976405 0.06360395000389046
Ni 5.044335220838781 2.2817004215336425 10.591220977718814 -0.15180024463516437 0.9495719037109646 0.64475579686598
Ni 9.178970270757679 0.4264823699156864 8.096863264525414 -0.13090514635371003 -0.07387653557449213 -1.9064390555317616
Ni 4.569789213122881 0.592540878891478 5.864973504439843 0.10298425157372586 -0.9038312071407402 1.3058530112044606
Ni 3.359584212284547 0.7917788684373663 9.782430047448264 0.10134105954334806 0.17702405219895964 1.4638529568924337
Ni 7.006822014434012 4.0022765898602986 0.3113846152478292 -2.9029420765766263 -1.1895653576536094 1.7784107165052148
Ni 2.4522214770555593 4.460991359829093 4.327780806679987 -0.6354499460840217 -0.2507815456970842 1.1859372739827188
Ni 2.667218998154052 2.691319729500823 8.33290329433765 1.0584069576385127 0.2907902248795379 -0.7623112613856613
Ni 4.803830781981863 5.005092376211544 0.4286074807709156 -0.24847860859552048 -0.48111330818024883 0.988072373779008
Ni 8.194667720077756 4.8143445863445 7.381395618275495 0.5464586663552783 -0.8046686433059496 -0.3466659530012352
P 2.8618594100083246 6.154514736593783 1.0417485249684957 -1.0479759921131757 -0.2895057017401595 -1.500159761743268
P 1.5733177198001929 0.869054864878108 12.764242745866412 -2.1001166571270025 -2.1606949329306917 -2.59434053454728
P 2.905050751579547 1.1667156594977548 2.29875718333223 -0.9024430685439618 -1.6125051428169197 1.1980957637221237
P 0.9813225529863503 0.31140696523053096 5.864673642171928 -0.02009368542608152 0.36262761853681424 0.9478394944008903
P 1.0103495930203088 6.849524698677324 8.10335034700461 0.3057069940903703 -0.2935274213050429 -0.3057077654213187
P 8.755056286354142 3.717593685196162 13.156371329870879 3.4439201794333076 -0.33592722642749245 -1.629229397550136
P 4.018713139638911 2.892152949062052 6.494505467201353 2.255168061709613 0.270319872840328 -0.00969691557278975
P 4.262430388509213 8.659919859986827 8.1479339062483 -1.0279206161241974 0.8059179423320185 -1.648548666704038
Ni 8.566357244901429 5.83607404555714 9.548366128606581 0.9608263935788612 -1.3400445694845051 -0.2623106293826063
Ni 0.5459970399149863 4.516503129364681 11.39822577187178 -0.8329453787634559 0.10751376401296321 1.2463916226140341
Ni 7.872483406938563 6.171295848605715 13.908367229099047 0.8969969578277263 1.3523025609162518 -1.2440220939405928
Ni 2.3882074016004964 6.138040936844 10.210868040850357 0.5117521161120283 -0.2683781757329249 -0.3353669830486482
Ni 2.387732464468083 4.051856301487118 12.955564185289468 0.8611079572406007 0.4891834867828931 0.03693801067692993
Ni 3.8249015396431636 5.616746215310175 2.8446154671046098 1.6287036069536533 1.3725929357341717 0.7824121459005945
Ni 5.157035008612593 1.5752640307938077 8.331908720107418 -0.6689385647597705 -0.48729501151092847 -1.5798914705469567
Ni 1.0403730697830558 7.496407698009663 5.593618639460211 1.6103793547231684 0.38650879602978594 -0.25374217098730495
Ni 8.12308258798246 5.190848669941852 2.3197605795762435 -1.4633641901814733 0.7733343519690424 1.3383296436759275
Ni 1.3488400810390213 6.394115863649837 12.37550856548478 0.9568398981272876 0.07933935846127627 0.7055988962952816
Ni 7.2607457554048 4.402676529962988 4.961987640823291 -1.4329290136200676 -1.2116521622503196 -0.38592824093596756
Ni 1.127146877622782 6.381786123192679 3.3775945733450783 -0.49752645943094953 -0.43265932644391936 -0.31115901834387705
Ni 4.349427696175957 5.392939076030057 11.781931206145508 -1.7986332141996764 -2.476637231595825 -2.475762285190039
Ni 1.2309997972437976 2.0458242915945544 3.293090219998864 0.843485101952515 1.270784706746418 0.48045073489558554
Ni 8.761081469190833 0.482452314096661 10.277108733332087 2.788296072394256 0.23906142904667865 1.5536489919106597
Ni 6.4340757702220905 7.316117837548502 1.9335742972226175 1.2137257569498967 -1.8227211083868158 0.1239423418826317
Ni 6.382186560382753 8.539313765832254 7.637212589030983 -0.01987411321610771 0.3828269763028246 0.05989641924531619
Ni 7.8646609129929335 8.907632168265074 3.1915887048079328 -2.079727551947689 0.448494236593647 0.7448526995895817
Ni 4.985312641520454 0.933288715163072 2.905227688942603 2.107163536671455 1.1653856750836122 0.5273468852264918
Ni 2.927335546831797 8.41668686074173 11.69671817209779 0.025655752894891297 0.4165094561569343 -1.1995474085669857
Ni 8.10955153595508 1.2838388813479624 13.578417228220259 0.08807828099617089 1.3234020758318177 -0.3231025638589984
Ni 2.7801702232332572 8.8846396235606 0.29218691135626496 -2.9248170222728467 0.9754076338271459 -0.6956469272888923
Ni 5.249396312127767 8.161738745563776 3.5994051141705024 -1.2344935856248676 -1.1198295837203682 1.9878946890050924
Ni 5.792500891781429 0.9726805596749889 13.146271931437504 -0.43663219504873835 -0.25829790867878744 -0.13616665186296548
P 5.1371342115152006 3.091030545136874 12.938404054820886 -0.036148424896099034 1.2590597050000056 -1.137326454953551
P 7.006635764578164 0.9479745162967109 9.352192880438675 -0.8049224111879686 0.024610342349512454 -1.0923095239232286
P 5.008435561124021 -0.047981687863640744 11.077258601540555 -0.003695703684032345 1.5751904655268614 1.707456239673524
P 3.1331602625297608 7.156511023579295 4.358665689026033 -0.025432324030175556 -0.9465135765006151 1.0340907494906513
P 1.2103074382590508 1.8304635832771574 9.983973810209555 1.0965019647380212 -1.473896714281681 -0.06150104472827473
P 0.5391570139589572 4.25806282938957 2.960196540148393 1.5927865813420699 -0.8986972283482846 2.5557091953283275
P 6.435481956633746 5.724948069065248 6.594261821242986 -0.4617652426709402 0.4568963446144131 0.32662703207248905
P 7.027067373764722 2.097527251578044 2.1918311410897173 -0.392297377687105 -0.5822486794706939 0.1167612507531602
Ni 2.3684556043877834 5.710355392859533 6.539947638280503 0.05831081992575119 0.3235226821155525 -0.7860412580127495
Ni 3.987646663683414 6.165307915740192 8.15548447540439 -1.5511416521077739 -0.12013942319677375 0.022941953508154037
Ni 4.2033798717125075 1.9853117134294394 0.9721385725944703 0.8830978312481308 0.6437399540069558 -0.500786361129144
Ni 3.7131609386269724 2.279633048133726 4.320161325077233 2.558879108415877 1.6767755227602155 -2.5376993890144686
Ni 0.2914726431590867 3.573380421812818 5.0753737593159025 -0.4159034471418192 1.1605738555172658 0.5765909669642844
Ni 7.522873802525707 7.784722474862841 9.731781261648875 -1.6907083307912238 1.616348684932726 -0.4105167289086092
Ni 2.5206589865870197 3.5390825108583526 10.534166128127525 0.731560867576682 -0.1259313472882025 0.5742589763969982
Ni 5.968078630889628 5.360904100824148 8.84234321254673 2.8603751497486933 0.45177547844808 0.3967312450887426
Ni 6.9612187372295535 7.417456384115566 5.161132505441255 -0.9578631971854793 -0.27062043479988235 -0.7328847285944282
Ni 1.811056348297764 2.1081248683758127 0.6557233487401783 -0.2875267236369177 0.635810414747234 0.702472691961474
Ni 9.56560634651318 8.26292829224616 13.160596407850798 -0.7026220730551447 1.4445712258446863 0.19373956518142763
Ni 2.945895344967081 9.324692157973393 4.211464046705603 0.3443784425186392 0.026895538839263357 0.5512802561136376
Ni 8.459058702947221 7.311321903760407 6.891759647238765 0.29304353969008884 -0.01884207240716755 2.127630803386871
Ni 7.38497440925562 9.22728348336473 11.909628763561503 -1.164271101863195 -2.512963576830685 0.2893756039201984
Ni 8.07365187624032 2.1675106349130453 6.618141846510576 0.06077445097489533 -0.1972123542213765 0.0711028294840969
Ni 6.097047343571788 2.2275669009313317 5.273836949461461 -0.6209388969520403 0.6138367386896202 -0.14185007540098796
Ni 6.340010280525904 6.320109483428512 11.991775193732678 1.1299373615783312 0.9052915937363505 0.025050000990092344
Ni 3.549894314990347 1.580963276382766 12.446124267080387 -0.32471695953396984 0.12741178848847087 -2.012734630866908
Ni 0.6925514639863434 9.215270367662514 3.749837260240621 -0.3586310957829114 -1.3315594148316294 1.3062769861157566
Ni 7.31021371711811 2.35263367913347 11.228194553470745 0.776043009149457 0.8645354948649112 0.614893976309541
Ni 5.207005844936693 3.4860944268695095 2.463445824618258 0.8393649091365544 0.0760606877100045 0.6546044075252855
Ni 4.738624707449372 5.043227034196485 5.332731016379254 -0.17951236583845212 -0.580193082493246 -0.12748686470078044
Ni 2.278357236621165 0.4210233866407725 7.852821940905936 -0.06105110167504969 -0.5486978400984421 -2.992179153767589
Ni 9.113037821787378 3.3734039515884913 9.648326426240367 -1.0189616071586967 -0.9883554522370656 -0.9610253969635448
P 4.207980243151961 4.50666913697589 9.530388361270822 -1.4015353298001345 -0.5552371838788567 1.0989031179803461
P 0.6990860401787812 2.9381380384709987 7.22139488586117 -0.8574356505953363 0.5010655829324597 0.27328126946149706
P 6.067265991621643 5.340155866882647 3.247430136588372 -0.03170195908897121 0.30855680483433956 0.09584686919799622
P 9.130824683020892 7.36966467110489 11.02583315384228 1.447827785108771 0.8062437011025534 0.9966225773418642
P 7.348758124785917 4.63679259876431 10.94175158766884 -0.0627058636696533 -0.45617335040545953 -0.930697692514281
P 6.831365337732114 0.14167188410029366 5.714433333453332 0.0038021473549095805 1.7913737044237856 -0.5550939734327731
P 8.786690824369977 7.691187797255821 1.6939219514562054 0.4141098455765061 -0.6561784368806247 -0.18030786515655398
P 6.158239733710749 8.09119661266123 13.616171936499269 0.7574073963261406 -0.542535420041472 -1.4932311529442348
