# total energy = -340857.7164780056 ev
CRYSTAL
PRIMVEC
9.36825682144345 0.00000000000000 0.00000000000000

0.00000000000000 9.36825682144345 0.00000000000000

0.00000000000000 0.00000000000000 13.71139081609541

PRIMCOORD
 96 1
Ni 4.17842996816382 2.2053720020973873 9.84896095845532 -0.6291309458445293 -0.31043550991429114 1.3000538880241803
Ni 9.418939227594246 8.398239527308716 3.3755253792765805 0.801448336596439 2.513127098991743 3.182424846863145
Ni 7.461882244411147 9.347834157287169 2.955161384512947 -1.6400038624578206 0.2897923797426429 -1.0740528917058858
Ni 7.369614281637178 1.9252330142986276 11.381386705830666 1.207135762437205 1.5922209386465869 -2.593670247953133
Ni 6.406341996500842 7.354465810136974 6.830123531402554 0.4732459896170301 0.16600944625601086 -1.176742237747012
Ni 2.020152193791556 5.285795413562761 0.26209291442161503 0.2784553574632688 -0.3162140642692812 0.44177928646731657
Ni 5.282825676107249 3.124697793846304 12.410947840372254 -0.7724722610790632 0.05713505445009515 -0.11095210027055084
Ni 6.528354175114729 4.448994597352061 1.4683112704099204 -0.13693592592882226 0.35392854810091945 0.37885950701464427
Ni 2.7258723586535547 1.1909771387442227 3.186184474735165 -0.2140602790166507 -0.41514625726082055 0.7817768263094408
Ni 5.277804290378053 7.707293103668622 4.42569386864748 2.4012015790643293 -0.27445832048873375 -0.843385086039541
Ni 7.5034585687883295 7.102506539266238 1.9260799047275818 0.2578495082874592 1.0217365988006726 -2.2791045179205525
Ni 7.67524429661717 3.7888510025880775 9.415324017234365 0.7473471838766613 -1.590576203954312 2.2588851055498838
Ni 9.204724664005093 6.086528440487263 7.277814731711082 -1.179203554803311 -0.44857188390911784 -1.3893069060547427
Ni 3.43396269252579 4.297715984003087 6.5909837833523985 -1.7676331662737361 -0.625121310464504 -1.142899578165954
Ni 8.650564160200792 5.148334979226033 2.293490763864899 0.9435390672533235 -0.9776668621749678 0.287583287906466
Ni 9.352958593842896 3.393800974949182 4.145323484901872 -0.2942547863893707 -1.623086774987508 -0.4292610993956479
Ni 3.9445420649640126 7.644094842233636 7.202223203147079 0.7924199078455837 1.4375778252459885 -2.2167910045933112
Ni 4.208005555378503 9.210392459464355 13.33135285532267 -0.1645886546490843 -1.0395682276654548 2.2011116461848412
Ni 9.38952290074784 0.5956487665660839 8.026730992578207 0.3822333085828836 0.25097360710323224 0.4258222489174279
Ni 4.679256985109332 4.658890394483827 10.133458059390687 1.0622335304734545 0.5053986630901748 2.7582131369659466
Ni 6.280179680054803 0.8642338830592148 12.844091074451551 -0.8469650900813155 -1.232741378820451 1.8931058287579654
Ni 1.3678404618440048 0.7526176591910156 0.6840307763541004 2.3854749123576915 -1.3596973107184263 0.6181726470608128
Ni 0.5043907018921289 7.109373471616052 9.169068141199327 0.19728100267578283 4.262914752443627 0.14982178075255487
Ni 0.9505970334728999 1.5212456695223209 5.831825207153689 -2.36787571121869 0.945865658503971 0.22558062095142442
P 7.0694178556925085 2.6759114442994503 13.824784570225969 -0.28569429841386923 0.16693890004881573 0.08524903907749189
P 0.17479481196357602 2.221429194522464 9.725352428855883 -1.688751721285485 0.0516316081333627 -1.1760786360210842
P 6.370433467582919 8.899122753795973 0.9177107042494518 0.7112604654564332 -0.214252854643431 -0.06264312875251792
P 0.32621957012108627 8.9029262661207 12.6913322765033 0.1545875775723144 -1.2229323631498294 -0.801967956545335
P 1.4660947408137865 5.080761741791914 2.456326995822285 0.7279623515921464 -1.8843566218104255 0.4977046368800267
P 6.717836540336202 8.95209087863342 5.14854482818188 2.0741240897179827 1.5796374455546214 0.7193237020805419
P 1.3368783725996178 7.377108887203142 5.453170566016034 -0.6125373031519064 -1.2177842432899866 0.019893396489817354
P 3.436716960071281 1.5309699202441587 12.29686870174994 0.6707144257132707 0.9154749620272556 0.087692615521978
Ni 8.553771329316374 6.920434465298111 11.287601085429591 0.5051006722337816 -1.1353384779892446 0.4342120156430199
Ni 8.340090756373796 2.9475065817530113 7.42493758627373 1.4685351928594517 0.1170301881438307 -1.0142955691415951
Ni 6.956755197522162 3.369940024478546 3.96809011565227 -1.276195336239028 2.0764344830187142 -0.1605466233692267
Ni 6.170646019708247 3.0434937425390896 6.380034057312919 -0.2403300113464571 0.009551648244177098 -0.872329279877717
Ni 2.006839900655013 2.1543712112210054 7.921371827531892 0.10706664917321561 0.4362881814457583 0.48691783067716793
Ni 3.351306561390169 1.8365624621963217 1.1953539883947455 0.6978390498442046 0.9581850993012722 -2.371253626551987
Ni 4.959377236394177 6.72800109913504 0.4272918207836705 1.0587509712414929 0.04329454902257705 0.22779408366297543
Ni 9.205080657769477 6.35118169953535 13.762945642875508 -0.7038335768647427 -0.3413550823112831 -0.4071400991268923
Ni 7.9272972500574825 1.4988274306231324 4.719254758189185 0.8318513743683287 -0.8811697609874825 0.7546303478016358
Ni 1.1777491599202972 7.066663588147017 2.267671847690155 0.8614486284094713 -0.8487144686722545 -2.154691149938773
Ni 2.3303913911946164 8.826884124397044 11.12680713348893 -0.90481876786499 1.0634195803617557 0.8056973416807801
Ni 6.913342694781318 5.587387709794092 8.496757054299001 0.5414781824215513 1.341945900272276 -1.741291185945098
Ni 7.06551129254125 0.9418283449607225 6.923183111889428 -0.7720354306519607 -1.077578645470957 1.2120082600381576
Ni 2.6615592746406302 4.125349424242883 11.037765598411108 -0.5137748029690119 -0.021250938958976305 0.3509717794654407
Ni 2.335412776923812 4.266725789987827 4.311971660615245 -1.1153898027814595 0.4638167258833302 0.2583891828410131
Ni 1.645393810722507 2.9701215540483066 13.01603137852019 0.32462208582731833 -0.16902226494040568 0.920536692820879
Ni 6.8286817566568025 5.179728008290463 12.833985535671545 0.026318069069238545 -0.4433913681494428 -0.61758309310593
Ni 2.1662688975569724 9.06673023902179 6.580878244572393 0.05001052759017194 0.9472329711651429 -0.2717123823124804
Ni 6.7521805703422295 7.556248696743585 13.03530937768724 1.3893035636206332 0.6991318005136992 -0.4790176019934847
Ni 2.902454634044613 6.917371045273024 10.249059539768586 1.633801847412167 -0.669227556755099 -3.2544087934006143
Ni 4.096364037216519 4.489324943553902 1.6821960713541708 -0.927818571194273 -0.6448650687503346 1.6042927822094564
Ni 3.3488146050394865 6.724637894887313 12.411112721694705 -0.38874359889757565 0.3382746436137465 1.1512194108855591
Ni 8.23456671000503 2.3442095702068615 2.234449198041934 -1.4236694426950127 -0.5810189208286509 -0.7480110427129053
Ni 5.4726546668361475 1.4914920854254454 4.614363069165046 -0.5827824404869769 -0.25842157874084526 -0.17823298490539627
P 4.03140454347353 3.218773830213062 3.7217105786253937 1.435348678805154 -2.160682591635518 -0.9377088337247915
P 3.5856722456948065 8.64041833791587 3.6556896613691245 -2.2128104226790084 -0.9993183790064726 0.3636974545622252
P 6.749772928304163 5.606405271417724 10.577446924549628 1.2186442772974369 -0.9975016375127079 1.2801877452278727
P 2.3619343123703653 8.314852672130414 8.569578389280688 -1.0766515056709973 -0.8180283524423074 1.1524527690720283
P 2.9083191628999794 4.040435543180516 8.737515637151406 -1.1646824783690006 0.22231711970880422 1.0361550882188477
P 4.588722149872493 0.7005357714617435 6.528130273773446 0.07060506391207196 0.6027766242207168 -2.409875195578927
P 0.8788033962794479 3.862157613280159 6.3146848440804995 0.12669933580247858 -0.050219301166868346 -0.049318900839786024
P 0.6587964394135011 1.4745542768463682 3.7300464536661364 -0.4168490988845402 -2.086694984404458 -1.2645438680430288
Ni 4.950777176507234 3.722017857453598 8.188675366473243 1.4647417872552904 -0.023762649637236496 -1.0168779851567904
Ni 4.724917869519966 5.104866266943445 4.41748071777288 1.7701063104045773 -0.8134726147508249 -1.1622275890706049
Ni 1.7893745519016238 1.7224477241975693 10.984455532194715 -0.23509858774418865 0.47382423071800334 -0.6819010384577094
Ni 7.28385725744864 5.147398153530288 6.044021848194205 0.05305317107123767 -0.35707943502507533 -0.7511704142774934
Ni 0.6415344891436956 5.066587569015286 9.53091144522683 0.07363665164954415 -4.01979997926318 -0.3752766747593924
Ni 3.5413791267999617 6.878764458351354 2.1518108665945332 0.8180239815669332 -0.895519087730619 3.83672714976698
Ni 3.437335265030473 6.798337972371608 4.982129922066748 -4.311255348530543 0.1868091566101815 0.8707449661097326
Ni 2.1799840257426855 6.059257444484113 7.488942454632754 -0.036924126719858986 0.1707356480870866 0.5242677320805358
Ni 9.109009182670784 8.52692190487631 1.1791000625735621 -0.6562704823737987 1.112873207007193 -1.9461973092663063
Ni 5.401287285334259 2.3467389995853747 2.177834947596646 1.13795277568364 0.7979125555290387 0.13088380619747136
Ni 7.430245640665823 8.928117509079295 11.178073982862903 -3.8157860287389376 -0.13282113242950028 0.2572134173653571
Ni 4.036622662598832 0.34844857022973413 8.386353082881097 -0.6747574854343927 0.323407753804243 2.729553307137409
Ni 9.059329316025401 1.459012338553951 13.245163017662698 -2.70298815505437 1.606641227836975 -0.7905553438330192
Ni 4.611871112814363 9.149854783005283 11.13314194884356 0.7887422018836803 1.714566368355744 -1.5146738961990431
Ni 5.020842370292036 9.462220574737687 2.4122174947638064 -0.4307495110157162 -0.10606880403632056 -0.4683202701806386
Ni 6.042619420127674 8.389255368886516 8.864660683752282 -0.3616891658829448 0.871219591753306 1.6196957470280882
Ni 9.03747317254366 8.55919555009474 6.021658882011066 -0.6480619784210775 0.724114952821598 0.49075340237317416
Ni 9.398235379718274 5.333086374683992 4.7956547673286165 0.7740457762137701 3.9786651568960836 1.1907997442813427
Ni 7.84843526298963 7.18736421078686 4.5092652784878435 -0.9875157299445895 -1.3550718961312727 -0.31240677470804906
Ni -0.045979405147186285 9.183795977962141 10.44308925691721 2.7485419324247697 1.1692760112769538 -0.7345207215359543
Ni 1.0399795731039725 2.8574963689057893 1.8674364898253084 1.6060185066513115 0.9737245896977683 -0.28947150606811434
Ni 5.38995169441574 7.114404225602205 11.001348373140395 -0.26794545907088047 -0.7252233553944284 0.17650880312543793
Ni 4.729901782221331 6.385553834312251 8.724530296182678 0.28018288167733685 -0.6980038575568431 -0.04338325208164141
Ni 3.066099346577427 2.007645570753354 5.402123870680561 1.899283932544219 0.15651950448770463 0.7693972216981653
P 4.202375232947073 4.863137132670248 13.380562435468788 0.2157356098365446 -0.6359865353137821 -1.723102173740897
P 6.182609283842916 2.154155741310984 8.984909756406775 0.9703914115594772 -0.6699366670069816 0.04832902612269096
P 5.163820707976706 5.461965485647692 6.505589310708114 1.1990825531154254 0.7165219709656886 1.0512783170135316
P 6.3384596065871275 6.181906664571106 3.1972221550824376 -1.494937337002064 -2.97879759025436 1.3600130421866319
P 9.153461561933904 3.768606199303019 13.924740124659225 0.13584757796064992 1.2591028995331155 0.24119904421497168
P 1.455405559625331 5.948281072566108 11.253911896584889 -2.054855471296358 -0.30449960404583043 2.432199055887108
P 8.002055940577968 8.232187172737836 8.187730109346235 1.7638999244835492 -0.3085976853746041 0.0336264298051937
P 2.720682344299125 8.035912821222208 0.7909731768262255 -1.3158975399246564 1.2950726327595052 -2.0765069881278624
