# total energy = -340893.3307132628 ev
CRYSTAL
PRIMVEC
9.07612627903258 0.00000000000000 0.00000000000000

0.00000000000000 9.07612627903258 0.00000000000000

0.00000000000000 0.00000000000000 13.28382823826685

PRIMCOORD
 96 1
Ni 6.292877690546215 1.8729221881029408 11.32142194847933 0.06705822710107806 0.11121718100647943 0.781571395166854
Ni 4.468775985634083 0.27324404217249476 5.896757420519018 -0.06947737806553195 -0.5276636451359622 1.1529387075695112
Ni 2.690971600810502 1.7775865577931702 4.668827422750686 0.4681644613290647 0.14299113098396662 0.3175476954790402
Ni 3.233070470492715 4.4125766117881104 4.823078911498176 0.3980183393312823 -0.079436803271089 0.3175047580562467
Ni 5.404751506930262 4.674050733417411 2.829070307640409 -0.9903580844893911 0.5407150790032818 0.1809107888478755
Ni 7.555239788534098 6.344693295405172 2.486533671869002 0.07931724697408919 -0.5642974943089121 0.46099879681856093
Ni 4.853385912329326 4.5533110256859874 11.365417562946538 0.4661872829980358 0.270375922889244 0.5899509332109583
Ni 5.623440769336385 7.972859586462835 12.504824470781196 0.19968061325621095 -0.20989406345410302 -0.5233871292477954
Ni 1.8850388166695382 6.6588634061413385 0.4892004829595898 0.437637239274485 -0.814566876256268 -0.42773977765511495
Ni 2.8632364773603345 1.4769126468162022 0.3924816510067111 -0.2631009864943856 -0.2728338975114334 -0.21840261514574644
Ni 0.6408344168916446 9.238407404770475 4.8169153141501795 0.48147763349820305 -0.543579030814638 0.12253569134309221
Ni 8.485914852090282 2.2739599033416606 1.4794330870805799 0.8609621756913559 0.9480518675220123 0.5558851018755007
Ni 6.80678611204277 0.8329324445603756 5.1224168166886255 0.024088408407771416 -0.995766399989156 -1.4486022013809503
Ni 1.015518691901171 7.604913427594015 2.616289603434177 -0.936082353864962 -0.18072001299330812 0.5778222682682242
Ni 7.652318035087155 3.695925681736752 3.9605737247216624 -1.031556670214888 0.5239188333815493 -0.903242681627122
Ni 7.545519257302018 3.5920675688621606 12.702567848988073 0.6874787896558031 0.24656750761573662 -0.1653245043738443
Ni 8.267997060416864 -0.2606908519324488 6.92171165328748 -1.3710425605279162 1.0413649145545614 -0.01101512016358103
Ni 6.969775187547612 0.8418052655991067 0.4598782418284231 -0.6010311022845197 -0.6887733400975106 -0.9615023365999633
Ni 1.8295927613037362 6.297688037467785 9.46621545123717 0.45185852508018953 0.3445314231567357 -1.5528550352544546
Ni 9.491086760046944 4.829424938984143 1.288880723715138 -1.0514703784196795 -0.7079617401005033 1.4264449485576207
Ni 6.2034415423100695 2.1491631671688367 6.891517196422044 0.20288729311896672 0.4051032712025217 1.0879741297726682
Ni 3.232035792098264 4.449153400644581 0.41227123671952753 0.31540570943537294 -0.9637106571051919 0.7702310304533703
Ni 6.195436398942474 6.010637392017756 4.849660162496675 -0.3906156191093079 0.0728501511925068 -0.3247159310927053
Ni 5.364580572072014 2.86611360938701 9.190934726330333 -0.613546204032395 -0.28955095315579804 -0.4688763997944248
P 0.40695898001538544 5.44030269351855 12.570646353695565 -1.0261588962380843 1.034634280698947 -1.6321026053328733
P 4.168401586823929 6.180342800960263 12.902940580974533 -0.35809399233251876 -0.15237848573613758 -1.0504043990490104
P 2.543012590404002 8.523834907634287 1.3810270032546446 0.3665976589281557 1.0024219576324607 0.5504302494085166
P 6.442515784312131 7.862611880696196 6.16718967877396 -0.03491583804057858 0.18489419897565576 -1.940350363567226
P 4.668723047298615 0.9597640482422868 12.5257993985845 0.1902390082273369 1.2002608896942426 -0.04410393229774985
P 3.893267895162621 6.0545476908980564 8.06604689768518 0.5596800501415587 0.5188822993989064 1.997220594391709
P 4.749545951707269 0.9763915115636403 3.8665505022701163 0.04505832579121917 1.7662077466811192 -0.612496679721958
P 0.31914836599367963 5.680493299051467 3.636209308962272 -0.32993681317201246 -0.7848708918537322 -0.6996460211459564
Ni 1.4931407605818026 1.1064251725925893 2.580011419131894 -0.5085330949540984 -0.9640811530707333 -0.1055350430200376
Ni 1.8616405631529171 6.6219235722341825 4.846046956629737 -0.42746184140337995 -0.3665017567802398 -0.2059368785785679
Ni 6.157688789797544 5.448616425179226 9.125219941705918 -0.80108632527133 0.676133539846313 0.7080838675006644
Ni 8.789720026629405 2.088888612628929 10.241512678776115 -0.628778190490801 1.0454601676698576 -0.05959020085880704
Ni 2.1458413049550726 5.420680108529049 7.062759193541574 -0.2622314394052387 -1.3634017561532068 -0.7929043036811699
Ni 0.6459769500345917 0.02384842937946998 9.227557803430768 -0.08211435010325213 -0.044164867442672326 -0.2129565044295107
Ni 1.4311961988087465 0.8949287402531545 11.489568078929146 0.3816820640651039 0.5073437026316875 0.11060834377788693
Ni 4.287525744079807 7.120139371414898 1.8758356246346843 -0.5303599610212028 -1.0705063120052078 -1.61173741141296
Ni 5.7210000505815986 7.683113331511474 8.180832666585378 -1.0819150680627818 0.563321760659204 0.18288616740669147
Ni 5.31807450107932 3.1433166578372203 4.7932166408541175 -0.5510709683163091 -0.8720359170070142 -0.16219547182655938
Ni 0.8451643399305658 7.430179844699528 7.331158399512682 0.7008870926419091 0.1911054699926902 -0.23431800082442225
Ni 5.044465598630887 4.56918517052717 7.091518714844178 0.17949128279252957 -0.25832541948261317 -0.5937592512134547
Ni 8.086683285978719 7.371738667665578 9.342583182064416 0.14683338754819228 -0.7066749029682797 -0.5165755056426007
Ni 4.555988482934786 0.23431199854970727 10.344449564834594 -0.14124946570251157 -0.4552963471171449 -0.0970102933784781
Ni 8.396297181328794 7.262643629934861 4.836748465269078 -0.67332049587755 0.07472165718360681 0.11013397524462967
Ni 7.415431139515467 6.046406405636454 7.037413203328029 -0.9604623253712233 0.9654973166919696 0.37926779819665646
Ni 2.350825616697853 5.417830204881175 2.6945848066774403 0.2792099762411063 -0.50702077207463 -0.3055211033318093
Ni 2.3457429859882692 5.067382817455351 11.461446609303117 -0.19159680780681196 1.3128890921156358 -0.1937673330955695
Ni 0.7965898197615959 3.350996579081333 3.39640897685884 0.9580835407264016 0.7522343367656334 1.5486214567890813
Ni 3.7613373237438457 2.986898697749769 2.769345766352289 -0.6047594589787004 -0.7654215248798689 -0.841155425378074
Ni 1.1775366218954313 3.2815188325065723 8.081761302704063 -1.238015996955829 0.6003585016975274 -0.46218870336160406
Ni 3.609393893906082 2.6993307131025146 6.9065409082319995 -0.20217535465360664 -0.6381642596913912 0.14154771366922075
Ni 3.9986598733763548 6.754979583310081 5.9080090942523595 0.8854349640217396 0.6025143716982656 0.5453224958683061
Ni 0.6450620765068664 7.404721310520271 11.288437490399382 0.184168890773857 -0.9783716015514764 0.8925867445751724
P 0.12369217160611612 5.576689642934479 8.056827368623045 0.7037664710722331 -0.9875211292612283 1.0879409625418877
P 8.60025589080339 1.6123466029740843 7.946585108532167 -0.8477320501543271 0.330873723163985 0.8371151938704293
P 1.612165080448742 3.2951784025385793 10.238391398952855 0.3982314837833529 -0.16648818566464232 1.055528093428821
P 4.10152868848783 6.160248257404871 3.794498766286002 0.061064985632120636 0.5731469742797419 0.46373393636153687
P 6.726063045023054 3.873345798006305 10.452340200609664 1.9203615791501247 0.07213975538904349 0.8852490732631787
P 6.226885176458026 7.498259867829153 10.375135040131081 -0.019636543284004892 0.6435080405018079 -0.08252726927095465
P 2.3358953889884497 8.369468152083204 5.9611443678705545 0.34660604629757724 0.8838259676634069 0.33512632779275187
P 7.064384727756013 4.059188559451742 1.8124987850922527 1.1336001551418993 -0.5297819770305456 -1.9422352392947648
Ni 5.3995962672105415 2.8833128686631917 0.4563394601968751 -0.8166849510405354 0.06049857160568935 -0.22951029502313378
Ni 1.470641043565626 1.1265469445267822 7.029084949865325 0.5406875681994558 -0.5567970721668088 -0.48966659706689863
Ni 6.809699548574514 0.839939214038588 9.203607721437107 0.3194875928142304 -0.8664707642144108 -0.9522828748842245
Ni 2.686996257505506 1.6802541797046344 9.20482936803266 0.6450082791964182 -1.5092282997034394 0.09914019523728732
Ni 6.258769608034399 2.005932818547503 2.6166753388005293 0.44439101305855083 -0.008634278636230291 0.7974405009886266
Ni 4.034074918070635 6.748381239513889 10.47421911058917 0.7612547950966889 0.03208582479095119 -0.34403777134976876
Ni 8.215872867264826 7.148638407893636 0.13175630979444733 -0.08541950321708514 -0.540033736665541 -0.10101452944186474
Ni 7.753126569535995 3.75352277902786 8.18618576585772 -0.07250536625857835 -0.27546516448669334 -0.16427780827688482
Ni 3.1495973372140633 8.199626601246692 12.414786575373542 0.20533189800471732 0.4553192299352803 -0.0034059403577554248
Ni 0.0009729607358346711 4.869033154013831 10.229265353991272 -0.36926363579609306 -0.7235613943109732 0.11945833796934908
Ni 8.67841949021578 2.4240518034209324 5.751525786055786 0.21371626541367067 -0.16404152389636265 1.2494998292257125
Ni 3.238534298505518 2.849967180757813 11.624850463778365 1.2469739774800652 -1.4903790282074203 -0.30078256020555943
Ni 1.1492644885733696 3.37179906048556 12.647957704851471 -1.0914993693171073 -1.2527245068105974 0.4036644818734661
Ni 3.195930961807683 8.256597445825369 8.066020576919007 0.025896151040471528 0.31613513140222976 0.41883656162821414
Ni 5.686810282933379 8.103183683532333 3.5136126257965965 0.42448887481798503 -0.17242563419499982 0.5546609996604125
Ni 2.999151468210374 8.67794753164989 3.807264337880698 0.9268500366334167 -1.3129754811818548 -0.4741013956387899
Ni 3.3207367741067735 4.001609614413167 9.062493017848638 0.33576678959022815 2.0370043020475497 0.2150028454355781
Ni 7.259820954665789 5.899382236235468 11.479990950492088 -0.12961188146358324 -0.20616005033296753 0.03640244988843408
Ni 0.6216592849271118 -0.21413123179477828 0.3084094933944298 0.17282132697152172 1.2290217638770187 0.36488993220842963
Ni 4.817943639256244 0.38279197860393976 1.4777195144413486 -0.630925832961423 -0.09131967075160402 0.22498746745211576
Ni 6.211791578475814 5.539268774335166 0.3912182542303288 -0.8047820289553624 0.4584832294855588 0.19074243022631665
Ni 7.96699640889428 8.939212902375047 11.48263391846107 -0.6920481541940404 -0.09331921768013607 -0.5468463887120001
Ni -0.07456854579798577 4.873852577061668 5.735877636758653 1.1400325410308043 -0.2749537720679136 -0.11283157668145086
Ni 7.981899408224882 8.876823610414903 2.5993798725859167 -0.06385668944464487 0.10040029289663353 -0.06694484145166534
P 8.526521441009352 1.5273032998512217 3.7628439607041866 -0.7512071810526998 0.8988908324163293 -1.2855580084008504
P 1.7955663639283241 2.9341391757590327 1.595613856588032 0.7743805338453695 1.835076287518059 -1.2297828104127595
P 4.639715747748917 1.002376461066389 8.089093905115265 0.48316247739979373 0.09712393613820693 0.5616171192632715
P 8.641470580182357 1.5963816968702298 12.582575106448433 0.3336425441583738 0.27400400656013457 -0.3414759241598635
P 6.457255413369925 7.871542788943038 1.2042558300131896 0.27732278652072234 -0.275158688989868 1.9137792979469166
P 1.7336671827866033 3.240349523758941 5.8610247114053875 -0.7857545800102661 0.6945544655556619 0.47671672177445
P 6.842546049535201 4.201257163910884 5.95058338734614 0.7346510764662315 -0.8451640323168349 0.5763392559647945
P 2.3730893544310847 8.312887580934012 10.300811549742306 0.5263624098260353 0.4699140970303198 -0.32969461525421934
