# total energy = -340891.13303237635 ev
CRYSTAL
PRIMVEC
9.05544425449145 0.00000000000000 0.00000000000000
0.00000000000000 9.05544425449145 0.00000000000000
0.00000000000000 0.00000000000000 13.25355800478150
PRIMCOORD
 96 1
Ni 6.595216013152922 1.8858144143277595 11.647147042060286 -0.9407252519536121 1.4418813377173492 -1.9138302057895105
Ni 4.756335967328037 0.15167326100753595 6.216886789044235 0.2282149732504779 0.9403228743088708 -0.497839105575362
Ni 2.688307900093688 1.3515341372607823 4.964663710894205 -0.1277231490813026 0.07954530382449526 -0.5990917191699617
Ni 3.1868825597562975 4.285244581523469 4.687558055760791 0.2675829335251392 -0.5022408341874834 0.6335637848049024
Ni 4.543034973678562 4.703470282720708 2.1924435349502582 0.7731343201430942 -0.25616492149618464 1.4807263356090046
Ni 7.2996752574733295 5.915568686582441 2.7545530038526658 0.2225060957911587 0.5256622984352173 -1.2267895321123905
Ni 5.009336029377398 4.874500461750961 11.322130841513983 1.1897921289524347 -0.4585122829512814 0.2794022947575704
Ni 5.654808108652904 7.993910905027436 12.599932833557524 -0.7622760372723517 -0.2689127080801562 -0.33321856924707777
Ni 1.916965143181684 6.733510760553251 0.2464538812678185 -0.08921985079978181 -0.41281529513479875 0.3003344169245472
Ni 2.349534668362824 1.6435541093774562 0.39816879731975213 1.2094410135316138 0.08562853390409769 0.7938615253881166
Ni 0.40689915129884185 8.888036433023847 4.86759477982538 0.8866801492827504 0.26921378426034276 -0.33436630969827574
Ni 8.539238824304237 2.447424022697395 1.4716355912481995 0.8052749094313809 0.2143958079791985 0.6106346868125547
Ni 7.042011641540316 0.48380975751251554 4.811492679377238 -1.8018830885955417 -0.09644259380046616 -0.35702261364521093
Ni 0.8359968190838786 7.589657754592291 2.722439681255377 1.0937565407824001 -1.689554676802755 -0.5391899006080069
Ni 7.838437979535276 3.757873608559847 3.8485285683358716 -0.8678157082780795 0.3843781228400283 -0.18300572370369128
Ni 7.548373983416407 3.7602370795571947 12.857807441345857 -0.1952176923888509 0.8471116429615089 0.19144408427903162
Ni 7.92943614065536 8.794403137573388 6.856410346870861 0.15563890165496422 0.45955075151812463 1.181888300724326
Ni 6.726030963450536 0.969303827689807 0.4984732386849457 0.4329249214004803 -1.3630011782806783 1.0275748027490046
Ni 2.0316885687195825 6.454277075977782 9.221309387805329 -0.6139987181887813 0.7289329430355318 -0.19054754060669118
Ni 0.22855126762124617 4.855819079883042 1.21892349233185 -0.3242053100048739 0.7514167259603446 0.9171461790820914
Ni 6.441988837880463 1.8904598573225455 6.74971910054617 0.05971592780339392 0.5466427573416263 0.7533728212454509
Ni 3.188159377421531 4.372330790647943 0.3467320618441527 0.48779791928927607 1.0417917176793348 -1.5613471318858658
Ni 5.913250492807265 5.683839863509206 4.6514558098902015 0.1924928372585201 -0.8079557986976535 0.9523754345980309
Ni 5.667114457639091 3.1470476596898975 9.519778647448097 -1.9215828531517358 -1.773508651217907 -1.2474671150664
P 0.28659576090054 5.790350000945212 12.390963964525408 0.2474252276303416 -1.6643694357863785 -0.05606007621836152
P 3.9505644106768996 6.332834510669647 12.448112874350151 -0.2597364408975269 0.5477192782352567 2.073924829222983
P 2.479335408883799 8.712632474331835 1.276904597500104 -1.044187214494705 -0.661047592047468 1.3995496668286735
P 6.319260399462661 7.635170418318984 5.888874141934626 0.25038045360392364 -0.38487306019857587 -0.8669230212604812
P 4.755213092218186 1.1362590567246347 12.67343678157502 -0.8227807795256282 -0.9138513103809035 -0.8575955732119682
P 4.311079764494471 6.139310607664641 8.04732172738971 -0.9386537141365642 -0.47122947340763355 0.5198814300873821
P 4.739103456569602 1.0830583206732374 4.075005233637224 0.5087107581825432 -0.20865299195815035 -0.2300114030292684
P 0.3292704483415298 5.401808046603543 3.5997990538817186 -0.5652308047564588 0.8807838384029735 -0.853464324652414
Ni 1.3012854760949604 0.9244884331845535 2.7376021174161367 0.2267299040645192 0.9020098376612852 -0.2962556188694833
Ni 1.9149729454061424 6.510638162136743 4.732752873387841 -0.3023923278948405 0.4491930624328844 0.8089248474791423
Ni 6.326848861898588 5.599452176826147 9.295144765089121 -0.7858234855749886 0.5646237673000792 -0.29314329849274673
Ni 8.664928393052048 2.103534464861163 10.171973488671613 0.22661189042941618 0.8831687936953823 0.6866272402887853
Ni 2.384153632435078 5.149659196331005 7.115106283469384 -0.0876476212166555 0.054616401793299484 -0.3243413213621059
Ni 0.5836614266559951 9.11557258532401 8.69918513934693 1.022128949143085 -0.931481364757841 1.669252732020609
Ni 1.4400511066058732 1.086626165780344 11.610010664435304 -0.8230438033790277 1.0680028288570638 -1.5186241390960427
Ni 4.061882989107509 7.137646190210751 1.4881092557630426 0.8956319591593994 0.1268767419206073 -0.15614823719121493
Ni 5.879826847400336 7.727200900104576 8.08334519089372 -0.8824596834434996 0.33504919469791333 -0.0189477447470964
Ni 5.433248549679365 3.2478528671323073 4.431154957693028 -0.06118197082595915 -0.19703263411040262 1.0125145659817725
Ni 0.6109826080586624 7.184707334935706 6.765808814216999 -0.6115263453888887 -0.5061957050701734 0.9421429582367452
Ni 4.71075086004587 4.473289940645735 6.588184460549702 0.6576737904792286 0.10582069258125647 0.5031260650059142
Ni 8.382362304924762 7.256951670632395 9.376561360453293 -0.557177081214047 -0.7170449333486941 -1.0856591084862464
Ni 4.771304616977902 0.3065304162781649 10.537386932383686 -0.4616693405230242 0.836474989183269 -0.16804884528354283
Ni 8.143180851082114 6.8485692375352185 4.897123678581125 0.16559729841925672 0.5332485954229074 -1.0146328978763557
Ni 7.385919310265417 5.962503055085317 7.0137432606498225 -0.18816875596186947 -0.29579693406550994 0.44642964075513436
Ni 2.2851142366573534 5.586883219951366 2.4979642691740005 -0.5360356712497414 -0.8215682472747657 -0.32418602673116426
Ni 2.529312406716593 5.105477682936153 11.267962983997004 -1.5306196208950222 0.2293675987976824 0.4400790159467582
Ni 1.157005079923571 3.2434971983594183 3.8908600544328023 0.21505889548449417 -0.395348505808603 -1.4686205534844061
Ni 3.5553485937871665 2.60472614796528 2.9517135733424786 -0.7715497492647938 0.06882560341414598 -0.7284218077270681
Ni 0.9788120443458016 3.205672606957429 8.279603838117877 0.8039785592174605 0.45110030675792634 -0.034135508231128306
Ni 3.7279363092601163 2.225293970724497 6.931040792175983 -0.17980470026789033 1.1057731056273021 0.23490112702140192
Ni 4.1543209658926425 7.019336808676878 5.797821648147937 -0.7901735350135682 -0.7093215965625074 0.9975651437607915
Ni 0.6744132796874662 7.561803207512445 11.307617680719162 0.7771580965905067 0.2973892182532943 -0.09417950879790232
P 0.2949340141356254 5.44362608900105 7.935674436326136 0.07349704074788632 -0.20345653535887542 1.6575228451781907
P 8.39289378680183 1.6950252555419059 8.026222541857836 -0.13058967199582028 -0.4457796658759613 -1.045519045932251
P 1.7338368903872319 3.1485961406881597 10.495400458719702 0.6943235804917784 -0.36719672596473535 -0.6893053013415806
P 3.932915349474487 6.087196524945357 3.828767777491385 0.40955925009134625 1.3720668880273725 -1.0927790073604793
P 7.0400556655425115 4.030270432587436 10.725892308083214 0.8074642037732158 0.4260811590057694 0.636498184842878
P 6.367833803408141 7.7754211417171195 10.29149358312635 0.48057749028143687 -0.5560956752244101 0.5247287308773544
P 2.2064133690790224 8.327893806652567 6.23659415276656 1.9798638482808162 1.157021105169001 -1.3125610193522554
P 6.594174637042979 4.044605201126902 1.7695886905582143 1.0772336034267125 -0.7954409540600946 0.3748904950645673
Ni 5.090753530286012 2.9716165346645838 0.3094444582971163 0.40036292830405884 0.7892548798540406 0.7279772639904817
Ni 1.2206829651854307 1.1915968776625223 6.830472837377752 0.9560060893720826 -0.2636064653758944 0.5460897130516337
Ni 7.016882783235188 0.49732410278623557 9.29966433740627 -0.18280517765711096 0.8903655685541376 -0.13384674548053724
Ni 2.947855048469032 1.6093426403047448 9.15164857040574 -0.5617153354040326 0.24912164149615804 0.8453074998732345
Ni 6.4367276246641465 2.0035261365289703 2.651798159223556 -0.6155341809967012 -0.30015289704136044 0.35228509896022553
Ni 4.281441294861071 6.979067247277633 10.41797278662883 -0.48495890717858414 0.2213997501008574 -1.2461208854511505
Ni 8.148505452409472 7.008696661466598 0.5579231369404398 -0.48718008319961903 -1.2139887808032963 -0.117910533866255
Ni 7.54827437352763 3.7072717850610886 8.26910676692966 0.9652036967109506 0.1387254137290772 -0.3495952108328882
Ni 2.9954051871934384 8.558454477393779 12.357313027463178 1.6376721290008507 -0.3474347128464597 -0.2774518558994189
Ni 0.008443296390523035 4.730020845802018 10.066051049579393 0.515946356699034 0.6490284560994047 0.8647589237296268
Ni 8.653581921175894 2.3261716217223807 5.647248623639166 -0.8818235925213973 0.5480072417893207 0.6820869292162705
Ni 3.915275343716509 2.8856713115388284 11.169264072930009 -0.9969329094934315 -1.5578123792597298 0.9726624669818409
Ni 0.977861222680202 3.447317141686201 12.653503031741838 0.26572685415300684 0.6379310606346628 -1.0564251513217935
Ni 3.338796695585785 8.4098184124495 8.192183483093778 0.06937042017402247 -0.37057978350435533 -0.09442376359822448
Ni 5.613995220587602 7.859310778956292 3.547911357273292 -0.2841896888438848 0.4135046078923395 -0.18541279048328713
Ni 3.0706649858867427 8.407328165230073 3.679598346869928 0.6396503573186145 -0.29171916445171053 -0.5543532386120065
Ni 3.459071108561897 4.354880949223085 9.196564480344215 0.5874068266328658 -0.32714253825632694 -0.5589357157763665
Ni 7.393951489478623 6.28303862172554 11.463718148510617 -0.04895483263214795 -0.9365209840642774 0.9102494519622581
Ni 0.29079748711804615 8.836012904748907 0.44073934714974766 1.7121999250060964 2.1391022943615807 -0.2315080421794529
Ni 4.462957678546221 0.7153945990192456 1.7073370377947537 0.015250498401167283 -0.9254269310336449 -0.09453072148973397
Ni 5.899142110378657 5.536417228119121 0.41057022847249913 -0.022053380255613632 1.3153820337408184 -0.8141830105542882
Ni 7.789692522145545 8.957428303723738 11.732765363641963 0.6509904649217821 -0.9141032784907097 -0.609961314894614
Ni 0.3704084268620222 4.760881800434046 5.708797573914526 -1.2038694329811073 0.4790512834448975 0.6424160929892098
Ni 8.064235486504058 8.759666452723488 2.568154830072995 -2.1753399365373762 0.5183552232508428 -0.24160604984540324
P 8.401414960014488 1.5795230617826597 3.6297653306036395 1.1275809455310128 0.48208775627837613 -0.702712575886422
P 1.8448838054848122 3.404312836067804 1.5598772750824885 -0.6160828544113196 -0.8052625681362067 1.5975456932936098
P 5.073339910638891 1.1464917089353714 8.333466527157421 -0.7737521562327513 -0.2575700293738274 0.31100423793356763
P 8.63376860875369 1.7805629836681185 12.6320063121993 -0.7053731534377207 -1.4045183236878587 -0.007988160411799146
P 6.3693551180731 7.792717040586594 1.394075709668588 -0.8192704523795244 0.15044295927632156 1.1304857778826338
P 1.7493850884808912 3.1930945946382137 6.0792874997764565 1.5240764204598656 -0.9617987847944597 0.14431087823665467
P 6.844630119206307 4.0052140178377815 6.238145350398152 -0.24738588975197395 -0.12808413196514715 -2.2757517993982357
P 2.295401221534696 8.641773621633591 10.207386615220754 0.4903201714904975 -0.45283451584021367 -0.7120675347387608
