# total energy = -381166.84519387764 ev
CRYSTAL
PRIMVEC
9.25002585691768 0.00000000000000 0.00000000000000

0.00000000000000 9.25002585691768 0.00000000000000

0.00000000000000 0.00000000000000 13.53834784853971

PRIMCOORD
 96 1
Ni 7.597111160533288 5.24491278145802 8.582731038253234 -0.41812693715569926 -2.4377508389432725 -0.5580877659537743
Ni 5.206256922516275 0.1375460376386636 3.248526830149946 0.5171087524382514 -0.48930715684495085 -0.6341538529804176
Ni 3.5039931251169834 6.8220514762239075 7.998104415631196 -0.5549075684535798 -0.5868836071395441 -0.8459646738412593
Ni 3.258118182180742 3.1620289113774738 2.5295593039221043 1.6356522703573444 0.7277129545855016 -0.13746917272447293
Ni 4.443564523060954 6.355942662614292 5.078477987403715 -1.4099073559139137 0.1417911971385945 0.012469593221920459
Ni 3.5800283394029733 1.2647005642381635 11.559325602030974 0.33484839154101687 1.101815920751767 0.4834653533521932
Ni 0.3001226458196494 8.296792382407567 10.293896135738583 -0.49001061066987867 -0.5108959387593202 0.30862751017127493
Ni 3.0754116672687135 0.2604788840937497 5.046202796444265 -1.7506440879149079 0.16784675657506576 -0.10021594479996934
Ni 2.586631039764334 3.4684360249083035 12.212524517906648 1.191296224301787 -0.5488158537335451 0.35705603798630764
Ni 4.955636716206711 8.735752369505091 5.961530801064373 0.9902254155662688 -0.47024834044128694 0.5506037988719034
Ni 8.770116216350889 3.143029357832045 4.696615636221413 -0.12324454448465873 -1.6132350790044088 -0.05003366751862351
Ni -0.15387973367104818 1.4465375766997195 10.101231967763434 1.6817403229646584 -0.12727757690345176 -0.9600018407950368
Ni 5.223304720561174 4.949226448140994 8.93250689900789 -0.13618439247477837 1.8324774164426312 1.3804389141411515
Ni 4.347484502283755 1.7182848425505488 0.9238408036112754 -0.4585127971719136 -0.6077501661759082 -0.9301382204663852
Ni 1.7584114556372425 2.314883773913505 6.595598813024442 -0.4958747827601395 -0.6604564954306883 -0.641730636886411
Ni 3.7175392269425753 6.413533324918984 0.27602077789464025 2.433827078408834 1.3675245200723285 -1.552843722400545
Ni 1.4948227127791438 2.8238757083783335 0.5900591629322756 0.05383092977752665 -1.2740968018387862 0.7499062028530891
Ni 0.19190751584271892 0.8798763547086134 5.195734092860344 1.0877365598405653 -0.3128469475692612 0.2205217183712783
Ni 6.201985228724266 0.7020094534358098 7.687751240979392 -0.8176198041499789 0.9834718988925192 0.7823964621713105
Ni 7.21489083334212 8.069833742782134 10.909728646306512 -1.9252947547856842 1.2995828619250327 -1.2932378935436115
Ni -0.01980893082645349 1.580496454228881 2.1721197965694 0.16602564420592694 0.024694417422886503 0.08577534389460713
Ni 6.627985929299324 7.190489264572481 8.215191427435947 -1.8336480397119648 2.531778909764975 2.304291301598825
Ni 7.375212285167519 1.6518974054543747 11.509680712119426 -0.6245137587874922 -0.013047834322893657 2.741392208753866
Ni 2.9244049916946517 4.247066219280263 4.992103093977959 0.3396645819827376 -0.5081623418782409 0.08629290696097396
P 3.925535313126854 8.937134687050138 8.355814023745111 -0.06187539734855795 0.7803642622326302 0.05381858848235247
Ni 8.662630913430792 6.953929097887577 12.030094578774078 1.3916424961664549 -2.191067117464646 2.4038217902959955
P 5.0327079334124125 4.247334470036259 5.583661686135995 -2.2085012537806934 -1.6836416537524292 -1.1324372451820497
Ni 1.3769126304794461 8.312933677897718 3.6878595932980462 -0.06427655059088284 0.44342993469686215 0.7891736329941441
P 7.731810040147957 8.977326050319315 8.756305927430088 0.92132627860171 0.41149863320590424 1.632842568822691
P 1.1965741222410444 5.732648156016619 8.23998057229787 1.1914885428182511 0.3714501019244506 -0.4750002533039755
P 3.7230799925578197 7.892464492911835 3.738899387140776 -0.6657018029900278 -0.4350440246260121 -0.9223086971196374
Ni 2.581663775765359 0.9783197571464052 2.5485533074518916 -0.3453215231581988 -0.7551954762764865 -0.06080556132314689
Ni 2.447593897923371 7.9033055234645335 1.6117263922425502 0.9956406730445693 -0.4040984840870912 0.00617758956562162
Ni 7.921861075758658 6.545614447156169 6.630013535013617 3.6499956404722687 -1.4791787886162266 -2.0585365196923706
Ni 6.402692294366287 7.4856298463514435 4.2281212408886395 0.6726221842589448 -0.7436288544848096 0.7302460054200005
Ni 1.1906541055569773 4.072277726683174 10.56134676448043 0.5306684934005571 -1.1794899756954784 -0.194652049693368
Ni 1.5797194520390971 7.179675984097988 6.344246004650225 -0.28748584309665326 -2.9689564357942224 -2.017796361660531
Ni 2.2862734432825356 6.406087053933557 10.314339618353362 0.0389486133490555 0.5009401130981889 -0.2695719389307099
Ni 5.885236586048456 5.766438501246148 6.6892710520159175 -1.935837563298537 1.2100627062760128 1.5315459893640335
Ni 5.056517500513647 4.0605671936800025 12.81460131470758 -2.078665429231762 0.37690058351606054 1.90008483117896
Ni 5.691467039958075 3.4412224482137317 7.472315358827934 1.4778551847087968 -1.554867180588477 -1.0884027326696546
Ni 9.197356420419174 5.865580280652138 9.966295362478792 0.0006479179966440454 0.9066072272239806 0.7493886397867222
Ni 1.9853793452887436 7.625110989443712 12.467857612498292 -0.5858839622304362 -0.1414798365457628 -0.4366440221232803
Ni 5.774708024551705 3.445098209136582 10.977880988376622 -0.03327161756893625 -0.4587745354737325 -2.4309219889468974
Ni 0.9573684481004481 4.671679415944992 6.337381560304527 0.049754188604991735 -0.6455312415794238 1.4263559883882402
Ni 0.6041136525412942 4.672715418864704 12.663351363447907 -1.1670802891772158 0.6528881961651272 1.090671216988857
Ni 3.44656896328153 4.407757672148415 10.208930021283113 -0.4296614201578601 -0.8736001761703407 -0.0749096048246968
Ni 0.21058054346791702 8.545766084076874 1.211769140064353 -0.9464742386222476 0.9460258382309192 -0.9134926414899042
Ni 4.807525298792202 7.364917006152884 9.852045515494542 0.5807157877659354 0.9144565480650703 -1.730928354653535
Ni 8.350923534962508 2.8807263685975175 0.2246119080117635 1.6427713979006289 -0.3196729693521591 -1.2897676756068237
Ni 7.264776223931457 0.635498065990313 0.5134485970248027 -0.648584940804083 0.05969921563284557 -0.013168676171474094
Ni -0.03956236149649385 4.532022522357416 1.7866286601602857 -1.1412201335810024 0.7471062715104487 -1.214766282399269
Ni 0.33857500418788067 7.927300091087144 8.115400296199923 -1.402447557201759 -1.5614954845382722 -0.07475790973818093
Ni 5.688599531876731 3.7638633574954024 3.4641245877576106 0.5500129593654399 0.701738899119243 -0.6063273176864525
Ni 4.255862994071744 1.654940664031028 7.235773692195168 -2.546558639177311 -1.164896908372652 -1.5074969188346297
Ni 7.1909332658237854 4.429818984322635 5.512639060976718 0.02183869314164626 0.08462091857518975 -0.21670851527277515
P 5.5083627739250876 0.6639890712849941 12.421895157964759 0.14391775656329409 -0.2648061421109504 1.517329331544019
Ni 6.279481947129135 6.908622470202324 13.351992679209006 -0.6709337408129283 1.831849295940329 -2.7714610031147884
P 0.5780202540036604 1.98549034560157 12.014809835697902 0.739596593396965 1.6011570647939521 1.4455006796374912
Ni 7.4865270988801225 8.721646079750087 6.433653056621352 1.279106853458868 0.1378800350096464 -1.7987347727745473
P 7.527190213478811 5.324722006380104 3.506892083286963 -0.853428329208156 0.5602168964816352 -1.6130592155481769
P 1.0147926099359015 6.426557361623932 0.35875578606230213 -1.1063305207926688 0.4897550430156469 0.8604669812224922
P 7.993733778313662 2.9699798701359015 6.946120225880248 0.5706895138781849 -0.5326029914191086 0.7022433495594873
Ni 6.841966782350153 1.3814636433053231 4.983872420781891 -0.5097024326718513 1.067919010894006 0.6299956078376698
Ni 1.2033451413234466 3.580712841332068 3.3193727798113084 -0.1680179920456074 1.4048322553838515 -0.9205210090915953
Ni 5.018166892432172 8.455023328341404 0.911675169325517 -1.4508796845612173 1.3067217869626593 -0.2915232463908205
Ni 6.713511670331959 5.499630749316087 1.3717057908052877 0.8653623616415805 -1.7118078317740002 3.5820892064382823
Ni -0.17201070976861133 0.019243754233646434 12.291615015803181 0.009814929207892774 0.1575705714600383 1.2906927585242547
Ni 6.275208435085323 3.010994485725206 0.8860590721330361 -0.17078784148126072 -0.164722094903155 1.9380638815258944
Ni 4.274030045270975 2.4177163137209683 9.38449832283122 0.162238666359669 0.08380767864527502 -0.015219388052915724
Ni 2.3925377427615446 8.901383336294014 10.413359297415242 1.0080254198621672 -0.11874742794525356 -1.0423355059979467
Ni 5.764875246840512 0.7421295915042556 10.24165198850169 -1.3297002501357034 -1.064219707665548 -0.9031040991667286
Ni 0.2858757556683986 3.6005263971715564 8.571425656391877 -0.6110548050691088 -0.7422170617389475 -1.2504501089541238
Ni 2.0137121751376474 0.44016064048126263 0.041623267304634795 0.21314188096743936 1.2855698354753924 -0.19506162642696084
Ni 0.11630982778978574 5.584027987168323 4.491996734554873 0.5022709160944705 -0.13315640428173198 0.16193964706201142
Ni 7.279206264598871 4.976042273714605 12.996150651358395 1.6480385598368392 -1.8023780259540896 -3.4848791383441724
Ni 5.045528469543846 6.1510915852934245 2.701022412147439 -1.4914851167874055 0.8983935810649366 0.33445706963986915
Ni 4.514882224051828 1.9588687705754046 4.392124203089443 -0.5954047572366779 1.3773335357429506 1.0947896100326049
Ni 9.305156224225613 6.784006119002705 2.5359760470060686 -0.8602641211830668 -0.5157067298844022 -0.5316910211278004
Ni 2.365370416197317 5.980724605157248 3.4418273999186346 0.29235474115318033 0.37444260889387126 -0.34700739550105403
Ni 3.1636199158613167 3.8522381065572455 7.429520113220375 0.7490505397210132 1.2314164893614405 1.2778058752592574
Ni 6.983566181412189 7.78180643105012 1.8232097382547874 1.0094616380880617 0.31513728626533466 0.9289544845709292
Ni 8.038938655712158 3.807144229471576 10.926381468238272 1.1403022497524233 1.1075489665808023 -0.10201391724065657
Ni 4.617918264432806 5.893543109458287 11.48673324744781 0.6933694441086252 -0.49642371328507406 0.882756645858628
Ni 2.01659818327113 1.4984857231024107 9.017230662780356 0.5200341536151625 0.6986869996667967 -0.3779817323953813
Ni 7.975196726071676 9.1594220635108 3.644767421853677 0.41206838966644516 -0.6718644801573139 -1.4806134641802242
Ni 7.184717248305514 2.374740692605067 9.154711950236539 -0.09218664673758963 0.7838396223757405 -1.0880579477357262
Ni 9.220324235148142 1.0323584094406575 7.634342515460429 -1.0656520692367002 1.0211868969447897 0.2289744771243218
P 2.0905151415873524 2.1932736811862648 4.441782968040092 0.8926643918906432 -1.8625138149037217 0.9149494285410887
Ni 1.926891430455372 -0.15689894217992253 7.113441172431951 2.567989298247261 2.932401262378008 0.7552414990230735
P 4.476883116960971 4.501219935548129 1.3216150496372228 1.316442870905165 -0.31719571145626013 0.4331825459372411
Ni 2.4078095358012246 4.947478193213981 1.0975331681192046 -2.6027205310808594 -1.4804784812642569 1.1157901235436718
P 7.335261422576133 2.2377385564992522 2.9539051748334453 -0.22699138525602194 -0.5434805575635607 -0.028804325826202008
P 6.709293658444563 5.937887734432379 10.497986860916592 -0.045166569234309305 -0.4102339075608677 0.35157033228138806
P 8.994392348416353 7.678317139391767 5.045133493430706 -0.1535593934181162 0.9770783366613495 -0.1577808876986315
Ni 4.165804740265369 8.199815109101689 11.793444686836306 0.7077776491141553 0.6227186145602823 2.0094215073332746
