# total energy = -340894.1532434638 ev
CRYSTAL
PRIMVEC
9.07405572918441 0.00000000000000 0.00000000000000

0.00000000000000 9.07405572918441 0.00000000000000

0.00000000000000 0.00000000000000 13.28079777927775

PRIMCOORD
 96 1
Ni 6.293247740700848 2.1543169094900994 11.571546029610932 1.0689574794608494 -0.39422467661680494 -0.005593692037693592
Ni 4.548379441900561 0.4654672929160284 6.043533360301954 -0.9007602815249004 -0.8056232939097352 0.29511404906587235
Ni 2.4692410830291065 1.5954004550114746 4.839323608714174 1.8601892805356026 -0.9934963730080567 0.16906494525288301
Ni 3.4554185193338616 4.607950616892885 4.944785912481239 0.39878709917650673 -0.5924945255684184 0.12334841705237468
Ni 5.037843074842058 4.1361995404761425 2.8861567340694414 0.35399719655532585 -0.15819586374886302 -0.38502012729940144
Ni 7.508790080323344 6.279663879472592 2.643981079060283 0.013693181216376417 -1.0070455724474012 -0.729039386706409
Ni 5.030837903921407 4.811654090983162 11.279833290288279 0.15565844203898999 0.5559244397538683 0.5356104107868647
Ni 5.357476683235752 7.829957204112879 12.563475509758433 0.6889594879663876 0.8550162425205662 -0.45314176266798734
Ni 1.7689689904651176 6.3851860720065945 0.2931246623734995 0.5872263351909435 0.27025739503350876 0.2815756482598054
Ni 2.711699848572882 1.6792628768361593 0.17005506112660132 1.0291989686159888 -0.6386903073981903 0.43879217881453464
Ni 0.5461782952319797 0.09391375320914719 4.807156989029438 -0.48888909547092574 -1.2283339937813746 0.029023383815543563
Ni 8.430124315334094 2.314310657771082 1.3487712535154568 0.8849387411116114 1.2935430834888562 1.4544193222833597
Ni 6.628951501556295 0.7716858175155633 4.90641808320172 1.353138940774618 -1.1583411095320053 -0.8414883832374603
Ni 0.9324590271723021 7.428348577458615 2.5443488560140963 -0.48011777703619896 -0.47267314783269565 0.19582678672775952
Ni 7.5592327553853895 3.811257609558381 3.955499704729055 0.8715101264105313 -0.633344983925877 -1.5721817606075246
Ni 7.580620304426806 4.092780184445942 12.766472114917729 0.7652592882703918 -0.9627719473410065 0.061930161845893346
Ni 7.9284016332814575 9.026788841094982 6.864804354625673 0.19754042698475657 -0.49688856873663456 0.2607749094643702
Ni 6.839696442789609 0.8084729463101374 0.3836102373782141 -0.35806211065331883 -1.269947812667419 -0.44424446017835745
Ni 2.0652913500308934 6.461235731962522 9.254923302473811 -0.9111745348796888 -0.00697951664162669 0.08475333038799596
Ni 0.10335167843527297 4.912494070829269 1.3537383915490895 0.08087559260014458 -0.6350323989306289 0.5494879400999053
Ni 6.3714479518331935 1.8994176137232508 7.098825155870079 0.4551536508916935 0.6062923506834591 0.6056261778543699
Ni 3.290252559362761 4.283262759531831 0.19860204003381382 0.3097551960178149 -0.5848982012783991 0.8744293569398554
Ni 6.080942061904901 5.493632887464208 4.7133285319429 -0.1455761181023235 1.5463629997722077 0.7944171407812706
Ni 5.547995554544026 3.0345638207589998 9.26409989489875 -0.3415178331413925 0.004129705897657404 0.04168169600950241
P 0.1073043370531947 5.604272847354749 12.408183029682101 0.41573221167127755 0.3381072647979467 0.5253666215716694
P 3.9403541985326065 6.199494598275763 12.721954798160327 -0.7426371799955016 -0.7754647680484839 -0.6105580679383484
P 2.5025156449021986 8.476964590324249 1.4820573339586773 -0.5288360681775086 0.41287545894877287 -0.6808733685241435
P 6.411019908290394 7.717674840159336 5.637353224438072 -0.9267700753251007 0.22315658489096407 0.8496783752474205
P 4.708917633517346 0.9465419614583777 12.749446464401641 0.1488041381213179 1.0750425093126648 -0.390919780613288
P 4.124811600702286 6.260317992940431 8.126267767406379 0.09625361771811165 -0.9519092935948897 0.9244856501662981
P 4.599901929578613 1.1805981515196107 3.904567938070348 0.44736835051931984 -0.99554631355855 0.22390374746963373
P 0.35055798986724096 5.474649963155915 3.6232277517002807 0.038886392652552386 -0.029537090227168484 -0.8516360131944236
Ni 1.2849316427704465 1.0285442018857391 2.6218421982154587 -0.11134085106853729 0.430923060479103 -0.009308678995435582
Ni 1.7888411722218867 6.580359933835976 4.868474919724127 0.16834503636772297 -0.9735088741425364 -0.7002173202683941
Ni 6.07970799034375 5.634017601600726 9.12425327225912 -0.4283786967906945 0.6280919630570538 0.20653080340882493
Ni 8.601270077943418 2.3716677631978107 10.270877252219131 -0.042884715178668084 -0.6906402181029203 0.11815915954195134
Ni 2.3419139348962377 5.345616892570868 7.077204403599827 -0.4961401206063842 -0.14227353609165175 -0.5577602074110266
Ni 0.6477324032535468 -0.07655327004154422 9.068314441722153 -1.017070560783571 -0.07993636861532685 -0.2108813670680368
Ni 1.2555226285815473 0.8958769720342133 11.49729303266315 0.45093858436908146 0.9582699457055949 -0.5656972028699161
Ni 4.279478878348008 7.071329860006524 1.511142404362774 -1.007567249278826 -0.8741596482182364 0.303309183282155
Ni 5.732434808602514 8.052226195954 8.008467470244485 -0.22640928750030687 -0.31719416879436335 -0.20915564262618175
Ni 5.581941596531275 2.7914063529342785 5.03324978789901 -1.9439774187968522 1.2452796204967778 -0.36010485211496046
Ni 0.6601057854652045 7.4102821327655874 6.999617598625818 0.7175560686571578 -0.03711361702284576 0.07537163206277987
Ni 5.083267797159129 4.596435640340674 6.953280933721278 0.12697187273757488 0.1922133583448883 0.36579753162436357
Ni 8.058832108428398 7.374729982937724 9.08077221265086 -0.3336227466640319 -0.07146638347110272 0.4359549664760557
Ni 4.600800261082687 0.29778146770572494 10.523225830957749 -0.3231146480438564 -0.22809747383600718 0.44755064173345505
Ni 8.295292923222755 7.080984655161411 4.787077011399505 0.4482720932805119 0.22570557656506288 -0.1529469566450979
Ni 7.513508589233627 6.332120994877103 6.998170286758145 -0.7423636146191408 -1.3032078602721298 -0.04325469692357712
Ni 2.592611942921815 5.025175693229067 2.51526378561 -0.7821190401402079 0.19193670764473394 0.24542413803991284
Ni 2.469912563143262 5.055555631366812 11.337684024339469 -0.4349152123576317 0.6342713523948883 -0.024399511890287013
Ni 1.1719052062579738 3.207823838322355 3.934821746835299 -1.2047392371805703 1.4923636627376167 -1.835478408052484
Ni 3.481352170229225 2.3153904703870887 2.5259947637586553 0.2492265425051385 0.7893960334175953 -0.23017929606570037
Ni 1.1580491233618158 3.4286591293791986 8.171621712089795 -0.4484592695906534 -0.5361323447286057 -0.0013359452026041507
Ni 3.62765316861479 2.641920361034273 7.109702226313842 0.10212524600754024 -0.49143551604186336 0.0228031139374446
Ni 4.094867217233183 6.926526080794415 6.033971120514153 0.942720685117086 0.01908992675191551 -1.178861340972544
Ni 0.5536743725604121 7.385183294985121 11.199762916297454 0.4210348548311136 -0.6974094185059536 0.14620012483956757
P 0.2679713802594521 5.629834461970647 8.302690093345184 -0.019488961962547083 -0.1816561516543323 -0.6712217043669924
P 8.578666605452042 1.6741451094796214 8.049146461484483 -0.11821700936308029 0.14890312559302743 0.583902155913717
P 1.980575966980119 3.112936438947682 10.52718393400903 -0.33273674451465274 -0.24702439264749715 -0.6583438199630598
P 4.294814032306427 6.049055830538103 3.556916368210729 -0.5027121173969471 0.9649581563590477 -0.004854499878823897
P 6.967223220145606 4.124503082811999 10.667707481196175 0.059532608147994256 -0.3455475231260759 -1.5362145984842963
P 6.334707100722162 7.794087462339131 10.37563631667745 -0.9585183142709751 1.7350236077688312 -1.2152162254524943
P 2.380351634403851 8.368665736777658 5.747570333337807 0.43832938024550316 1.4835694614847545 1.2051485568038471
P 6.917216099752202 4.167350773339608 1.6869132131097355 0.2884821455716515 -0.8116288766738666 0.4633780956840149
Ni 5.355680020227606 2.87525062664777 0.6596176012741021 -0.7467242055806818 0.3605601944848242 -1.0817559167770983
Ni 1.5712906892910476 0.9591821209045781 7.010216095562762 -0.09799219767577318 0.11661675475549595 0.404989885553109
Ni 6.703304313115639 0.8465721835439941 9.344262824256663 1.0847638503654866 -0.5505428637269809 0.05619608757559355
Ni 2.513958029009635 1.3158923204663806 9.375353260947628 1.3145855059814522 1.1474925968532752 -0.6479611911771551
Ni 6.319998056599914 1.8939641063096349 2.568519417907021 0.9989414552830281 0.5008138719329697 1.51866681940852
Ni 4.112198663422876 6.867490275082297 10.39226361615284 0.585369741598179 0.7594539944425244 0.26989306971555455
Ni 8.396704568571455 7.578551419750759 0.22472170906890954 -0.740518590990602 -1.5258759355624494 -0.023450517713456385
Ni 7.719743724835383 3.9680028459357453 8.36143099225041 0.466765524099009 -0.37125598363577356 -0.6567625915188688
Ni 2.905004454949343 8.300156617022585 12.56513515452707 0.5833838215164018 0.4414733251911236 -0.31514602801608305
Ni 0.14756047730238653 4.647939979907534 10.36923547785954 0.17447814584865434 1.0181992750713755 0.1717448060778913
Ni 8.895278553332036 2.220702700235543 5.793760905947239 -0.6120079130109976 0.5332660789244043 0.7496375225727347
Ni 4.002702034537519 2.8306153471676114 11.47437015341477 -1.3714127993831413 -1.3049268998457655 -0.02808904492673227
Ni 1.069495414793638 3.257440774325101 12.62905552436689 -0.3628237937080203 1.053582539666676 -0.18999115388258891
Ni 3.184866477662709 8.2344332323357 7.956871482716098 -0.23379632399299738 1.155033642425327 0.3331684327354327
Ni 5.819173706051352 7.910153707476498 3.429964885979564 -0.8577686084547227 -0.5716703897342155 0.8109760735812163
Ni 3.079888728464508 8.487935123540657 3.551922915415866 1.0144673188327689 -0.2922369846283935 0.7413647410409813
Ni 3.4314085682249984 4.143168415174407 8.999626563071827 0.045093807014844924 0.6203696547121316 0.8538152802339296
Ni 7.129703259660084 6.289318674627478 11.490519250160215 1.2768859345481494 -1.3093008605437453 0.7100008820177192
Ni 0.700587869698754 9.33275692176005 13.697681644634365 0.23742697876704916 -0.4779251402602543 0.6340116709755984
Ni 4.80338762633457 0.3166346330189848 1.7485496431558676 -0.9318513465027499 0.20705376579183052 -0.7468162510738557
Ni 5.988205213706646 5.6512855294012425 0.43922421672481754 -0.5562358003467002 0.16837820359850356 -0.2080341274272288
Ni 8.012881090886719 9.034692343519707 11.409174878763613 -0.9708686083062118 0.28213280631485604 -0.2492867063191126
Ni 0.01213836417170316 4.7022300545425795 5.678019512000234 0.3302430315585216 0.6808273457775564 1.1325670858916947
Ni 7.966276741342075 8.820018336213021 2.5591032704143277 0.20641124711182515 0.3582027499962412 -0.2069779182485726
P 8.397875121743429 1.5705919870101017 3.7215587551739002 -0.42212191724770526 0.5071889222213781 -0.6527131040398436
P 1.6917669254484093 3.0633376510561297 1.608211206702893 -0.5384347676095372 0.6857283826235997 -0.6469731162322728
P 4.64687831540272 1.0748854038180768 8.40743554672011 0.0007309646287535799 0.062437440499615054 -0.7103441242897509
P 8.592613428904167 1.7389338664400467 12.613929073687194 -1.466238683515791 -0.3935592751186641 -1.6163391718510292
P 6.445746319058959 7.696886178787301 1.1976501167969258 0.5974773234949904 0.7163944442488888 1.1381808325340461
P 1.9113499968329086 3.378769971708552 5.961471231107653 -0.3625905946512917 0.014210744282743267 1.1222091396961382
P 7.0026846294175025 3.950907325191566 6.1357021726198555 0.7817930242593567 0.5276255928091752 0.7967208492137826
P 2.2946562533486334 8.4257052502585 10.353125399553164 1.2362666183648903 -0.6205794567300925 -0.2722147758701957
