# total energy = -340890.4023444055 ev
CRYSTAL
PRIMVEC
9.06571581398042 0.00000000000000 0.00000000000000
0.00000000000000 9.06571581398042 0.00000000000000
0.00000000000000 0.00000000000000 13.26859147035794
PRIMCOORD
 96 1
Ni 6.484742748776814 2.33730470681576 11.139725794351078 0.41649762908239235 -1.5006400438137961 0.48546541450135744
Ni 4.803877454708893 0.4909937263430695 5.798095464532102 -0.3779061419624395 -0.3126857394010486 0.6134119924473758
Ni 3.102052225794847 1.7991547533552168 4.648080409591636 -0.8723804448306266 0.9689004288362474 1.7407168014988665
Ni 2.9438645514306514 4.7095214850382785 4.600234281504529 0.13281830421602286 -1.0630881651642656 -0.7860489713222333
Ni 3.712954548260644 2.8818641213213767 2.557268888109862 -0.01672888271890667 0.6904954649949399 -0.6880722002654279
Ni 4.981075935029974 4.947324275240996 2.4394571920433235 0.020601735410751616 0.10311743471748047 -0.3287098827434468
Ni 5.064344534321346 4.66760161534603 11.10342304214614 0.31210621274849476 0.7643038663356578 1.0686116660856564
Ni 5.834749059937104 7.901396822621793 11.99122405404645 -0.611826650238127 -0.6226499661058761 0.36901860966482253
Ni 1.9985461058663132 6.693480854240485 0.2580148034983203 -0.6129633349457314 -0.9073700735319342 -0.8553854529345268
Ni 2.843262303598714 1.5988477635519671 0.2255232782005223 -0.4483664527665311 -0.5230629131391573 0.21596520934884741
Ni 8.299490533245928 8.912396378895545 6.6444996985397395 -0.4715858283057878 0.6100199360466914 0.16142156977501232
Ni 8.862625599351766 2.272339787651692 1.2334785671207606 0.4774201755993777 -0.041670126045276625 -0.8759450222534334
Ni 6.880542833312685 0.9529699096690654 4.702202732702085 1.0003041399585093 -0.3784260190216515 -0.014446257332317056
Ni 0.6735926535447039 7.261864969773616 2.2442097782079036 1.1130680966268185 0.3757919238329141 1.2973562865873591
Ni 7.703338130327988 4.12692232718736 3.56716786648988 0.10884790944335448 -0.5067924581139078 1.5054636904546848
Ni 7.744414888454195 3.9209945936104957 12.5008179094223 0.40333075268313123 -0.024016160408939287 0.30193955662813804
Ni 8.530702548088295 7.3563387937491616 8.903874606077485 -1.1709477425524222 -0.45170168778735115 -0.07992582709236558
Ni 7.050570332464527 0.41774183639922524 0.2194628472123588 -0.44658313561386315 1.8046904761373501 -0.14629551276685127
Ni 1.7748586351079796 6.687307101805272 9.003760662364076 0.9534262444600483 -0.3861143888048447 0.36323105644876796
Ni 8.8692707690067 4.8991309302401325 1.3823349002491796 1.2227973802338616 -0.8350619108858264 -0.9231134524091199
Ni 6.4756226387183355 2.209813546028111 6.926788862567463 -0.6109013102103802 -0.5313776036524397 -0.445321238182304
Ni 3.3869967379698163 3.852276468120175 13.178643345657166 -0.14264274650561237 2.4775062644643397 0.3845912672920989
Ni 5.883078390674425 5.803327289099445 4.718709587964986 0.12666873967485928 0.7008986626061348 -0.9501516874738346
Ni 5.519588517121074 3.328477542713877 9.002672776472409 -0.351634095639788 -1.2833882544430413 0.25280089011995815
P 0.31399922462667457 5.607988311534809 12.376716419758772 1.2131074066396077 -0.6715621184255467 0.25273944075440347
P 4.098827674035051 6.189844080693089 12.763429937384492 0.4010424708695868 -0.3204383867632739 -0.6773211323965108
P 2.373504109860991 8.647215127085868 1.2484705412795132 -0.7943531203125545 1.471477563317227 0.8705899285891071
P 6.504524140573631 7.966398004648917 5.6111676580532075 -0.22948869775657896 0.3985523574578813 -1.0757061110385924
P 4.996324468944846 0.9874105638561006 12.5606325954609 0.5694039622975419 0.42660694960225237 -0.741130256432672
P 3.866292064691156 6.305259708083229 8.179144969623382 0.9625197221208842 0.8454872199842084 -0.5279338680782134
P 5.1352565630265286 1.584442341203139 3.6478010622086865 -1.1074630917352153 -0.513037153472039 -0.2761174533587116
P 0.4687664044331528 5.475456612782436 3.5352039658495404 0.3860038313689094 1.7508713734343653 -1.0906660747825345
Ni 0.9286103314114806 9.022961848352004 4.503346257421059 0.8030884433030234 -1.3135789190938088 1.1647866080470326
Ni 2.031735691277931 6.870108194468442 4.752065982546659 -0.5571115180834341 -0.07898634599723171 -1.4512432385482235
Ni 6.207812329337127 5.998838515263595 9.150298891971667 0.1374318917286343 -1.0636959739515939 -0.8196404341244335
Ni 8.800534512084852 2.462756081556533 10.012491976553703 0.08966593719826492 0.09126490625426864 1.0593778061922143
Ni 2.393004464469128 5.072594335666491 6.90927389971162 -0.4794464620007872 1.6351323932981323 0.7147026583687628
Ni 0.7777550079571229 0.24219331634717156 9.16712395385788 -0.4949034199858058 -0.6439433282670136 -0.025325109028349935
Ni 1.5949495057734926 0.9638306371542109 11.427295737811273 -0.2803978259016203 0.5018083746357551 -0.5270416952812471
Ni 3.895946020954855 7.294383692218706 1.5651894806353561 2.1410257366365384 -1.4511244535821717 0.3807114726217185
Ni 5.682281852219925 7.988427693955179 7.583385112198018 -0.19069640747972963 0.3750987544206314 1.3089912997231261
Ni 4.902802545124509 3.451816605681662 5.023581449960571 0.8728784675129676 -0.6692069879298088 -0.5084970995098403
Ni 0.9575934247086515 7.30677652566795 6.737790446608096 -0.174427495116377 0.3486737274598834 0.5026815212693279
Ni 5.226901883683738 4.756699469873586 7.181903543592914 0.5116104483278414 0.5075722737027258 -0.9179781880650836
Ni 1.0643331621127456 7.475389773160624 11.344327213711685 -0.3514471764399624 0.2433939949837615 -0.3751121241570701
Ni 4.741052044465103 0.32150201099287373 10.40975436104229 0.07550661497874739 0.014190689678085237 -1.1603889931999691
Ni 8.312871529713437 7.365703678133264 4.433965428108398 0.23261233098722522 0.3382026527252305 1.2953634245270464
Ni 7.326231551697267 6.253013988135905 6.580929086460158 0.2539784553678271 -0.5779191988574047 1.6234333596936492
Ni 2.4157231481734476 5.305682953671982 2.18147593169333 -0.3808950493874343 -0.9403868947775869 0.46986858850436497
Ni 2.56819942160639 5.409068376243436 11.303327514169471 -0.6706102960352386 -0.7439363584228994 0.6008117871848621
Ni 1.0049617895750003 3.393714433350862 3.5221212314306642 0.2503884240237236 -0.26219647240224525 0.40162508284593407
Ni 1.853993268011015 1.3461590680649351 2.6968809108738383 -1.7138693422887192 0.18917328596698388 -2.318658111843458
Ni 1.3102769650714403 3.3870601979801633 8.307531823128503 -0.4294904417976345 -0.33696646632528415 -0.3477188197457818
Ni 3.7280217678602363 2.914854260986189 7.163460251442848 -0.32862092257406633 -0.9804184567781761 -0.2124559106440083
Ni 4.0271541252057 6.6265124118925955 6.05764237399452 0.48582022673761494 1.380707851531822 -0.10580346619007584
Ni 0.5406058558609823 0.018843090215254783 0.22502375726193172 0.43030419594818153 1.0320037850546355 0.008075063698650608
P 0.1658862801908949 5.4894812750691795 7.754363604933492 0.7279284130304173 1.0279427276113846 1.8874324325222722
P 8.699796278516455 1.7117521876755097 7.898195718385561 -0.13685802150303528 0.02770492211443616 -0.227405332864989
P 2.19875337279616 3.1056513149531133 10.414981652751752 -0.906520066826813 0.4637326508099562 0.0870171867215082
P 3.9563690165212124 6.4113829768153785 3.731698822174072 0.4149963619465175 1.0647863788022953 -0.9761090307695447
P 7.033481458249585 4.173239069025097 10.234940163967112 1.5441947884762954 1.0724112423374048 -0.08517884796118878
P 6.564919938992697 7.946716335725501 9.794940182224373 0.2152157327773326 -0.3165570494309968 1.6768174317417441
P 2.6849114463507684 8.746466583268985 5.748816046782724 0.46046709268480696 -0.17637047777536075 -1.5427413438592203
P 6.813411208081045 4.155488397559392 1.6240223496567259 -0.0752487333316704 -0.25868151727045124 -1.5361451786989417
Ni 5.5206673372969775 3.078626416260944 0.11254904806559782 0.8431899393095994 -0.35292093277201153 0.8724393230930202
Ni 1.6109595598125304 1.1284459039950079 6.892356367524616 -0.7724732895203277 1.5503088717938331 -0.4192649074148844
Ni 7.050715383916749 0.8166161051506332 9.082934277844895 -0.31203293630839807 0.1679827679322978 -0.22192168404259843
Ni 2.799683407921673 1.459099755051533 9.053995606554968 1.3652868889910617 0.3461884991441844 0.6899789303698376
Ni 6.936369510986748 2.0624684677175336 2.4323052488771872 -1.307086883611562 -0.24408562173414738 0.14763994260988766
Ni 4.241839340210487 6.866073950953509 10.278514526786273 -0.06611771756467968 0.5403381552798371 0.2059628467204969
Ni 8.422874924792534 7.149359437143685 0.3445425276068116 -1.1688276108856257 -0.2278107958335238 -0.6957348590170083
Ni 7.816922483133823 3.8554222714902466 7.974900739463872 0.1164347206516769 0.5733233519566062 0.3248426864785567
Ni 3.376616493420157 8.484793763459933 12.491078610977148 0.20253119533112865 -0.5619773308161676 -0.6701400412670394
Ni 0.3678994377009095 4.967939712888092 10.059768777690838 -0.27630822921327897 -0.49473192740494804 0.05391397640963618
Ni 8.593944981257224 2.4814495874616833 5.769196682391535 1.0966600875824404 0.5000402269917388 -0.5968849413266302
Ni 4.122733966504441 2.5438217119172775 11.320217849209183 -1.3250514385097825 -0.4615163598849278 -0.6565713014436693
Ni 1.131954335995635 3.325522119374847 12.384531973318825 -0.8717996326264921 0.2724862843640275 -0.724736645565997
Ni 3.038637544026405 8.455565895837138 7.785770870625928 1.318222845623723 -0.6940479582328886 0.9183052323871991
Ni 5.7083367193253585 8.203022251802327 3.294590803760016 -0.33263955681515617 -0.2820554161097013 1.405941172177314
Ni 3.2721794478200916 8.889804615211922 3.431642668392268 1.291137559371157 -2.2877981890398082 0.2547153335338517
Ni 3.4347549286140127 4.505715128950166 9.103010305404041 -0.2005892411134094 -0.7199402526186182 1.0655967905187327
Ni 7.633795024703153 6.111688545092553 11.304853274132535 -0.9342298740372555 0.787841544446282 -0.8727136598003293
Ni 7.984901130523025 8.916911105345966 2.357390706662245 0.856515452773912 -0.16609352132938493 0.7025503392769449
Ni 4.74681783969094 0.5939177039821405 1.3389862737525415 0.31953875776714 -0.019822176932249733 1.5978714520641448
Ni 6.31443421243629 5.8980096245375595 0.12534621243791136 -1.3172152302948152 -0.5258957546022621 0.8972574105779644
Ni 8.015443526931586 8.664149884132822 11.537385257190124 0.7397403180636808 0.33256242372031763 -1.836478052961592
Ni 0.1626199028011637 5.161139181532448 5.638342141055481 0.09893913497007477 -1.3315486161983519 -0.7978418501921034
Ni 7.472815109883678 6.305848979607883 2.65963623080103 -1.8446970984372746 0.3942395890151404 -1.404413165568562
P 8.886840126157127 1.4003357854699685 3.720672192090447 -1.823863192411059 2.650722512881435 -1.4272797857540904
P 1.7393935550396242 3.244982300528408 1.2353406651386647 0.9052761671173828 0.4714516167207687 1.379389904051347
P 4.939473365389463 1.2693271269659288 8.235111259320208 -0.382188057167245 -0.282712590077726 -0.5171792006648706
P 8.422938384802881 1.6820891656960466 12.223941884277197 0.9418917614578876 0.31471022603024507 -0.013662842199073244
P 6.310137063164205 7.8611903732089194 1.2936477226457288 0.1943417175418008 -1.6102767677070333 -0.18336876347006484
P 1.8758325772862368 3.336138072534368 5.921692900399157 -0.5478496331655339 -2.4458559845489103 -0.5289934196909793
P 6.943504229292932 4.124728423972497 5.658735468666362 0.006685125329659455 -0.2523548037214751 1.1509659001138564
P 2.6922637418352866 8.426183911046355 10.162506908156749 -0.8441839277917526 1.04378175152617 0.4545278443822366
