# total energy = -340891.7299976204 ev
CRYSTAL
PRIMVEC
9.07337021524996 0.00000000000000 0.00000000000000

0.00000000000000 9.07337021524996 0.00000000000000

0.00000000000000 0.00000000000000 13.27979446033843

PRIMCOORD
 96 1
Ni 6.424817224597034 1.862427210395852 11.409269576263323 -0.4880504016197143 0.6569073446268493 0.72264711002682
Ni 4.847085154487502 0.6258384392960106 5.968245230486459 -0.6836766423008935 -1.1269865064801237 0.3298697073795029
Ni 2.3597023437270175 1.4653583787927706 4.842198237237344 1.1608931865298975 0.37812237173830365 -0.08327108941551464
Ni 3.146681117756844 4.201260802404779 4.503324188142737 0.9458494605540548 1.2324698703266193 0.6089578133307642
Ni 5.187109706937697 4.5231476876008605 2.8783162293584463 -0.36314415316191656 0.2518225853670889 -0.2782725520285014
Ni 7.259866714540967 6.1132104679646915 2.590157783623956 -0.10612511119555272 0.5061635662806573 -0.5804386228451487
Ni 5.191229017059442 4.649058847423445 11.575147117637146 -0.31512597341142506 -0.45198939423109896 -0.4932131767675763
Ni 5.634154662220451 7.672578036562305 12.310063800152523 -1.2939477751264425 1.3029389228814594 0.48353477313754784
Ni 2.06714059138001 6.526121404132898 0.44785339257757073 -0.37938015540480463 -0.7785549769380334 -0.6077072287531146
Ni 2.7609902925252783 1.6554454868336408 0.3550500536872212 0.014628805656768355 -0.8906815571326596 0.3977663712214763
Ni 0.5403418855180865 -0.13824640676203895 4.7801155155500865 -0.7940458734847808 -0.5210883059112896 0.06582589735587373
Ni 8.305191561470444 2.2856999354606056 1.20141131439939 1.7195810479615161 -0.342910599723861 0.7033167851293243
Ni 7.0989958589054245 0.7000731258424154 4.913882399388985 -0.6603397673471659 -0.25052083583652984 -0.39097017423524927
Ni 0.7762985098353199 7.6330090686307415 2.5699060210870956 0.04007038565832454 -0.5974834941425774 -0.5823214416901584
Ni 7.567599142049996 3.9317907775023544 3.534536849144904 1.4053179367710185 -0.8296991039120163 1.604284040458708
Ni 7.527540212121574 3.9491481349096187 12.627623595046709 0.511703265151964 0.12686260085322024 -0.2032449335687016
Ni 8.017511282351409 8.871877977690042 7.077705195467816 -0.9083779459711582 0.7676779250142134 0.19554525093159872
Ni 6.672202666159532 0.703195272566848 0.32971357442739657 0.10649175050635208 -0.7529563025333226 -0.06246212308996339
Ni 1.7279780091094743 6.445794856758873 9.257106061035687 0.9399122691340135 0.08281111905996061 -0.173207763776663
Ni -0.004527611785794469 4.977460412503696 1.3510330055218511 -0.029494667025007266 -1.1418762791077626 -0.3491699503700116
Ni 6.616138311000366 2.0981170776259064 6.949993878975287 0.11942388518698788 -1.3914018409105586 0.36605824148491795
Ni 3.4924218935037343 4.233652734419381 0.6345007859330807 -0.8707709342516616 1.431874089992992 -0.6450031369900956
Ni 6.145048924390248 5.660993691603978 4.891891271763273 -1.2695922291002133 -0.33115114519508776 -0.46410777476118786
Ni 5.318746163427289 2.805250192908255 9.250027924855129 -0.028033251988132366 -0.08664771919723141 0.8592598482882685
P 0.19971849062728447 5.809787891353964 12.633440532753868 0.356238941401651 -1.0278823066870943 -1.3212582900159375
P 4.110989841168569 6.190442996062251 12.637875596162479 -1.7451241865379428 -0.5552742077643793 0.5533746767488212
P 2.5444724567649306 8.441428216708328 1.3216461737546543 -0.7636317799692977 0.9346217101590356 0.6405173333046
P 6.415934395061378 7.821580923829473 5.727814527268273 0.020487064209758266 0.05689851295925685 0.41805931714255745
P 4.649866377381232 0.883542117577557 12.696533120556875 0.3502482710358549 0.4470603323605979 -0.6440140336039489
P 4.170148215604199 6.2682562198597935 8.12387477317336 -0.27863173514013306 -0.9529950704599006 0.024176597246203524
P 4.513094393294928 1.3144773038709747 3.9479368399729378 0.07085368958776829 -0.13581929582587576 -0.9798582133993318
P 0.23520081257022607 5.708220584079047 3.421818369756277 0.6235544801980164 -0.9777090282668128 0.8901189997609702
Ni 1.3222259621176047 1.007634066652543 2.4224601241655037 0.23848627326949892 1.0968076689038981 0.027116396600817817
Ni 1.9160871224222817 6.476118060342289 5.0171990524600965 0.4384990730541481 0.6871918545430036 -1.1673703096138088
Ni 6.187802645301397 5.667698912264703 9.113578045414908 -0.1403287536604551 -0.40232468001612 1.9173269060888594
Ni 8.465173226815391 2.4927270258743777 10.27995526236478 1.3778243593364399 -0.29130393129116283 0.3235378516242041
Ni 2.827443656691929 4.992041318595422 6.934469342371091 0.006768429072085117 0.35257794761029604 -0.08677421747276669
Ni 0.29561857080519244 9.416252976311908 9.486527136717031 1.2192076060000743 -0.6611967160308226 -0.29430775111449314
Ni 1.4332749413687842 1.2103603795383262 11.575598971478692 0.317597317770053 -0.6007143423750494 -1.2021977017056393
Ni 4.108140802890533 6.7966893068431 1.847591342598352 -0.3011268309188556 0.005931020772454301 -0.5144525457623269
Ni 5.908007124983674 7.6162414802937715 7.897308179792236 -0.7734474805081389 1.854822874017367 -0.3614559668262162
Ni 4.9496323857561375 3.133842298765062 5.3194339248969555 0.6338283513201988 -1.0080043368162446 -1.0173688087502801
Ni 0.5883572538732883 7.418314980303149 6.955425198444178 1.2818407074502631 -0.32548391960698136 -0.36437262625237893
Ni 5.516799690602283 4.295387946023681 7.363486418180506 -1.2754929108553645 0.6453260675471532 -0.4112749472308724
Ni 8.269814490623125 7.192179372011855 9.355814349325223 0.5784871555457327 0.07372715448082141 -1.1773549316303464
Ni 4.788688943158096 0.31332616030650806 10.441835984116072 -0.12199061747289959 -0.8410127291526226 0.1617198177417215
Ni 8.153176315259623 6.9745455117031065 4.676931333685533 0.5415344895807834 1.2153689489802746 0.6572935243216745
Ni 7.288774472355679 5.920954824419202 6.885852409564189 1.4562957133704661 0.2411748758452556 0.9360669272459944
Ni 2.236268213999667 5.250804766529436 2.608908810711176 0.15081654056565638 0.6247132763928079 -0.6390037248735512
Ni 2.4854320361433584 5.1754504260865035 11.355884587357352 -0.5352723107211556 0.054726702118918655 1.7764152833417404
Ni 1.2121024666382714 3.3737875766715444 3.682991704845214 -2.3378470260670836 -0.8850788662339014 -0.6653107381991961
Ni 3.6596441083578264 2.7577420259535055 2.5120587486615795 -0.9875928630394282 -0.7976158502242263 0.285019898054664
Ni 1.2765233958549862 3.6166181863373104 8.292049691910236 -0.019437539899321364 -0.5572056204591371 -0.30913761703847403
Ni 3.791325931698979 2.604202453530231 7.335387097660613 -1.237428242773159 -0.27137788179119715 -0.0632275405010782
Ni 4.070377435651101 7.043194631485312 5.949334512081744 0.798165294969793 1.0387017659001017 0.6051001301475708
Ni 0.6830505757996719 7.6046366396644505 11.478297055587547 0.4068917305615121 -0.3500819206613196 -0.4061520241820102
P 0.22900188597292193 5.630017205358081 8.020092656205232 -1.2472089763090068 -1.1861992693948538 0.18171348725482897
P 8.657555897545251 1.8064808090507443 7.896258390847113 -0.4837245205508508 -0.6874422799909129 1.4345346675442907
P 2.024450384061046 3.1146430471844186 10.411491911780937 -2.206312473659491 1.2967207098858893 -0.511857531341641
P 4.1925775870159905 6.215331250828652 3.94573201098707 -1.6705146294521682 -0.8296019162125196 -0.16401838396791107
P 6.845930487527482 3.8947079130363385 10.420189644562225 0.43134266451502484 0.9444469237795734 -0.33214281968439574
P 6.3021180378649735 7.712900094229781 10.158219667559875 -0.6844322895199955 0.09533779077206161 -0.9087013907488478
P 2.3422542526166312 8.58839866902556 5.892961662331962 0.5764534129451556 -1.1506961913922378 0.5081962804399699
P 6.810290288941108 3.7431735554520627 1.5930306797929563 -0.4602428924891428 2.3666490379004403 -1.8153371572179187
Ni 5.298884555813854 2.95948841484557 0.20135078994645167 0.4733064105413203 -0.8551455690095787 -0.08564318919211701
Ni 1.4505960052947995 1.001337147655867 7.24483213993363 0.276544256483485 0.6118017105374625 -0.2807827200448648
Ni 7.024312947865596 0.804366980896152 9.25421074856906 -0.9040122128032948 -0.7150289313599298 -0.7257689434852533
Ni 2.8950402655179186 1.4212980925566627 9.490896871859395 -0.28813067576950374 -0.3485991654682061 -1.0902166459499418
Ni 6.073750380476875 1.960483123359942 2.4194722633216923 0.47181568492840675 -0.36467370243256547 1.7220379941424409
Ni 3.964790625327874 6.770213212272061 10.38421463861133 1.0768448526287262 0.8028704137549463 -0.4189224364738011
Ni 7.9418030804663005 7.333850976066755 0.26039665459021133 0.6180991135104 0.2830463192680609 0.6703992084656971
Ni 7.802209278212898 3.7694954027277934 8.28264786559272 0.24996522044337594 1.1713912578477441 -0.059299666201581745
Ni 2.975657160741934 8.319182698491877 12.314526083672067 0.8589639143144046 0.40030610692419444 -0.07244700221681716
Ni 9.347476829345332 4.74520935262197 10.321255429351911 -0.7151675138203233 0.6785676032091024 0.32678309803437916
Ni 8.895858895425222 2.5122982856378218 5.748186058293254 -0.5550183829998312 -0.3210765345679051 -0.4029078062130997
Ni 3.6294932988103414 2.6915245694149728 11.604442308364188 1.6299187103076769 -0.21145189485952615 0.3380933808408758
Ni 1.0065180421041409 3.3878331539148507 12.481971503435842 -0.24434633159470176 0.9472216583112333 0.6004924561722303
Ni 3.1233444093138307 8.43958632253495 8.11419348705023 1.2260397984305595 -0.5947758654034273 -0.9101023848614326
Ni 5.698630031659038 7.802617579876947 3.5393439207363144 -0.22482857327674827 0.9141850395712385 0.7884784066993323
Ni 2.872674407698313 8.481450853155502 3.6343874747567493 1.4005709090043363 -0.37121741708835426 -0.024429850907590183
Ni 3.5258209696229916 4.463236223429315 9.395427776771315 0.7067880315073762 -0.0859460651445165 -0.9818626454238704
Ni 7.37126048186401 6.3159821477020355 11.430516687523431 0.6000612821720827 -2.357527535215146 0.24483612674692676
Ni 0.5977137133392428 -0.027813509355058847 0.18235931854595788 -0.12387009388379958 0.20418904264952575 0.834715326179685
Ni 4.651354410112435 0.2777131818310706 1.7088304757396104 -1.24768694438669 -0.5274746690536076 -0.02451469731191262
Ni 6.019065177605166 5.732029107778296 0.4656626038263831 -0.3317031610438158 -1.6492225528426112 -0.0893175527199107
Ni 7.5954271687975545 8.734997113159991 11.486305212225107 1.5752922812120485 1.571802265780919 -0.09955568550815112
Ni 0.2811347497758062 5.035430175428427 5.772992652726845 -0.3972508650376384 -1.115938219085762 0.25777057542040765
Ni 7.813750605250032 8.9867740659536 2.5192430432747903 -0.35873933922600154 -0.629653908227535 -0.7226882476774006
P 8.645715149287813 1.465213204867775 3.6812650424748 0.34646926360939684 1.8896628645146876 -0.5445807326062749
P 1.5706729880066312 3.203716323539417 1.4204869332507506 0.7140706812117186 0.22139486500485098 0.45586610357768587
P 5.035030947134689 0.919558861031888 8.201202571659199 -0.737897094207355 -0.0781399388365364 0.16925906354156012
P 8.541307877105172 1.7000773953994184 12.37946419499658 -0.8313029580640263 -0.9497076579578804 0.23847830284969895
P 6.119997348958227 7.668794441142111 1.352135420014785 0.688710090959743 1.2535881403624731 0.8009515994656786
P 1.8811637200905726 3.2083528157689583 5.991896784879305 0.48503758293531957 0.6558447076902899 0.9959962566117749
P 6.971161144576651 3.819607626962148 5.776073061947842 0.9833173755925259 1.2183961658423725 -0.2999101849029351
P 2.363640186442518 8.332656653405515 10.133665312820964 -0.8012619316172459 1.5698238018983093 0.9817770276885994
