# total energy = -340854.39400667575 ev
CRYSTAL
PRIMVEC
9.43430788288286 0.00000000000000 0.00000000000000

0.00000000000000 9.43430788288286 0.00000000000000

0.00000000000000 0.00000000000000 13.80806322105401

PRIMCOORD
 96 1
Ni 1.4575156460589294 1.0940589381314758 12.12640639709198 -1.2772644009334906 -0.8122605967205947 2.4785259639781057
Ni 9.236489232333055 1.7250254436782144 7.793546761530076 -0.6001026769329795 -0.46749134652144003 0.7349842914359341
Ni 2.4612410870221932 9.139561154013867 6.247927888666441 -1.1757119967102847 0.028337927712744744 1.545073848647139
Ni 4.911887446386955 1.6785709120796477 10.352898989069356 -0.033118894041155866 0.6639740216656436 -0.06301722426248502
Ni 8.425836900460908 4.314233481675825 1.1144276086678904 -0.4773021619642748 -1.6568577007903658 1.8174243787642503
Ni 2.404748451926292 8.3666932248737 3.0642443042549283 1.648365861269271 -1.6111481145683928 1.1715244409914984
Ni 1.709251281039546 6.858968192712502 6.8969337341542065 -0.5085040414883758 -0.7726308981441145 -0.5783609143805136
Ni 8.504490724574891 7.1645076850665195 11.12088938107783 0.8664357972114175 0.018878067851425553 -0.6478868862957938
Ni 5.821515101370506 5.308298191453685 7.275289100956651 -0.8822619656103968 0.7797682805198443 -1.080787639326558
Ni 8.52231213200578 3.149983293525395 6.056782208658503 -0.9881335660342465 -1.3376814685689673 -0.704719836124438
Ni 4.4408230237127 1.561019436913494 3.363354315844441 -1.2843570461142138 0.518047719312753 1.1228094922842986
Ni 6.432641257617532 3.1162933803778556 11.634052515440201 -0.18225110492585386 -0.5952502339366845 0.6206959277032988
Ni 8.522519686777342 2.1760796995123886 12.066493825419213 0.3221026618395743 -0.5483355716630169 -0.40767463147412364
Ni 3.5947448660581385 6.139489011402612 1.463447938802467 -0.9724326103592221 -2.542933126609582 0.24575195369297673
Ni 6.335732047913942 8.559851242735002 13.678653814614664 -0.22219190698484959 -0.7398529323821452 1.1933579919268222
Ni 1.2821601670129181 3.0773485577866935 13.699531937772186 -0.17420226647944836 -0.5553359142402501 0.40300576524354464
Ni 1.223252349120666 5.777928599342607 11.03290502655138 0.951990026234154 1.0862790014584325 0.14477239125410551
Ni 6.267805031766566 6.97864238713326 5.224749848453972 -0.3045425414686239 1.5182055635013851 1.534324837660751
Ni 1.9972240922732278 2.695815716117799 7.911067103480496 1.3986037579756365 0.9198414665260674 1.2481592560374182
Ni 6.415980270045829 2.1120962240246794 2.5188526310229666 1.1066269689871653 -0.09836886428890156 -1.2787517841122944
Ni 1.643975305383477 2.3793135581022185 1.956657512171547 0.3442339465209749 -0.403700220207408 1.9286243333795494
Ni 3.392435569632536 0.3025676853975696 1.7514150894514702 0.5821779741337586 2.668562883496965 -0.8053975510521743
Ni 5.8541295034290455 4.887367680419312 10.336329514283296 -0.22794192209474937 1.1233872191646395 -1.4078810695125044
Ni 3.912794250552631 8.047596632213603 0.46928322536194655 1.3805828959181836 -0.1043523355658461 -2.412536287350858
P 2.100369379431459 4.999985012606983 8.09958910248974 -0.2879962070741685 -1.1676215063926665 0.5362840398151215
P 6.163291769977589 9.249914252329958 1.9800347834648224 -0.5165369390951815 0.5724723168102206 0.46761553080413015
P 0.5356582978765111 4.1661242835511505 3.309889150120997 2.044544576288653 -1.6931490790222326 -1.2239371502652598
P 9.09085182285152 1.5655007331176611 1.1258544422731267 0.6638881468200566 0.8240650455546905 0.6354998254853508
P 4.528939458548323 6.68350893628071 12.529077748813625 -1.1159747287506523 0.22853456137342576 0.108591056237542
P 3.0523948136603307 0.2128587394056015 8.341230028126231 -0.20494880363368573 0.2585714740551482 -0.14731418383935274
P 0.4746853100072226 8.12067478041882 2.864800207107654 -3.5844260821015754 -0.8925286376437275 -1.616870875984783
P 7.013002136134475 0.25823775991516806 11.586263029288183 0.05056280054921614 1.4411699134726212 1.066511846133834
Ni 2.718873164376714 0.5295363755462288 10.471109922350607 0.2428208960891108 1.5009208082790086 -1.3958467640557897
Ni 7.451216299055235 6.294919232378727 8.85263932466891 -0.28296275841531915 -1.7659004998533456 -0.18328443128637467
Ni 4.845149153022158 7.484000518654143 2.572290437253795 2.1661279310208053 2.5465092739966146 0.972316653606648
Ni 6.975047915862129 8.887287763488752 4.115672435738467 0.03463584490631454 1.2696904452409745 -0.19555733511645676
Ni 0.38411972886717366 1.042292891242496 3.4753791735023816 -0.30241803892645336 -1.1415260948571955 0.5888859822815536
Ni 7.506803240602506 0.5523051339865175 9.498897899725828 -0.5549062829019992 0.0015591169570037665 0.7224067118812397
Ni 3.4297576912824 6.350723163005356 10.367328762846775 3.7292051582239005 -3.0604604546424903 2.072725666708559
Ni 6.2019913005659975 5.276127201861663 1.6663157462497253 -0.6495200510238427 1.349314167711889 1.18436787261307
Ni 1.6027568146129374 8.421431078719127 0.26907211899067457 -1.1539398951405158 0.1929018997714807 3.3571302782312564
Ni 4.198748119917488 9.053482529662665 4.763284833964432 3.9864399157454957 -1.4926665386900164 -0.5972232985026553
Ni 4.842064134372132 0.2090321841626326 12.1232864715031 -0.9859447859130439 0.3995576587939441 0.7252873758631444
Ni 7.684913537525605 7.020143907137748 2.758312344696504 0.6814207563871814 0.6424412898001903 -0.9248085807233557
Ni 6.211604860212411 7.708291752249661 11.559171471014738 -0.4933386466018472 -0.9772282319756525 -1.7009914578847867
Ni 6.354261028429699 1.577548344176022 0.0561756423538801 -0.1428857157543539 -0.7058745185541714 -0.7537237768269665
Ni 3.033535632371636 3.010525355651712 11.661212944160573 -0.7936787199533493 -1.0677554887329483 0.6486872707099022
Ni 8.189865993811162 3.2601005341465297 3.533206763151735 -0.6873463778429969 -1.0766751598200812 0.3468243329559705
Ni 5.908942831736859 1.477346561050844 8.268433965724181 -0.34926353852508235 0.8053859810879486 -1.6916102737802028
Ni 8.551690566489519 9.084030818313387 0.1687722190643947 -0.29497495238484683 0.30072059661937245 1.2060456146968197
Ni 6.780767215372835 5.570864411786688 12.449087083284631 -0.47782332457506743 -0.6072236042484769 0.14852157388389262
Ni 7.928554536415326 8.712319091062467 7.362182849501623 -1.6780636454440196 -0.11579143064072317 -0.4400633322174744
Ni 4.408897326123433 8.600022525339938 9.910571467948559 1.4623136374297718 0.20224991664528394 -0.43505405192834107
Ni 2.1775986230679063 7.7875965436017225 9.714137858419706 -3.704207093517666 2.2986238189004027 -1.96766756332494
Ni 2.635822952828748 8.263321514328311 12.188184131416458 1.0212077228803962 -0.9075649631515597 -2.103304567936681
Ni 0.7853683869728441 4.553695082210923 5.617714240882002 1.8040273886320546 -0.5642944089851185 1.5483064966518238
P 2.571311156104337 0.6886544674406777 4.377901851283074 -2.020748759420636 3.5094198037980138 -1.5218794128085467
P 5.5869404722749 7.091476708400292 9.044046335002857 -1.2886109362945612 -0.49721201351432437 -0.3837320046155972
P 4.309855962857439 3.5910937889402166 7.530738079486658 1.1904680719735368 0.482033506001673 0.025315338836337044
P 8.970309672113322 0.3480202935079625 5.6548986216380115 0.07320984852477068 1.4834553045043934 0.8241318942368838
P 7.580938031281128 6.671008478448033 0.3511166333273471 0.22413103298909143 0.22621362654973298 1.2439611587956705
P 3.2959603380876654 1.1571367200705531 13.502269996018644 -0.7140999917877573 -1.428836588718249 -1.176846367425044
P 3.754014850308139 7.345778475102031 5.947671608679441 0.6731420613181568 -1.0172153138915514 0.5843729249025484
P 5.187708869176495 3.6986165949168344 3.4645117943495816 0.011770767382682954 0.8338054127709059 0.7960423350895194
Ni 0.7098203369860442 8.723913855346513 7.86913254874807 1.7236523898174119 1.9662177182522913 -1.199690104792437
Ni 9.011065881801748 5.3007224422916925 13.071513653412397 0.6786881879473666 1.8546069013518192 -0.8679272941552796
Ni 0.24217019030397413 0.35517904626527214 9.853543907600498 0.7701161021420608 -1.2794542094959578 1.5760078192218343
Ni 1.246356968918572 2.2000617099355315 5.921753678296098 0.32505634515125953 -1.8267335719803186 -2.1490213532475058
Ni 2.806432975052241 4.0932348215018965 3.5295066276332623 -0.7619999007928295 -0.5114703232055514 -3.310470412280873
Ni 6.188924784265425 3.4469847373219986 5.487890618131889 -0.7808221757056553 -0.868812267863394 0.1286091512306817
Ni 0.17972356355659946 5.947548019247284 4.131289988867684 -2.0984978905766565 1.700940035821561 -1.1982754838330976
Ni 4.624895803164291 5.874403830887477 4.149819912814221 1.695481840920467 -1.379358279482463 -1.0644050842034765
Ni 4.55592157885131 4.51060859849633 12.389933973389624 0.19667267966782256 0.7570890937547735 0.36517429621806785
Ni 3.7326178402217156 3.8276590569812523 9.562111535697198 -0.4259145515209181 0.5018916783781808 0.08411004037704224
Ni 3.7835914052556423 2.9694295108825495 0.5728907936022917 1.4534896113802387 0.5535574821835887 0.5298441977270488
Ni 0.6222822252184527 5.936481576199941 1.7592578295241523 0.6025645082099106 0.6943354075663203 -0.4637588760622013
Ni 4.090876244552335 1.793471346754494 6.516425458312201 -0.3070786776269163 -1.1524003185675378 -0.6210060027445499
Ni 8.857796117311432 4.5959324782236735 10.547206105620484 -3.1841467146502582 -0.8282664852305476 -1.0337649907201163
Ni 0.27797904898299924 7.907412252639455 4.970143353610348 0.32283568335085694 2.10833338860984 1.410325417287939
Ni 3.772874031596834 6.252993168523318 7.8898031171340275 0.8740143808896239 0.7514833175322219 0.642420463864584
Ni 5.058515458187305 8.866720972488572 7.31457261519777 -0.005315241565326329 -0.9278136860982666 -0.18527369380226155
Ni 2.0106302436545365 5.9631146271143916 13.344015143287734 0.35803639962170597 -0.4066425906651836 0.07634967970533302
Ni 7.038559675959926 3.698861886919589 8.242295272538358 -1.1358699250126825 -0.2324333822071997 -0.3432371298253444
Ni 9.399183870313818 4.8447340434790345 8.1223031419448 1.9283335416120078 -0.09816497580821158 1.766834581631841
Ni 1.1497685256801224 2.3662942133406384 10.205511515491246 -0.6621583086131435 2.312497234448385 -0.610357264781452
Ni 7.114987003433522 5.249597928332993 4.166030883903948 0.215040640652049 -0.8178889986509655 -0.12004532082107068
Ni 2.536045713554491 6.156470765439456 4.655526170292858 -2.272577515435312 1.044383389665911 0.11262948797297377
Ni 3.594971289445296 4.1937762397078115 5.469470132155812 1.0601056854971742 -0.7252953462829443 3.3451715632074843
P 0.6430971385137243 3.8462918148827896 12.0122276869637 1.4902795265150786 -0.5265809535947448 -2.6579203161814546
P 6.588496022444567 0.7186055644077715 6.010166350396586 -0.9871578323845385 0.057471354743591344 0.45448130741501724
P 7.938281307755318 5.019561201288345 6.785089071775213 -2.1863398871923057 1.2339875925227264 -3.1438014780639922
P 8.103759066536565 2.707287834400467 9.554116903268964 1.8013107610318395 -1.8509389655819284 2.3338859845368063
P 2.3106601002543776 4.442209866959042 1.2489419692552917 -0.4271468812661224 0.6104379974207164 0.1522455597026991
P 0.295974047677375 8.423534929358137 12.43301479651954 1.2596749699865015 -0.19791606515662044 -2.1023933689763212
P 6.412668828008645 3.5898956318498394 0.5451143045826937 -0.34416864050067825 -0.9643963703183068 -1.4102246300440164
P -0.253637591432743 7.269662479785777 8.850871335387518 1.7577390470884762 0.17816073690656412 1.3513450820989887
