# total energy = -340893.3126089849 ev
CRYSTAL
PRIMVEC
9.05051817534129 0.00000000000000 0.00000000000000

0.00000000000000 9.05051817534129 0.00000000000000

0.00000000000000 0.00000000000000 13.24634819001284

PRIMCOORD
 96 1
Ni 6.631016108632081 2.0653011299014628 11.57317563136101 -0.9822979331890759 -0.4509434694650879 -1.1297370726420672
Ni 4.572249452960292 0.35399925855566394 5.951001794177472 -0.4449366011493756 -0.4685884362403607 0.4911596366726573
Ni 2.6493491783631042 1.48658383673245 4.977646605075952 0.05643031507358668 -0.05445570784571912 -1.1709654831642349
Ni 3.577217367421803 4.250394920334728 4.83788397586302 -1.3553081805117948 0.02164200374980789 0.7971566511996208
Ni 5.107388500400941 4.512633688762424 2.5756861046751025 -0.3376010145854895 0.4523994851853241 0.15992904438988587
Ni 7.260045233162253 6.151058071410714 2.571950955762933 -0.06347076686013585 -0.9213388770072003 0.0217715873491367
Ni 5.0872510971308245 4.496243200078298 11.081895395716758 -0.02877630080174399 1.574873705617391 2.145148243445344
Ni 5.701536927311773 7.671689958076726 12.48967727445704 -1.5261160765977138 1.6214402405230204 -0.754202773345914
Ni 2.036248966082553 6.533261460218361 0.45276665996980026 -0.245076524892507 -0.8161429624941363 -0.9874499097036606
Ni 2.582221483956608 1.5700567672314538 0.37696042354275844 0.6224836157313409 0.01586550627734687 0.5504626453083488
Ni 0.45936448782773953 9.13342107149244 4.767453747320225 0.10595104751153364 -0.7011295476700183 0.41451530854504093
Ni 8.633524742404076 2.44827381276662 1.3682157277847893 0.19359146963933754 -0.9219628837444445 0.7513768738613447
Ni 6.721141170098966 0.38539098136123645 4.823976044355071 0.12054617171688918 0.7729561426940171 -0.7037207054359622
Ni 0.7895943701100072 7.179586125265023 2.370433924872255 -0.17129023503897595 0.37354786499374376 0.12132290198191364
Ni 7.222892855443678 3.9311559875046984 3.7468620929839225 2.0185766914699816 -0.16323522594498338 -0.24831688620667558
Ni 7.658503352879172 3.903796270612311 12.664502516707614 0.4027000610776677 0.8080730410018083 -0.010424537767433661
Ni 7.694660173582145 8.9295309946973 7.024432184590896 0.013762858112047265 -1.0719335313700378 -1.0472275439829253
Ni 6.983913919107757 0.6415550418900998 0.3998808611973966 -0.7464614388375983 -0.3769995709877701 -0.1404231131464743
Ni 1.8397531627578354 6.58627939655829 9.257965254144157 0.08822149144225452 0.3216933422162976 -0.43932542561018534
Ni 8.999310490972626 4.848570827899583 1.416550925944063 0.5682773048922665 0.19017935863399504 -0.6154393072900498
Ni 6.348947654557273 2.105177713635455 6.904023183761253 0.05249601301618701 -0.6392104415677186 0.661667485019654
Ni 3.3861609256095972 4.240701815210102 0.6937738174620506 0.007312217390697083 0.056808781458927975 -0.8105770383705847
Ni 5.735575926727012 5.481147755612625 4.937748300097983 0.20310326578451474 1.171331865364718 0.04889518303880611
Ni 5.356965593693853 3.088969055415974 9.406762110747753 1.661770821821267 -2.424437923884451 -1.060322943714303
P 0.3109739994968746 5.743323170412054 12.573380993173297 -0.5060172705107802 -1.0306557556671734 -0.32366589256163614
P 3.9831693163107023 5.9538020245468095 12.529999143692557 1.0167334891591264 0.3187771970107671 0.39243621725781447
P 2.3463830774789933 8.5127093733017 1.2289110547990345 -0.3077253100719797 0.5930105459728884 0.5009946204852082
P 6.047013312762058 7.588714806085523 5.892956294908758 0.332323311126318 0.18234623574282144 -0.14233215724372908
P 4.755866368710459 0.9813477018331337 12.615425176045802 0.3084531893769397 -0.26717387101217854 0.0736245674646861
P 4.056369908512366 6.148107602437204 8.466271163783064 0.002491141852969903 0.7214307211212156 -1.5835959159817372
P 4.505366122548535 1.0134770418820835 3.702328112520581 0.9321076854879302 -0.3247023042459505 0.7130376119615139
P 0.07857569503407805 5.375184287079357 3.5481932602096964 0.154852658308243 0.7379076357303163 0.9118142253462167
Ni 1.5687987451844667 1.058358562249053 2.687644636545955 -0.5581528148637548 -0.12386289479494796 -0.7811908718989836
Ni 1.4775966720370675 6.660629404587057 4.690836584451385 1.48871475313112 0.09855141261335286 0.16572122559163072
Ni 6.108221968184888 5.763026148802637 9.284352040316753 0.3578443382155579 0.1163421609378706 0.16876052663858676
Ni 8.76190634482502 2.229721896287173 10.131589161630073 -0.3198555176766104 1.0851677706721246 -0.04722653708713157
Ni 2.298922159389784 5.392208312046138 7.063297825428137 -1.2281589016560914 -1.3772414902497765 0.39258765523401423
Ni 0.5449226577485119 9.107898609819753 9.07429132012855 -0.1783458563341767 -0.19669967625101606 0.08498498678282784
Ni 1.5865920642087583 1.207076679343234 11.432459982568599 -0.6115458857729146 0.3541522340759513 0.10538694747794754
Ni 4.178470451216699 6.625015614983503 1.4920159578303034 0.27420866637177294 0.3844992217989249 0.5032803311955912
Ni 5.6217837598437885 8.014623147878066 8.104340936020387 -0.11194146076701368 -1.2582552068208392 -0.29148956493940764
Ni 5.418672027624484 2.8850970796574824 4.780925443844975 -0.45061848202550137 -1.285896622687192 0.07469337504883264
Ni 0.5657189387525899 7.55369835069133 6.914103651070132 0.8602610358592733 0.058741479705266574 0.10134363064650932
Ni 5.434917708015432 4.399701321119946 7.349166592147045 -0.5599243049418808 0.6097278587275692 -0.7527822388493036
Ni 8.18728893645662 7.247193497142673 9.29655213901703 0.18784479696354744 0.020246923174494162 -0.4099523717647069
Ni 4.889008543769642 0.6563064817058133 10.315766304464475 -1.0461517944202436 -1.0886385028295444 1.487616892081251
Ni 8.046263759937538 7.219725174030402 4.827949221899153 -0.5041835597361511 -0.7149093750629301 -0.24120187242844915
Ni 7.38746748064089 6.242676468401 7.08123323759011 -1.2841678129215433 -0.21415232450982474 -0.5152035649957386
Ni 2.2814094064335255 5.027309514273305 2.794118554312678 -0.5059195685906513 0.5868470974746539 -0.5068243397931077
Ni 2.2864233935848266 5.356476865704376 11.356994950682358 0.13457436767518113 -0.3081456854388499 0.37982572758265554
Ni 1.0565665596209708 3.162368759020757 3.877934414502487 -0.905222431061312 0.3903891049207986 0.24650425847796903
Ni 3.572674007223332 2.7097613881734537 2.710626617725194 -0.01214537711328231 -0.34498008065838004 0.06317071912121378
Ni 1.148872796003855 3.1319952195265954 8.334390630978197 0.005251221096610312 1.2523691803537076 -0.9345556328077905
Ni 3.5805389076465817 2.720440999795358 6.9815942712614065 0.6889890556527425 0.056301502805206266 0.4519477423598861
Ni 3.889233986629562 6.712353116806704 6.185992167088162 0.9584460662721428 1.364185942617399 -0.680696476626647
Ni 0.8392011660937534 7.536366608101544 11.468754371150093 -0.33503376807894564 -0.7891402086530472 0.35235966095190285
P 0.16090282991330815 5.722760392780727 7.9988209428849775 1.4741383979788418 -0.7606865812980448 0.8605253452642535
P 8.584317074278403 1.5306779620052622 7.902069091901517 -0.20077127521722843 2.164701997207556 -0.15675373198569778
P 1.9912769405323472 3.3672362917948497 10.510367834304052 -1.3557388402913102 0.2688065215195951 -0.4656473513341658
P 3.792058571388555 6.179838719679913 3.86541664260905 0.5073750700902553 -0.23376958452011998 -0.13212822012753372
P 7.181803502254317 3.922938116866826 10.400927156630837 -0.33652243680933014 0.8307236885217887 -0.40510532808505073
P 6.525179347355343 7.933268038666796 10.461356562426001 -1.5531591967584348 0.01721353566480906 -0.8788925349175315
P 2.2944693043745494 8.433408731749898 5.795250519293985 0.8970041569165778 0.10136445658211575 0.43314243672792496
P 6.911754136513313 3.866200417495878 1.60749695143272 -0.28094109999960004 0.5972258696058166 -1.1175297319425979
Ni 5.442855012585271 2.8036243137080055 0.38092545562034863 -0.7379881112592644 0.35794923922453836 0.05773849236204895
Ni 1.6326411014394784 1.0080557814062183 7.151597397349143 -0.39722566822665784 0.3928555641834202 -0.7292579304751182
Ni 6.848644872242517 0.6568965755005152 9.08752498802139 1.3419273883295146 1.3150866139875867 0.8330783047968944
Ni 2.7532581792369046 1.7928262252497214 9.331098872510225 1.2701180196966964 -1.9766340284896085 -0.6620739764294532
Ni 6.4407742134690045 1.7749061989688988 2.5478820073330235 -0.06527748105157144 0.15356890649981295 0.41992156716227674
Ni 4.081231682347426 7.038289433196233 10.442056332100824 0.3686054333868039 0.6206771586502213 0.46045475138963277
Ni 8.143755943319874 7.337381912237824 0.4245199922816954 -0.18494639236982985 -1.0384107170222439 0.019230823205153975
Ni 7.931385530855477 3.8557018162404466 7.94154383262194 -0.3185997908926384 -0.196425596654023 0.7612951614163211
Ni 3.081330417950815 8.477041280588205 12.347716274343293 0.7026259297098867 -0.19519018158502513 0.0795771855036952
Ni 0.13757330883044114 5.059764672981906 10.182560775777025 -0.5733272086113481 -1.2838929619936017 0.07241563475824947
Ni 8.401994382648516 2.19185452762103 5.539252083250444 0.5357680194106514 0.3571149162487011 0.3281668657557832
Ni 3.6980327365241776 2.64817261098103 11.58226235175795 0.46627804293962927 0.029182277990911033 0.636636253082639
Ni 1.015386701248373 3.3914464283106076 12.530449859505074 0.8415464901689055 1.0264491737849937 0.47912353144372966
Ni 3.286505668347911 8.440051812199455 8.171261373557272 -0.7756791980521351 -0.05057925560944837 0.13924014858196665
Ni 5.6120273010908965 7.631324646353257 3.5107458355937715 -1.0659467176589836 0.30454048458609484 0.652016077972819
Ni 3.0739632960353656 8.200747057203884 3.298698526633529 -0.17643552668534132 0.2870991491811959 1.0231296224934572
Ni 3.4833272903322805 4.219025823824965 9.050567196446773 -1.3976280243259285 0.38743850693290693 0.26266441317759925
Ni 7.405559466769861 6.239825555129051 11.518905103285087 0.6078172719684177 -0.8185544001491064 -0.53152235676042
Ni 0.38596206906745856 9.173152846933252 0.16120692732898267 1.4880624642591016 0.1177801789359778 0.9248247786732717
Ni 4.659713662040025 0.18175703423465744 1.622068285933793 -0.7831189421596318 0.6926415648036652 -0.8532488662074983
Ni 6.115797252021782 5.628897467246175 0.1825960172832596 -0.8010130488312335 -1.4218254475077385 1.3792852601526826
Ni 8.200059217811287 9.077036342336115 11.202582247458936 -0.4118992110784325 0.26127781724271776 0.3572002768736558
Ni 0.11291698176132736 4.9377093828691905 5.82628746178127 0.01816150140037517 -1.0177619304236407 -0.26536124328347205
Ni 7.911610148318307 8.518610311248718 2.6535486188652766 -0.4579520395724372 0.2667169859804181 -0.40115148564362524
P 8.468741955285418 1.3395129139731727 3.4004173020730075 -0.2923156603851288 1.5032659114724174 0.5864004968555385
P 1.6372387647478917 3.1736366543336993 1.68962497490883 1.02714542852107 -0.13237324625880428 -0.8367439265739396
P 4.808802850385476 1.155171956757114 8.213345378710402 -0.6135752574981175 0.32220936262076766 -0.7875407253764115
P 8.580642563839001 1.8432738143857343 12.471132762411884 -0.192350655253701 -0.8517977355832684 -0.39852433243342333
P 6.179793467088294 7.7195219474172045 1.3812629550001603 1.1668221504198228 -0.48693968505403884 0.18107379678830107
P 1.7132902702215043 3.2467014887605083 6.02867786769018 0.2505028381144008 0.3793711565437402 0.15791124262890868
P 7.109517012403342 4.0348206243837605 5.903526395258946 -1.0568059316999798 -0.09727228879061312 0.8887586290783339
P 2.1965064940393852 8.595385858188223 10.231651692216323 2.5734444078245615 -0.17011961176964252 -0.3769761739490024
