# total energy = -340896.53079772013 ev
CRYSTAL
PRIMVEC
9.01642706728983 0.00000000000000 0.00000000000000
0.00000000000000 9.01642706728983 0.00000000000000
0.00000000000000 0.00000000000000 13.19645240740010
PRIMCOORD
 96 1
Ni 6.385623045768697 1.9330318146205083 11.524871105503118 0.06442258925044389 0.7621852773307584 -0.17950670941149732
Ni 4.743064447901836 0.4341175240974834 5.964281798929096 -0.15214862911351862 -0.46501820239059916 -0.44417658305489954
Ni 2.901369040213114 1.7293687583741906 4.7728529198881375 -0.30963306861765383 -0.7415897125675938 -0.15044912992390863
Ni 3.445077629630745 4.341680160894693 4.733527772915483 0.017652422974440564 -0.9524769931729017 0.21653368025780773
Ni 5.1434569279235385 4.699343792698259 2.53294069604668 -0.45312145095301315 -0.02526777342785326 0.7244301700691717
Ni 7.252074644675302 6.201399406436983 2.5439199993754893 0.29350788092101704 -0.4426066674646184 0.06641056621475014
Ni 5.027298297074357 4.411656651930981 11.411961994995321 -0.15107287955083656 1.1140338029741974 0.626692768716682
Ni 5.643021090061996 7.6633679851096925 12.312514622989458 -0.5365681467144436 0.46332255985573106 0.9677092367416237
Ni 1.7986059023849694 6.424664175286431 0.3178606141924721 0.6631664381626837 -0.22874770582549633 -0.32692990802488864
Ni 2.5328856958411237 1.3757535023566445 0.38479045449803434 1.605287799132874 0.8366986751583009 -0.49835692575204493
Ni 0.6839528020868402 8.752254841568833 4.164959090586468 -0.4011237177294834 -0.05598448578541971 0.7788097732613167
Ni 8.516069532627258 2.1790991277079113 1.5497651363091938 1.6468756498769894 0.41745433656870684 -0.7504561618192882
Ni 7.321032279444729 0.5801692174877946 5.00872716209337 -1.3035852982162066 -0.13450906165488447 -0.8460109536981623
Ni 0.564694323586805 7.320130636730695 2.1249590893009414 0.5712381872928033 -0.7592418784317182 1.0408226688978461
Ni 7.39564321403116 3.962945138864121 3.7204889048464302 1.052289017666233 -0.3871978516770106 0.4613980891395086
Ni 7.683240190527033 3.9949083730766763 12.487208800476532 0.33816819994286923 -0.8065846293817399 -0.029971092440793545
Ni 7.695448432875073 8.647375761072233 7.190153429646206 0.30565480069619616 -0.043610537601099085 0.088686346893815
Ni 6.913760265514937 0.6607914040486987 0.3143856831725796 -1.1461764491450133 -0.7688763161976887 0.9047760875525128
Ni 1.7200277398567838 6.344850762240016 9.166163847516641 1.447277569032256 1.0106728847873432 -0.044263597804065705
Ni 0.0970077396030694 4.648518192908083 1.4442990864057583 -0.0399135483654861 0.5341237989390091 0.190471178842801
Ni 6.525648159258396 2.035909248291948 6.979432314234419 -0.4476198044084936 -0.5586282118382766 0.9553139484010645
Ni 3.2734138733055436 4.252300318652364 0.35853281537989523 0.6215855293971037 0.5413606830070806 -0.3171671722111699
Ni 5.9815248141923085 5.709228714553616 4.721862319481293 -0.5588040752945085 0.28358316560813746 -0.052605542010857785
Ni 5.230501515536516 2.6519746655109206 9.415101089362818 -0.29177187206651684 0.43734953283073713 -0.8782132494623198
P 0.1981098387705736 5.69328767136947 12.312421753789913 -0.31307140487524143 -0.6956572117015374 -0.08727635392016582
P 3.9704468062448957 6.094960484045103 12.435914346475059 -0.3546021771291764 -0.3732537307920927 0.37499642451481224
P 2.50451099963043 8.292903944476354 1.4903017993185588 -1.5914228682253238 0.8786259115197061 -0.6086533947164678
P 6.13154914538066 7.724778870362645 5.828859571494547 0.7456695390639222 0.07490497683900647 0.19649681621159062
P 4.755299739531296 0.9640814719823586 12.619120932825341 -0.35322946515136583 -0.07137768041203836 1.103019711251881
P 3.9105687136058043 6.311165390443653 8.240419322092354 -0.7479526786711441 -0.8497318541931752 -0.34600440815783634
P 4.820939329113074 1.1250787950005208 3.779490600767479 -0.04914200894228956 -0.14881905051965338 0.1997117236044625
P 0.10380251909604021 5.625249712168358 3.63492301128447 0.38450127868145395 -0.2192266537089386 -0.6225887738506375
Ni 1.7152760827538172 1.1781224358672238 2.598565859345033 -0.3414597262099474 0.0725048520379461 -0.047361520003099074
Ni 1.858844652109675 6.225229823368939 4.799483839089887 -0.1742662869481644 1.6105909565133425 0.5678258191771446
Ni 5.787058513629153 5.423732565581445 9.082089271003696 0.631087555350268 0.292268094976645 0.46108544299509624
Ni 8.50518670506885 2.405131939689447 10.308646150183472 0.8592716753628106 -0.0756156297527859 -0.3945530064905011
Ni 2.3499333727361997 5.133971646571886 7.083750572962889 -0.3903153142600697 0.0683185818707404 -0.5956883499153676
Ni 0.6905952039611389 -0.023026151631036215 9.007027515060248 0.2089514970351756 0.13931111102921814 0.1411021414913699
Ni 1.42555122945282 1.0518203244851438 11.403687619808618 -0.16604801280343015 0.7144884854754275 -0.046349790909133076
Ni 4.053506133061838 6.708447203101935 1.4235279432025247 0.6448010482816185 0.48411172868694047 0.2818852090804242
Ni 5.415040729818143 7.959846142338816 8.21892235650432 0.3333414679781872 -0.4363727707397646 -0.35828451107677006
Ni 5.326950236656884 2.8820829025598966 5.010561103373718 -0.5096571812562126 -0.5409408218608426 -1.1074651486177443
Ni 0.8149200128713391 7.3703882016110285 7.036981463743158 -0.346361534386939 -0.02984639393747118 -0.47892324250746554
Ni 4.855859951427664 4.793917096973432 6.836672518393052 0.7667461572285633 -1.0013498076142044 0.5623066891311284
Ni 8.295500675492777 7.101626541411354 9.220942248965146 -1.4434008596856691 0.5241468902319554 -0.19337086898809924
Ni 4.711065147980719 0.39492491860379236 10.509734114838505 -0.5901861891502158 -0.8789069330952347 -0.5278351377168199
Ni 8.035412818202124 7.22147289096094 4.792358156720865 0.2969919828148756 -0.39251360746296915 0.20283278573194746
Ni 7.159989874290865 6.136968018092013 6.986439881407903 0.14796210183599678 -0.670057251745246 0.44084906134356333
Ni 2.299874169252954 5.261202449949422 2.6416391350799326 -0.28129565512554133 -0.4552714074164804 -1.0967145949694594
Ni 2.1795409326377886 5.281814002392271 11.265204315359918 0.3255443405312716 -0.026154289797864633 0.8255151477376557
Ni 1.0382055195032094 3.3170443642377174 3.693093392623178 -0.18930338378694492 0.9114370445124562 0.6107159336724515
Ni 3.841602062409236 2.729290528239457 2.568175090025756 -0.5020408023615354 -0.07013918001924695 0.3332381096311035
Ni 1.1849659040667526 3.288453273775654 8.304673086822659 -0.2643019487810222 0.6121436672579135 0.42889420297453235
Ni 3.7533222242780293 2.673424745677823 7.008054962191473 0.13406580346987879 0.48927861759986063 0.41399337460329994
Ni 4.100851391975836 6.79261555045714 6.017054045338874 -0.6125151916647192 1.9110621561260699 -0.4576666471215344
Ni 0.723752213127077 7.587738194256403 11.115107852754447 0.8966855972348945 -1.0870392766632246 0.971846655948765
P 0.12936228675351594 5.499551701404682 8.013849131053252 0.2864414609925389 -0.17448894448193175 -0.8966156632289075
P 8.560358222740676 1.554251710454234 8.089821546137875 -0.3635568152193029 0.7972234998818141 -0.7047136654768509
P 1.8092813521191489 3.2520178917014837 10.506091478273802 0.09822411118092116 -0.5140295992922953 -0.4290204441397515
P 3.9094326437861193 6.1993707103304025 3.831524401794462 0.5614062888040461 0.5412041028245583 -0.8926543645883143
P 6.770381041129026 3.830430709182337 10.380896584144557 1.3671540241067874 0.9300950259332756 -0.7023562209882679
P 6.389887815806085 7.779833174481647 10.27553692808138 -0.2794187498178026 -0.4864686589548912 -0.9601311672840497
P 2.1450621152530744 8.567787758704329 5.748744108138931 0.6677049494629855 -0.002779619627666181 -0.07186798978489559
P 6.975216232903589 3.9068809949053995 1.5186476429624038 0.3466500121616352 -0.7122742514329282 0.4106018324232477
Ni 5.234171201382641 2.88139765409723 0.55733331246942 0.09951789029168022 -0.29944301545852947 -0.8608914703544206
Ni 1.6725562509628196 1.335477122320683 7.040518608110318 -0.6773123906457627 -0.7778641215185957 -0.5839708043681233
Ni 6.844784597891228 0.6383891891757749 9.309635039459382 0.34206264990126894 0.9199080580979448 -0.8334477723211711
Ni 2.7671144400932417 1.5958625217069682 9.261943549743194 0.09463896493282412 -0.1955550211236116 0.20240186884211592
Ni 6.455067567603704 1.938784295136054 2.464331997007584 -0.9334418309183214 -0.2702712789905797 1.4947769001648
Ni 4.070204556125773 6.987604803794436 10.358132810543307 0.22240428010597182 -0.28627871016242956 -0.022641905769231974
Ni 8.02948000914377 7.1941170510171055 0.18782389868885765 -0.16467478660498736 0.19491944442214174 0.1131028280649665
Ni 7.794863558524617 3.807889641331452 8.225572873163046 -1.0878795131763328 -0.2061420526108385 -0.5716377367240671
Ni 3.121721503096227 8.281272753465297 12.500695572193074 0.48963188717422124 -0.17379114708395876 -0.6029545445594776
Ni -0.08012267649732834 4.9218241323864955 10.14460127479187 0.3775197051572982 -1.0953148864084556 0.579787105304079
Ni 8.652208566019464 2.4170787056504164 5.858776076746243 0.5328814418914758 0.5351398989083493 0.13229019962669475
Ni 3.7853846391891284 2.5045380489118507 11.419642187633475 -1.4862140981964533 -0.01684561080242905 0.44261309522252157
Ni 1.0563195216281807 3.3212009371494204 12.687953239257517 0.07454939327180064 -0.07041274539560777 -0.4769275522336755
Ni 3.014128478030382 8.457760298310587 7.85010810925628 -0.031034500708301396 -0.6114291576893922 0.32484731446424703
Ni 5.635961227611099 8.029389844872366 3.5176724911085917 -0.4774579708158486 -0.09780887802037348 0.7953023715997013
Ni 3.000306295224219 8.326300790604225 3.6035160906264747 1.1994913585180698 -0.477034767235501 0.918035266555264
Ni 3.443571886298306 4.380784405402409 9.298999262004621 -0.09297391852557536 -0.48922153910968 -0.1239135455272253
Ni 7.189545722456946 6.0585521512523535 11.303011997644852 -0.4069644927809765 -0.19188451425055986 -0.15707923364591656
Ni 0.5636610410365204 0.021918934378200736 0.3426539855430177 -0.1997765154041269 -0.2289906750742379 -0.03210279407181568
Ni 4.544198130894186 0.40016977427133626 1.714734195482682 -0.010813031455103959 -0.6135390049435434 -1.0207359254503001
Ni 6.077946486031254 5.405456267767947 0.4165986061637754 -1.214228150507612 1.7608228282201224 -1.0776172120183765
Ni 7.934915721295737 -0.09381412110995599 11.362250825599693 0.04938857773545688 -0.06641622264170498 0.3136735572356146
Ni 0.06584967233414786 4.869267378585371 5.764724823602495 -0.47910887615571035 -0.229848652199159 0.41242885832965737
Ni 7.7931955195036515 8.735953141299072 2.472105058845283 0.10272225616159082 0.9695583741352205 0.19343180413302172
P 8.663397952100643 1.6374913658139827 3.7057353251166685 -0.3150364990214123 -0.4333807779909762 -0.3504228489405062
P 1.902466126614708 3.156479829722292 1.5990011399945252 -0.6121354397277974 0.20494546119957607 0.194032156721182
P 4.625066465916022 1.0179726570002547 8.109642357920515 0.7778332682806604 0.2641271137660548 0.23107841084120206
P 8.456687343480885 1.739872895992703 12.45536638638766 0.5805237263597873 0.05142643410109207 0.28179727735230825
P 6.176856691760939 7.661952406048657 1.3447189601395457 -0.023537163889991723 0.14672977209079247 -0.10316782833944167
P 1.8618741716288338 3.306657440172029 5.930894870871079 -0.6738018063893428 -0.04621943597885588 0.1035339534296088
P 6.782003215712943 4.0245183198055985 5.9953731446371785 1.4757116560032326 0.5492763383097314 0.8329569487276817
P 2.5077298641195362 8.550800809971902 10.228319702432772 -0.20772739482008737 0.11099220947986692 -0.15334727740731008
