# total energy = -381169.96369983064 ev
CRYSTAL
PRIMVEC
9.24312409891134 0.00000000000000 0.00000000000000

0.00000000000000 9.24312409891134 0.00000000000000

0.00000000000000 0.00000000000000 13.52824642805412

PRIMCOORD
 96 1
Ni 2.8386188423768064 4.207349888979608 3.7915211503064343 0.7160082645540636 0.4553426269740481 1.6419483877787013
Ni 5.768707639961785 1.1527377247248138 3.411242390890148 0.3517533948264716 0.6923122064887045 -0.07579355009154688
Ni 0.29671167523711484 2.9238312026298523 8.94884050396713 0.2500618939222403 0.27107757694195894 -0.9552095616127163
Ni 6.818920633161837 7.402790290658786 3.1074384665997563 -1.1491964669182595 1.5186560207752426 -0.3955259119267317
Ni 4.440711040873375 2.0448932973448595 10.796460578492521 -0.3372508303349224 0.556115472718752 1.780053651425276
Ni 6.200324558757338 4.802265079669136 11.674578618677781 -0.20618473292331588 -0.8949285053344717 1.0137057580763962
Ni 3.5173691678418124 1.558492382538914 3.517222202170045 -1.5067366436298373 -1.3292490215308979 0.584157980678265
Ni 6.996490288528064 6.906074049457093 10.88267581770071 -0.5752491082244092 0.1086519913824645 -0.5763860500423299
Ni 5.258940107657229 0.5430557191160678 6.156447449079369 1.8547560253351736 -0.8303462505777118 0.2609865112545441
Ni 7.564101290890498 1.3732047186238963 0.6543355377036004 1.168010771411285 -0.13431108671146547 0.21997947271456308
Ni -0.544289676171473 5.891151303729232 11.937622214706552 1.434293498067762 -1.1783121533372933 1.3103796954302207
Ni 7.089180336105627 6.308210302208206 13.643101528198065 -0.47017557822182254 -2.27892736891274 -0.06706131242487161
Ni 6.35004468147985 2.23970137899072 12.24647196039429 0.48521601749471277 0.12523972053781657 0.1823385224333376
Ni 7.824295231786824 4.117127755512857 10.236120217476769 -0.19409386319705282 0.5072097481569845 0.3641299141139535
Ni 4.494811045706988 5.638000623328928 13.002606644387827 -0.7204914971363979 0.19359044119807306 0.6147409956714445
Ni 0.2806545202060279 0.6618529704613618 2.229184552491543 0.5060123854147737 0.5109373335202169 0.0028444114273305852
Ni 0.950636818234648 5.007804428291219 2.506554066424229 0.30736098475402546 0.2952780854475624 1.1361357770795595
Ni 2.243601977323162 6.2602754610896145 11.603325224305433 0.22918659313512788 0.04988377220432054 0.45644974399529775
Ni 8.578118210465329 0.6399116426851736 9.482583775642592 -0.3229279859543471 -0.9851467154917809 -1.2899800487279462
Ni -0.4728541922561176 3.2263956239904323 6.565379892928288 0.301719470197532 0.27331880756765187 -0.9374339827968501
Ni 8.778712487741778 3.7285190927382836 1.155708464781797 1.163819359037757 0.557309235916537 -1.8594855696003587
Ni 1.1414980859280133 1.2786290737481874 4.777229153974224 -1.4414928440296788 0.43477071635996734 -0.39844051447036544
Ni 5.3168667658311985 7.395368062078333 5.773098123866785 1.9565020336264238 -1.0028258779390986 -1.2728991819862594
Ni 3.1480139323811662 0.8200813888355628 5.7375185666130655 -1.2291747445151153 -0.6765384885942155 0.22185432113977271
P 3.4577510179739153 4.285001373792042 11.482274499326373 -0.06549242527585496 0.15563838743433195 0.42322080673883883
Ni 0.46760132488093525 8.515819554634378 0.1394491633220139 0.0639595335710963 0.16753128221717598 -0.32181572672677483
P 5.413965783561782 5.2726569036888495 2.0849871963653213 0.35240851191196726 0.10232322095095925 -1.0937717102910518
Ni 8.792752793113767 2.1824124963734755 11.07830838600831 0.44875777466767874 0.43897395580803755 2.192163178742302
P 0.5738177601355016 2.9486859630941584 3.6134348043080182 0.4983127027776708 1.2556655917167923 -0.27797430406179224
P 4.548134628123716 8.864294572955243 4.049423720760552 -1.4495583946466326 -1.1193855542044142 1.1223294673240864
P 5.515686363297628 1.5501273553093873 0.8561184807278043 -0.14177268519583325 1.5749061015172232 3.2939958116646175
Ni 2.1662000568590116 7.462195848674441 1.2426086194791648 0.8417580919590794 -0.9169952553265239 0.10279450416042298
Ni 7.8597703417392255 2.532033662071647 2.824495348888722 -0.13087737843956815 -0.891418178188368 -0.43163654160635984
Ni 2.7084571700605697 8.880978411794244 12.593592861047615 -2.2818460852214315 -1.2243390136893688 0.9576731926618602
Ni 0.6757980716560434 2.0224602353713115 13.575730245910139 -0.7047972263295925 -1.0211141347253252 0.8136523348617988
Ni 0.27612816237807297 8.08468327828737 7.712588380870004 1.2723175984511765 0.2244133401162006 0.07353303619214432
Ni 5.595898193460978 7.795835652958412 12.627413451802132 -0.48480104144448116 0.33707728087153566 -0.7749957988318653
Ni 3.222735346882264 5.142726309472876 1.6896375232498708 0.9767746893780017 0.7287804766180674 -0.3945416936365915
Ni 7.225294580284642 6.004277898494069 4.850863577091684 0.784184664419985 -0.3041969852037471 0.6227612948727597
Ni 2.0819120090070187 8.787853937388189 3.178474647557857 1.30786335676627 -0.3678654698969858 0.0468203027876484
Ni 3.314408650818667 7.555736263660971 6.388227102454935 -1.923181050876791 0.35815621302902184 1.1064364502429138
Ni -0.009580498036910905 7.788219318773739 10.49468551992244 1.4612705408772382 1.6832601020432945 1.163823729913131
Ni 4.596966052271328 0.8004489934372042 12.866511810769234 -1.251869872119786 -0.9569162598911777 -2.7612745495000897
Ni 4.6807457283027425 2.662389439992105 5.32171478437472 0.512809096621633 1.1182802369553773 -0.9183664246424377
Ni 2.2658501768164996 2.306584624330891 12.121052010695454 1.567213617968972 -0.5564142349060933 -1.6615908445999772
Ni 7.642908166204249 5.221625616026731 2.5613168032493965 -0.5434103664472576 0.2078695768249065 0.07297690657835819
Ni 1.3674647386133592 6.11398453737501 6.847903372809244 1.814136709151914 -0.4555092344588994 1.3517243198152786
Ni 8.331114207532023 5.699735448595235 7.158255126148694 -1.271776381235726 -0.11164192724872386 0.20128780984233077
Ni 3.7676175073028118 3.306588967905762 7.337031009198295 -0.9732239959122657 0.10513060849276733 0.0767955089935
Ni 4.129245491090657 3.184080602270241 13.7855537825111 -0.344885978282677 -0.1852922057450228 -0.44061251985272504
Ni -0.1276660288333945 7.167330949614629 3.412662134738165 0.9527482445564173 0.30305824361361355 -0.20796727874503534
Ni 1.9951190745481735 6.4004474367092525 4.494151086652637 1.5633839598102366 -0.5240137070882007 -1.349111821893096
Ni 2.850191233637986 0.8717208740575733 1.080947304847454 -0.49009262886072363 -0.3119871706721272 0.22621516921162976
Ni 6.455342350207769 3.8240837518831188 0.7744776635924263 -0.47840285122762133 -0.24781809219338613 -0.026683937049089525
Ni 7.7790131672592535 9.149620568036191 12.090396265602141 -0.5372561739204037 -0.10206276820072101 0.18009832024890918
Ni 1.6981282569659406 3.4243648540478926 5.659001001080844 1.7702410362102285 -0.970011402512239 0.6940474440122563
P 6.05484702995566 8.97024850348791 10.776343843396011 -0.9977844588604494 0.44630982734781843 -1.1032012311350679
Ni 5.4200939747807615 8.244838888017767 8.545819962235344 -2.073462544874584 0.019983385100462357 0.0012621545418752456
P 1.7864555500105335 4.815676852608411 8.766668697156062 -0.4525385818663497 0.5402124283352502 -0.3056332034296414
Ni 1.9147870837726861 1.7561750757520482 7.527590026736517 0.11794627220019688 -0.39189808536615733 0.2914545979364142
P 0.21216019835082203 6.256633670229468 0.9380975962019674 -0.6389530741412738 0.6217976454079097 -0.7014625055294048
P 6.591244002534544 5.715254653808909 8.767033800554476 -0.6593519495126 0.6905186049233915 0.6965588975802004
P 7.932023842129512 3.6544354537939125 12.625357781022192 1.0435863476859124 0.599726010319851 -0.49597788399690707
Ni 7.52745230418876 7.736707388663072 8.770172765468452 0.8284199800892764 -0.9098180208517944 1.1486382804219444
Ni 1.9410652853346133 4.257521566108746 13.384724785482208 -0.5558704465874813 0.8994379631690509 0.24811222639503724
Ni 7.614559504863963 8.186995417959892 0.9817722814641071 -0.1577253518703477 1.4581476789775403 0.7376374127880652
Ni 9.118425024500665 5.916542165386148 9.393784158961061 0.788023835660417 -1.330350739235509 -0.6432707276800211
Ni 7.227660820031337 3.802916997899013 8.044084704695935 0.025862212478742555 -2.0204643954109978 0.06370370880654834
Ni 7.176611046121199 3.4441174100583885 4.667691664262676 0.009146185275642312 0.774603191379137 1.0537771721759852
Ni 1.7534853266649848 0.5842208962093494 9.836211835599327 -0.6835126059192035 0.41066405311975085 -0.011173243008000112
Ni 5.956869915444076 4.593000752070813 6.257733601986721 0.5126388895923558 -0.15265616487755646 3.0018089635478686
Ni 3.7920101115665914 5.084919811911043 5.734095837791967 -2.6853048788419946 1.0954311002713457 1.567104088974301
Ni 4.914735412629225 3.1601409110829772 2.773818072876207 0.4026031304884872 1.0200574113260368 -1.7012313418097347
Ni 4.541276230107905 6.911361116391115 3.165014810373728 -2.0876977146373594 0.3853044913090396 0.018766481974225747
Ni 0.9982204206408393 4.269546870446442 10.922354700453099 0.3887554259721176 0.010294439947472592 0.2237584801410211
Ni 7.203009408295262 8.58378424548378 6.769737045989424 0.6199521075587388 0.17513763380952416 -1.3157702703181726
Ni 5.298223384701966 4.942816023373205 4.271584054978362 0.25144926118807015 -0.077619290446376 -3.10263246002485
Ni 2.734559752266297 3.0508317265344886 9.68054283826364 -0.4000477110564852 0.6008428975331136 -0.8333104754123584
Ni 6.551119601204848 1.9730834669070776 9.91778702655423 0.5937615652063 -0.9219577415381218 -1.3913339637871007
Ni 4.730140983014996 8.431023134961805 1.1220218993254325 -0.2418266504966416 0.15695736335607163 1.0511592749371639
Ni 7.5618644548799505 1.0248128884191245 4.954530758744147 0.9111277408021534 -0.05126985391856977 0.38137456012701415
Ni 1.2483023838696492 8.329468931458148 5.276137864191215 -0.6525356979217148 0.2669183033579468 1.6317303095951188
Ni 2.329978971201534 2.9027199073898093 2.132511642777845 -1.803588244212107 -0.4068269387618478 -2.123454303411678
Ni 5.1610461812617405 3.818399230616645 9.09781285795719 -0.05075743305852549 -0.2606103588620479 1.3921474608273314
Ni 4.127646430636837 1.1014753589624329 8.746782115847413 -0.17093079481702822 0.17515614575228544 -1.4177227381932744
Ni 9.03059686015264 1.0739308494110633 7.061447266824442 -0.6498152136667583 -0.6755563271866043 0.009174724520732586
Ni 3.7434559811392947 8.993679822854597 10.69685205259308 2.052977794657671 -1.5670603802205594 -0.9815890800475094
Ni 4.437827186182091 5.7719150039934375 7.98657583572724 -0.16553867726717944 0.8164414675711616 -1.2155617817173712
P 7.517072275924939 0.27928838647727205 2.7800414682724948 1.4694209378985146 -1.5427326021084722 -0.15197019455412536
Ni 4.712329483046712 5.964939162705266 10.282076105744707 -0.7529408759143549 0.6794623471092298 1.150127206262645
P 5.683513765956761 2.1126176669699883 7.521393436399859 0.4169964230956818 1.2798990103428602 0.41465003435069236
Ni 9.536131041660376 5.029719875320177 5.1588204370000055 -1.908537847042319 -0.2350029427065888 -1.9475813340980264
P 8.68098493757848 7.235397314828148 5.71040848389019 0.6102482500074136 1.1661122688369918 -0.06430329006376022
P 2.649088584540957 8.778157900301146 8.059939435311192 -0.16940458798048888 0.537876581113222 -0.16358746707807956
P 0.6119918622989768 0.42883196553118214 11.87386314528194 1.5374032194757588 -0.01803114647009798 -0.837466663672577
Ni 2.430091247359548 6.972116170512305 9.345461106634028 -0.3088162291433133 0.0013719406468621533 -0.5982075167927956
