# total energy = -381175.63312757626 ev
CRYSTAL
PRIMVEC
9.19522997377636 0.00000000000000 0.00000000000000

0.00000000000000 9.19522997377636 0.00000000000000

0.00000000000000 0.00000000000000 13.45814853471171

PRIMCOORD
 96 1
Ni 7.910030894586387 1.035447238589926 9.344826962040955 -1.9278928545301637 0.5599309898101003 -0.6942590458024301
Ni 1.3542090737596613 7.048630965062773 4.057550534923558 0.9098015657915621 -0.2784023927381463 -1.0778532392885822
Ni 3.3875778182525096 9.113557738122589 1.783608833032142 -0.33122853540024244 -0.803407517205339 0.35498758549305315
Ni 4.453635976743204 0.6131443576531058 4.244363581478075 0.3861532124625801 0.8291002939857527 0.46041052841525865
Ni 5.343743413605419 0.8521973435708694 8.69778622889064 -0.1611837427325934 -0.11038697179570021 -0.005187971958842678
Ni 7.260737330142686 4.639903746172424 2.184795788327591 0.7543668097276041 -0.07535517700254764 0.5146734035238814
Ni 9.200746906791585 2.213438929057809 11.000488770453316 0.30261267143576276 -1.1452153707833244 -0.48192500544826683
Ni 0.5546489034780562 5.829821649650609 5.926712705248804 1.1792485491086335 -0.2158608225604992 0.2494072910573769
Ni 7.46570819692191 6.073458457608184 6.108908826936341 -1.4209654135002883 1.3482469027896393 -1.0883268851263965
Ni 7.932163812640203 2.6850162877573953 12.85483282800593 -2.2300483838238496 1.9644919938104364 -0.6102744752596586
Ni 0.64737911760581 9.093070766197412 9.287050574833835 1.0641389750262835 -0.30991280464160176 1.5836342254188402
Ni 1.8307702469940084 3.0419015455491154 3.4575461606102533 0.8814523252249078 -1.3202753572773778 1.5318722623552004
Ni 3.2931887846744403 3.673880492337921 7.067546472220439 1.3388076117536105 0.14071133381085443 -0.23110977829976972
Ni 8.18067409237531 4.290190767600469 7.164310633647823 0.2596618789058496 -0.951434667951316 0.3768329635029187
Ni 1.1148756333339456 4.992393684134595 2.821043160775134 -1.7743504303929118 0.909719547600717 -0.26500437416468553
Ni 7.30212505933264 5.201447232931224 -0.0007181474449534507 0.6021454183946211 0.3738635964619497 -0.9861461032905726
Ni 2.5953076261317123 1.4528187178016692 6.088749205190939 0.24897251751280344 0.6330202535966066 0.004482204141069699
Ni 1.5487801356702249 5.460798688563901 12.952983630082468 0.21876514069148775 0.13646310005746176 1.3880002714281772
Ni 3.187701108765273 7.269380846125481 12.354513020094622 1.5176514907701284 -0.45989862177584667 1.6736112660996212
Ni 2.385279382979577 2.206110330931971 10.406701290986785 -0.5295516061872945 -1.2894007791857085 -0.910261021926484
Ni 1.695352098186973 4.4224273669074545 10.1967944248676 -0.38556263006643277 0.05034579944240362 0.5896241459991587
Ni 6.153833961018403 2.404745684400402 10.489388475160913 0.190811078680723 0.49976871849790694 0.992007447167356
Ni 8.117089078523158 7.87803149499051 7.780882053435809 0.7871967117734313 -0.5999646086932183 0.18533025807180983
Ni 6.188702272302187 3.4779669268810935 8.203831359025385 -0.4930997911181636 -1.0406028395775562 0.23351298842462367
P 4.741759306322864 7.7453811103439225 0.785955827838473 -0.6363578026102717 -0.831221968314446 -0.31961743352387534
Ni 2.602498295811015 6.600262366299965 1.9081766107118399 0.9934050988458312 0.07251796466406865 -0.577250197814838
P 3.358493306493383 1.8373632267383313 8.160078616738861 -0.07519036928990921 -1.3941410942185926 0.9267945008051329
Ni 8.60325007163627 -0.151830714421599 2.685936730257265 -0.03763143719952874 0.8053278741565034 0.004841387252701339
P 7.603084929669728 1.991061492326 6.917609055608263 -0.2470465041346842 -0.16136243440230275 0.41916489150191033
P 4.609439949947958 5.573679329207289 8.469885217636635 0.2858454792797529 -2.448984759985879 -0.7351979501086371
P 3.0061321017479767 1.9615631952272718 0.2947438950132895 1.105221089778574 -0.03844801956355314 0.7151081213372974
Ni 8.335797618577164 4.4286985136098656 4.519865538676901 0.7228126890704069 0.5835907953208853 -1.0754844819460898
Ni 8.812505915487813 7.2033774868441 12.66512696216611 -0.4506097402747529 -0.09539204104876474 -0.048891069273748054
Ni 6.760838663754794 5.7640389758836825 8.52164608552892 1.0118571349034315 0.10626292232499764 -0.14433916037142883
Ni 5.884551657235281 0.016188202008201664 2.487321606294326 0.4294361915209314 0.12371145681874823 -0.629471874123716
Ni 3.0588299635537157 8.627516282996474 10.445649525719043 0.19728100267578283 0.6341991043960561 0.32753103194399724
Ni 4.51976806924135 9.037071816904627 6.497957159413825 0.5571179458413373 1.1983037659678717 -1.7959520678230876
Ni 3.523225847803768 3.979346025261783 12.491692055402408 0.7491747240037032 -2.0248211297177967 0.10221317773565623
Ni 7.989146651518263 1.2006211509292197 4.648000145983967 -0.24741237211453518 0.5808523133437996 0.5205781990440905
Ni 5.101982432520705 7.380799445235608 9.439585643855732 0.9715563784018557 1.238843377953131 1.5733274441761935
Ni 1.5395573202119879 2.9737924786506493 12.510762042420192 -0.2670103488511208 -0.682068160163193 -0.38316481925821755
Ni 2.6911587012430407 4.01418675085626 1.2949917940477509 0.9819405498496574 -0.14552803847320744 0.4118408470366714
Ni 6.124317273460137 7.282612781762971 12.513264983963294 -0.1502742949089412 0.8846181245473991 -0.5959739994765865
Ni -0.18153130657524366 4.677466259778504 11.569620160817436 -0.1679074346096721 0.04572784105441802 0.822430338164745
Ni 0.2762807931602545 3.4916218430879544 0.788809107635772 -0.23557989825598138 1.411761378403517 1.7684122105316058
Ni 4.82594163485742 7.219726605373257 4.959072010497946 0.5879976661393292 1.5374132467780877 -2.2569012423506356
Ni 1.0379943172359198 0.5090074609969941 4.439035790916097 1.27759915856509 1.020863966387732 -1.1120869636604718
Ni 2.3763324244144077 0.18445538964176345 12.713320080908048 -1.8705706237699269 0.29830401675807977 0.11743128023699131
Ni 8.708838895072894 2.564016259228042 2.9046452703112706 0.02758459448648798 -0.11922256780945921 -0.47724996857010066
Ni 5.374878461603017 0.41521887592283646 0.07754613121031928 0.23342659935840443 1.1827773881974986 -0.13749719774893096
Ni 1.0231532163888664 8.241500537296783 1.1345295174420569 0.6616160629564283 -0.1557116638744286 -0.3432486997895701
Ni 5.238062637871104 4.755285489312961 6.271470374498281 0.04677042338631945 -0.08097663695438312 1.098568874569379
Ni 0.6681768882971763 2.1565112615583617 8.54569528946658 1.2798218772480217 2.263851191305908 0.6918270393221698
Ni 3.4003775780908603 8.43726697907731 8.146849439670302 -1.7872545400490898 0.2443455602637534 1.4739015993776874
Ni 5.045192693467793 2.1550400247953325 6.492614730918077 0.18282009005544644 -1.230005725056843 1.174482752288874
Ni 1.3409955285817086 4.4948489965675495 7.741934738226528 -0.9103461254411225 0.6479473072200842 1.187855059830722
P 2.940643675333656 -0.7914095186144254 4.173317558191412 0.18121237924869438 -0.1901970992458079 -0.5872322487282144
Ni 1.387459024604113 6.8146307579030365 11.10369878794872 -0.7132723536801393 0.9920123322633625 -0.43956479531450104
P 5.912928136302201 -0.1723811334321812 10.6743164996128 -0.5492058900831123 1.4075727942434662 0.5501479422814073
Ni 3.5605860663549316 5.616290023956511 4.081667783561508 -2.2356806424089624 -1.007698889760684 0.16454134635091663
P 2.109643175426124 4.033082948031411 5.425409927275196 0.8309638295570526 1.7940988166644327 -1.6772228947102792
P 1.3176948163472395 7.493266300539394 8.126540855202641 -0.11112256441014409 -1.5792880326350027 -0.5934918564846811
P 4.644096770947057 4.492311113151325 2.631081667547735 -0.29034722380484834 -1.5389137425830142 -2.2177507974034194
Ni 7.473680461131572 0.4981276651343959 12.181709825616046 -3.249727328764545 -0.6669755274961288 -0.8062521857429856
Ni 4.124419165326195 2.0500856722127634 2.324195471624573 -1.2944751083848223 0.9693102626801564 -0.8257735436053648
Ni 5.403015864695943 7.010498347211019 6.992127197655673 1.4685675887592837 0.6650014344888934 1.940918063145238
Ni 1.963880393129042 8.328156382639182 6.196548561864015 -0.014197117435988452 -0.7861011647164075 -0.07396421019229196
Ni 3.8088020987374342 3.665963399506872 9.378202887533238 1.312955940797829 0.5007467661404602 0.2674322668798878
Ni 0.5036530787025459 2.932303601933236 5.930225283020535 -1.2410051614911402 -1.591013805712363 -0.21889986649713913
Ni 6.663553132799512 3.1154633837005568 5.218289215775997 0.6918476081474602 -0.2534313246151055 0.8553335166506689
Ni 2.8915135626782615 6.39247775921145 9.357100754736521 -1.5371908463546364 -0.2563472127103198 -0.6537770265279838
Ni 5.582230892892394 6.522636236590657 2.302823918595626 -0.06086161137206293 0.48643472039316227 1.0687492201047852
Ni 8.240443085873357 6.577338658486023 3.2982958152881046 -0.6195618140988555 -0.04872523311984511 0.6888504731923492
Ni 9.143580163318147 0.8871373776468504 13.682226039275111 0.27056412764065013 -0.05130070715650519 0.17793782226248067
Ni 4.278733511308382 3.0686412737171644 4.534642272915572 -0.9171155829544722 0.9350816805145896 -0.5306116720206927
Ni 0.3253253901787977 0.7218632373030754 6.966206764460035 -1.3889850039389497 -1.4738401500121328 -1.5157043943460864
Ni 9.08647778645309 6.095720108878765 9.485182029710927 0.2805086404478717 -0.7209126438342165 -1.35207553250711
Ni 7.7482776077211355 7.859935282805256 10.205139095882902 -0.28340755926222155 0.6751999722884501 0.6538364190110094
Ni 6.267891591072214 2.6413573368145142 2.9745869465026846 0.38418091922755776 -0.7203542002275852 -0.018768281746438645
Ni 8.900274383632253 7.987344386483552 5.255635641482507 -1.6098733616210275 0.26832289701495726 0.9087085898376995
Ni 3.2361231887284596 6.170072736790335 6.729276037572942 -1.1942900168227881 -0.2784782402814043 -0.14727638862288184
Ni 5.732379799789255 3.1289895666906533 0.6601963483807218 -0.6693332290950279 0.4722450591563416 -0.31058052013258775
Ni 6.841913004627452 8.999886307719073 6.168650234745081 -0.8189698904199701 0.43807098437779396 1.4865470560558398
Ni 8.243661416292483 3.715369369055334 9.526377578598712 -0.4779027716627512 0.5818175054705463 -0.31540930897979874
Ni 1.4613794767165433 1.3428621602248014 1.840441789664969 0.6535391994855648 0.5234092407349825 0.5341765065538154
Ni 4.065652451872962 1.4378764694271575 11.713810558824033 1.4875176474992253 0.12820985890973405 -0.06512424330315882
Ni 6.963906117971849 5.701925198794558 10.840592000478411 -0.473127718871611 -1.001305070419198 0.7229147618659099
Ni 5.9039903729668 5.11723731870736 4.158984953550581 1.8634736077138294 0.1987763562743867 0.5124306302362917
P 7.024236020485801 8.44429213462077 4.150842577590193 -0.19976340277800436 -1.1020347216307922 -0.7166119595763335
Ni 4.134828165424624 5.496558937135271 11.143575740887638 1.5199711400422402 1.2017904389648917 -1.0784636191790715
P 7.150256644468989 1.5293506151684755 1.1135607154769884 0.529364686987469 -0.7241000404232626 0.6646417371566296
Ni 4.7475982772261345 5.611195866664524 0.27062204876045487 -0.36305647854411666 -0.6822903034763281 -0.10203705716910813
P 0.0852425385269139 9.138292906201011 11.516029442201134 2.7162835866116963 -0.925163135849297 -0.5690170112717684
P 5.858060200270994 4.138745333306189 12.184051850638193 -0.20147292926994337 0.16990003955966868 -1.3112934654937414
P 0.16305717044648593 6.335062744534249 1.337485709378908 -0.2517521371404696 -1.0302901447976387 -0.4281151587166627
Ni 7.419474581643729 7.5778808048730895 1.2366030045380205 -0.03324924897143306 -0.09811921017194068 -1.1341686260508594
