# total energy = -340887.00262648764 ev
CRYSTAL
PRIMVEC
9.11067773577090 0.00000000000000 0.00000000000000
0.00000000000000 9.11067773577090 0.00000000000000
0.00000000000000 0.00000000000000 13.33439778772206
PRIMCOORD
 96 1
Ni 6.938965559150783 2.06478936036209 11.758885849298988 -0.8437962054350306 0.1665270093223777 -0.19765098442069184
Ni 4.3130677723126105 0.8715256195203078 6.539641816457814 1.3045816006912048 0.08285534203433473 -0.23443807134205433
Ni 2.999845558558487 1.8188283908619474 4.755312829352068 -0.32658023799495367 0.10241295245128813 0.18889612104619727
Ni 3.3842706097885698 4.349874910764312 4.77496820571239 -1.0962147725149056 0.8230954825525695 0.5300899951892677
Ni 3.8614788040860093 2.7335859988429014 2.5207341436614046 0.43891147800121827 -0.016192550599462435 0.5634179199174362
Ni 4.959224376374492 4.875670349953563 2.8909775137741796 1.570670980389953 -0.7267644746293033 -0.3979273222793728
Ni 5.701735509214887 3.139803791453298 0.5139196706318776 -0.7559863476088979 0.569708123801522 -1.3512175553821888
Ni 5.516187444435841 8.397411977588103 12.618740690513201 1.115646398876956 -0.03186059615402255 0.22232894678334614
Ni 2.511677218826049 5.634316493238999 11.678146111261162 0.250615195322549 -0.9679918009790489 0.5577638069554524
Ni 1.0628243441485405 7.852265458678204 11.777620136130235 -1.010230655043602 -0.9024667226930457 -0.23844256451575707
Ni 0.4431342591961122 0.2173051545070398 5.17241332663587 0.39556602113604783 0.4049567183223284 -0.2530040072696998
Ni 9.007535850814223 2.177816429577883 1.837626452438035 0.2755703226059899 1.5149271498604295 -1.5242340290836522
Ni 1.555912449911652 0.9353112971757659 2.961929650614318 0.18240639955679555 0.3029080911889945 -0.04150120456758014
Ni 1.933987358691032 6.802396498410436 0.560276621589785 1.7559027652106856 -0.647941136572497 -0.4337582159350529
Ni 7.5196346109377075 4.112623749274028 4.014600144316219 -0.11056514924477732 0.3548675149754211 -0.31693294471317673
Ni 7.966814011092373 3.94227229512306 12.861080165574098 -1.2331170169923151 0.7287804766180674 0.47852215041430496
Ni 7.977218405179462 0.10690378264317237 7.393483610301202 -0.49674561540086704 1.5061270350702967 -0.9799901109915058
Ni 7.455331446781245 0.616392930644094 0.4052803038612178 -0.31988971334865557 0.31863732899879316 0.27735723930308365
Ni 2.0191448644108467 7.0996870268306 9.379748949474834 -1.8926962520243726 -1.638953052595803 -0.5760163254077371
Ni 0.1526102312036908 5.238493984037858 1.410859525971745 0.4218120993167704 -0.8074055826211385 1.5427606271329302
Ni 6.238636864684491 2.3710994598384874 6.9241124210770675 0.8843484158257802 0.9755035359750619 0.9854223377506706
Ni 3.7235158096369716 4.742417575945005 0.7150169292712005 0.1920017565547145 -0.894761383628988 -1.4802704790185086
Ni 5.959941229724704 6.137153024285111 5.123408812699234 0.4555452299031574 -0.4081472002351681 -0.22572048896339836
Ni 5.720594612332467 3.328039506193545 9.628168890922531 -0.27464369702666247 1.4847231154732237 -0.17019828752637786
P 0.47841080377160405 5.896831564364573 12.6788119448155 -1.642381618661378 0.2268620587670093 -0.6966864242970001
P 4.189244549862841 6.573290282904266 12.905310684325412 -0.8356746047691608 0.23989163825745782 -0.8341897926935181
P 2.659261089068402 8.661348314455871 1.454969783775645 0.7564707434444842 1.3486251120646646 2.0815193537407892
P 6.222237644582249 8.35946600440708 6.246072088865293 -0.5002227753161901 -0.22835021327676155 0.22392431629492401
P 4.702002609070809 1.4759480305575479 12.788167410863958 0.25235711771432023 -0.8691243997871742 0.01048110203698195
P 3.9003905091174977 6.483030797597087 8.258152533683205 2.072385509760321 1.744145881785074 3.026488725682736
P 5.148863135501265 1.2394075019383604 3.764260583048778 -1.9225539588157532 -0.7232155809357802 -0.11458661169934459
P 0.1232137181026366 6.2483306259004845 4.007026437832334 -0.5513003107182957 -0.6095483957269114 -1.6002402094066375
Ni 1.0078869568060262 7.699042078856246 2.508440194991423 -0.6706079820423935 -0.8661262363907987 1.8610027775758338
Ni 1.9696009983464031 6.708018986722027 4.928046725756778 0.9440237201992258 0.4213742404484033 0.28305480390849314
Ni 6.080284173241665 6.122184180602896 9.671972118883405 0.3552593510972011 -0.6463845907186545 -0.6282760540434018
Ni 9.2720279390299 2.9477962560895348 10.601140085995315 -1.9443700262495807 -0.935718285657324 0.25829790867878744
Ni 2.492872779775477 5.631319080231422 7.157638226400793 -2.5608568009675383 -1.5723751075652532 -1.4614392052446186
Ni 0.7934443772746111 0.683341835643718 9.120781576298047 -0.6826613136625018 -1.6121842691423913 0.26932922679228455
Ni 1.9488195422057275 1.2442817145798604 11.804716203078058 -1.4796780968501484 3.448470774918467 -0.5717709198678217
Ni 4.19393654894765 7.089328186132683 1.8353068738613512 1.045904711406444 0.6628741037332455 -0.25379436438147907
Ni 5.757447304173341 8.20522222866765 8.403978043103484 -0.8613974634565617 0.7414328752747553 0.3242927275123576
Ni 6.923204086496961 0.9334071655083387 5.056790625305005 -0.05177841812387212 0.37432562370003275 0.04122429675710965
Ni 0.8210023555886472 7.900287841544273 7.159157887463601 0.7415544884542842 -0.35908849503530416 -0.17304989804256005
Ni 5.0596513781450625 4.990619772192453 7.144610868165128 0.6148677510572959 1.4685138527032129 0.4906107061477228
Ni 8.355475527515534 7.952346254691061 9.284074988330564 -0.139524769701921 -1.5324556456624965 0.58509206245676
Ni 4.851135294545042 0.6414618717737229 10.529961093277096 -0.20180485868806536 -0.1905190013616009 0.2840081689606979
Ni 7.877848242037704 7.546392671737867 5.11680812660808 1.2035678425802885 0.36378872872445084 -0.5331141267275722
Ni 7.301105892397483 6.608885701203969 7.346373206286375 -0.8777913314335528 -0.4441696410763641 -0.5148670075919262
Ni 2.590347921927643 5.507477636425984 2.5196545283380067 -1.542268775098176 0.7606127906373158 2.6927687913192075
Ni 3.6477787447981123 4.6679742273586555 9.480636951543834 0.1265864643736981 0.3424735121864424 0.10767625773275649
Ni 0.942891381134136 3.766053564446623 4.0169607209431595 0.5563509857683256 0.3880913100255574 -0.7771835505118034
Ni 0.8330147843135403 0.09113593251486564 0.554891299921765 -0.410796464932557 0.9628269689486578 -0.5424302619221755
Ni 1.387109810992563 4.009190223818046 8.7419778132919 -0.7977017250698132 0.2708718886890561 -1.3157777265173405
Ni 5.259193444078022 3.055366029282415 4.7300306983611105 0.9991803107667114 0.47990951768013473 0.78948936446235
Ni 4.109681000333458 7.4257126331410275 6.327918774260021 0.8220336169469584 -0.08656158724132834 -1.2179760475858186
Ni 8.522173599854836 7.385762310836396 0.7187586846578623 -1.3153259836919025 0.05179050230873016 -0.6851339435727104
P 0.06425669969950575 6.117428406773246 8.161771583938974 2.60911666441519 0.426284276155511 1.1218401863924938
P 8.745877183405101 2.2643405369728846 8.394630487645207 0.5836051934985885 1.0144799172382593 -1.7235246059902962
P 2.138667846922695 3.536965570296122 10.834345195459262 0.2527654088963324 1.3147665116440066 -0.31803003443209743
P 4.17312776077347 6.422089473561584 4.073764886173978 -1.6626316271596655 0.723336937004993 -0.011930689999314936
P 7.158778883265683 4.32402791774761 10.894189593883482 0.6913441861484804 0.6486710727599861 -0.9830566657319715
P 6.5459035853335195 8.216291702236663 10.542455476859436 0.18388658364674781 0.08786385099251964 0.5818023359618948
P 2.510939253921448 8.888195081859067 5.920899242000181 -1.0643042969595542 0.07706213239132535 -0.252346576191359
P 7.3078842367064105 4.246650930898526 1.6391840453197086 -1.3757319955837854 -0.08055754713909354 0.9140863092098452
Ni 2.6031757563187305 1.877610484250654 0.7159170642412569 0.47046354177588656 -0.5569338548549893 -0.36751245743294125
Ni 1.5847568559359306 1.5373357778069445 7.050482989049386 0.2647650044603698 -0.31757134962812406 0.03873829711046232
Ni 7.087387611753917 1.4969936963554267 9.33119814729436 -0.4958554994864299 -1.6234798966608686 0.4759096524921223
Ni 2.623820552291888 2.0343779177502634 9.276980503500779 2.064697139977128 -0.20731241876985584 0.773347721705481
Ni 6.506253915397429 2.120027400073145 2.3392804175012185 1.386521887110438 0.31859233469347065 1.3763691149471522
Ni 4.011759434967398 7.055627788822573 10.59825928966402 1.210951022418237 1.4404240364455323 0.16118245718101273
Ni 7.341384199104159 6.543862793498573 11.86049359491692 0.9427502528034409 -0.056842205800024685 -0.5305695059288476
Ni 7.991221517011211 4.432071446187888 8.509439605445444 -1.1248108389850433 -1.4140733143661453 0.17026307932604226
Ni 3.0992977178007575 8.698538101376625 12.661331287254292 2.200447016017649 -0.9689688201803377 0.47043783074427364
Ni 9.50972552373408 5.499542236032064 10.541575385380616 -1.2515608255197994 -0.0926846694199307 -0.6993184626032085
Ni 8.628613648996227 2.53949211825502 5.929846838701522 0.0656870577851643 1.1322405557902113 1.4590491077458871
Ni 4.068036091951595 3.0194244052249988 11.368160764346294 0.049036593712676844 -1.1790351475462468 0.697559828040889
Ni 1.0804170630471135 3.7717659594489046 12.88317538145852 2.7160426742454837 -0.5530648588178861 0.04891189520935447
Ni 3.215085322400428 8.78325829456038 8.246911779370901 -0.11276678488178643 0.3960738140104017 0.6721804687358359
Ni 5.813951728103403 8.261498885651847 3.7292181828936353 -0.10988946333399138 -0.6461807022379646 0.24146746738500993
Ni 3.384562151479276 8.594375721693877 3.825971759361302 -0.09850770385961098 -0.09388666014783185 -0.07567090847075356
Ni 3.8324977378942116 3.2458065280586306 7.320570855591063 -1.9823444486108248 -1.857524074998614 -0.15668045554560114
Ni 5.250611185557848 4.956582279802465 11.740457681242985 -0.35904324361966555 0.004567050545392135 -0.9364878168334968
Ni 8.189442534658157 9.107270441069366 3.102340684197507 -0.1925414311082684 -0.04831308528309099 -0.8032044000555973
Ni 4.804679948266521 0.4314653030255828 1.574925523484636 -0.3519086894574133 0.4723144789416962 -0.4215153940119579
Ni 6.0062508051578725 5.772233934298863 0.3686417129494564 1.0853950561915824 0.5004868276108543 1.705555165996069
Ni 8.5545711702346 0.32157686232380217 11.143436784878558 -0.6214947694555103 0.439686665604346 0.6854435043933292
Ni -0.03866844993330577 5.296902539635347 5.959182310261085 0.23352095884442364 -0.6296911892233735 0.7189303232968651
Ni 7.08168432742947 6.3506070952714735 2.500759893576872 0.7824527693305428 -1.2651910147087242 1.7515498875586288
P 8.590458130225008 2.106406936710449 3.8807497098417114 -0.29444761912646705 -1.6901920532764374 -0.007401434670393705
P 1.9928605588580848 3.689778969615524 1.7292977597815347 -0.7836866417376439 -0.8371331915925583 0.12507696970770718
P 4.894893880184527 1.6627351475220966 8.592659269989843 -0.858612701622573 -0.7734382245367583 -1.0902341294514384
P 9.135367771511207 1.8363117816265053 12.813596223768053 -1.3101791493836403 -0.32044455741086103 -0.6005122536665721
P 6.588004027607111 8.181826007988448 1.6770935757893939 0.062293715832899166 0.41327989347604305 -1.285461334921986
P 1.6945040811312753 3.394665893197825 6.093206758682233 1.2371593053824887 1.7559469881850598 -0.3845017929020862
P 6.908781883484822 4.510177287263739 6.282954845943021 0.9486805022449468 -1.1269700514198913 -0.421375525999984
P 2.32240288681266 8.927061233501382 10.407604689958692 1.6237763448553646 -0.7411929913498073 -1.4543686715510824
