# total energy = -381174.179578717 ev
CRYSTAL
PRIMVEC
9.20122784114569 0.00000000000000 0.00000000000000
0.00000000000000 9.20122784114569 0.00000000000000
0.00000000000000 0.00000000000000 13.46692701988791
PRIMCOORD
 96 1
Ni 6.283334571577752 8.664078704835674 3.466319733788115 2.2602315922754497 -0.27997796475538234 1.634460049821456
Ni 1.569159019399787 2.170210835559542 10.619870564115566 1.004374196262825 0.4866872027236005 0.6151030069965535
Ni 5.521500497475533 6.163313753642448 2.020496734769361 1.5606210523531188 -0.3307742214716432 -0.14024982079340362
Ni 9.196618177362627 7.654851213696771 8.149281960246826 0.054561894406280224 -0.3228413397778117 -0.26673344104065033
Ni 3.527060720258379 4.349236447535982 5.254525947147823 0.8127977001709874 0.766289529307119 1.5476822328042636
Ni 6.329101479612879 4.59888416543085 9.123762854117324 0.388474404396589 -1.176684387925883 -0.014892600841116287
Ni 2.923929426572299 0.401577474385664 9.612383025190061 -0.9340157011439205 0.43678157614240903 0.39478466288533304
Ni -0.2388408756175748 3.1454765941778065 7.712293559931693 -0.6149543972338312 -0.12288998935871737 -0.10214067262650797
Ni 3.9442351962142763 0.673486643285797 0.2544645607489874 0.8381474917896856 -0.2251533036060187 -0.249683427536899
Ni 3.772135427840931 3.189458463982372 9.812864901429341 -1.672987773583009 -0.7793569040140385 -0.15581707910404133
Ni 1.5969743316213771 5.5036685176259 0.29092350654681376 -0.7295116983571371 -1.7791648210624198 0.37182959675105637
Ni 6.1344218977457246 5.505757196380217 13.109461544034597 -0.14937800834691695 -1.017386549362093 -0.48119455504014547
Ni 3.5044809067645706 7.17065499304287 5.261448030966648 1.2829483386921454 -1.1002866285914341 1.3850339897110018
Ni 8.207771406227304 1.1681603022548566 11.446147278709466 0.6180073251275422 0.5679335483996025 0.5831048568234021
Ni 1.8366203146883036 5.177742619672485 9.262673793121408 -0.7284853139751518 -1.5090778901685042 0.5355301923682325
Ni 2.3420529695490955 7.222503912781098 10.317175006475036 0.5162335489221496 0.3861943501131607 -0.4712137896783498
Ni 8.329236816957444 2.3575754411725893 5.549923090744634 0.25287339522910646 0.4770198548371655 -0.9191377555908234
Ni 5.178800760891633 5.963039825155802 7.0417218656739475 -1.7400920234306745 -1.1281933823040313 -0.617485391185801
Ni 6.36183024758251 1.3772766108423797 6.707916956190481 -0.8916740029529159 0.769498780273036 -0.5517703083761788
Ni 7.68585935203179 7.472170033131952 5.457014611212287 -0.7464578392931724 -1.9126037895815768 -0.18423034013941175
Ni 0.8847587995919828 2.6749994044608525 1.1209248782321126 0.4197354192933997 -0.014869975133296973 -0.5685449567313564
Ni 6.063774869218642 2.341206456573777 10.716186258373568 0.9897636454385018 -0.07945274411068896 -1.1371858156106287
Ni 4.7812801079279 0.7164398158007912 8.416937401445987 1.8301729366791706 2.3276662288793397 -0.4816221294958674
Ni 2.811278792259057 2.513076194247308 12.979235644132713 -1.0171080988897256 -1.0285507935090286 -1.0024350702585831
P 4.097380434922893 1.5635554715523017 11.199689626559628 -0.661315500996874 -1.0897353354381492 0.9293545482228253
Ni 0.924226546943385 7.88148666038218 5.809498013520703 1.0849235158718025 -0.4680994124190842 0.2160955642791246
P 4.297359924113778 2.161589284930488 5.908627443298839 0.4576717893278569 0.7819730014806469 0.967077773805212
Ni 4.901816194630789 4.247737701549756 3.3307617222645294 -0.462806539451261 -1.1420462290267235 -0.5914429443754524
P 0.9984620543875763 9.428590336283737 7.452921064171459 0.7545501293830038 0.6085225255655584 0.38520576094764625
P 9.386632736637539 7.131089712674747 3.886111038985105 -0.7410914327749366 -0.4514404637061644 -0.10084740773638116
P 7.24872741255997 5.663696274872971 6.857696385699409 0.8038250643587317 -0.19212825483024976 0.08316953084064387
Ni 0.6565536234110392 5.2818453131806145 7.09777114599079 -0.6126350050720352 0.20500022569691143 -0.7965984647033054
Ni 8.755226069330242 -0.024934407737111277 4.131653168949681 -0.37964986412642354 0.5864480622640224 -1.4958961013709078
Ni 2.079238294396835 1.0916060853565337 5.6085984015305606 -0.5312706457609302 0.0012994355377138913 0.6830225536566624
Ni 4.348675172628434 7.897837242525007 8.988083386384236 0.5966491711667402 -1.1846627781456693 0.11870783295656974
Ni 0.9886443441194861 9.067865394062359 1.733153426034463 -0.7987116543915663 0.8468280502828189 -0.08994258789841929
Ni 4.416147777498074 0.41668497062669246 4.796905633304912 0.3748125906387803 -1.5006140756718673 -0.5363593731377472
Ni 0.39904989705610033 7.601677317127612 13.322494815378564 -0.058983934733375834 0.43265906933360326 -0.7496195248506057
Ni 3.7992974528750474 2.852721123137669 1.5249949652809685 1.0532619231024636 -0.7055834696763139 0.2875686326184467
Ni 2.295577566958539 6.877697094986896 7.657281258009613 1.0074998863760003 -0.2851777637887669 0.17171420995027198
Ni 2.669395856613367 7.991183700509801 0.5729788695543723 -0.8809404185854958 -0.33518520605514535 -0.7563619857807619
Ni 6.097322546479615 0.8565064290407447 12.705183509233107 0.11627788335883844 -2.7329438208761965 -0.7857136994700017
Ni 4.343522484952586 8.225603386076937 2.5045116912318086 -0.10704710878918983 -1.1505154428399993 -0.9163560790806282
Ni 1.6503598564343664 5.687141003798082 4.790092123976401 -0.6714515609896113 0.8257576027657649 -0.7212327461777965
Ni 5.327630623671727 2.7987467197331544 13.078110199895454 -0.7514555496180801 1.9863551124321146 0.5464185571459621
Ni 2.3040518979397113 4.0906911421722825 2.504040588358588 -0.7421936647001798 2.097102038670395 1.4260996494030602
Ni 1.335033773128413 1.3848216177963009 3.4619022242288744 -0.5379174616534865 0.9893576682493348 -0.8768238253139607
Ni 8.844450377174356 3.2346732983379445 10.088102154494392 -1.6738272387651687 0.2707505326198434 -0.9269976179548745
Ni 1.4733098274010092 6.7483278294111235 2.1943815413732684 0.9690204993538796 -0.6345189496293202 0.8599314204339964
Ni 4.689240224318054 3.2808450604047454 7.802912773939484 -0.43397007483554295 -0.09608521046104743 -1.1804906490458509
Ni 8.279430569833572 5.4355886317087485 13.323033087216128 1.5050070625332403 -0.03032256224294132 -0.3125242741225198
Ni 4.685550531893027 7.187714069741126 13.604828975594296 1.2601611655943008 0.4208101404148172 -0.06616348320095057
Ni 7.273221081476237 7.696689197379064 12.510627223821054 -0.27940538008136395 0.12645533811247256 0.6336432318925862
Ni 4.969675251076118 4.4403654095745635 11.205641900948033 1.3543879826903706 1.0632737988125107 0.8887483446656889
Ni 9.097861397318193 4.847078089302889 2.0972450975783277 1.008934819050314 1.1032958477314032 -1.606377175542311
Ni 0.3730499871174476 3.690336510986833 12.20117060385157 0.44295839437708234 -0.6563306461877729 0.8166826370476902
P 2.793529623461357 6.445487812491111 12.333739136400366 1.1055059680088444 1.1922336485143918 -0.5401818322076309
Ni 8.342578597546694 5.002781269393445 5.111237983987666 0.46355293069898235 0.02168391273133685 0.22224178638617853
P 3.223723837026766 0.7344917049994475 2.255966280450452 -1.4222738478990669 1.3454359157034055 0.8511960974435275
Ni 3.9391745208183537 4.822593621614615 0.004620856697877147 -0.017222791636189692 0.22183915163112117 1.2786065167836818
P 9.477172820084595 3.280743846896827 3.316203539334658 -0.13646567116062303 -0.774037548683654 2.013649172261377
P 7.10844549058499 2.1639171956126124 8.611386032490527 0.1308023022272586 -0.04470274222401333 0.5416866988879315
P 3.731199164501912 6.122110654691643 3.262739804083732 -1.0872351947241146 0.02157412662634994 0.6699883461805235
Ni 8.329660073445103 7.085773664811256 1.843231397000977 -1.3493884725932503 0.7896582859400464 0.4193584955699552
Ni 1.7435130886313164 9.20822092586128 11.609635617804548 -0.1636257765151827 -0.9144087255462704 0.47615030774801864
Ni 2.637697626178905 4.265946931747085 11.696228374442784 -0.8124439163759944 1.5211098816323738 -2.081686732556589
Ni 8.128567235667116 0.4282021477050135 0.20937670333971298 -0.27729090484152247 -1.536107897703103 2.3172555750689767
Ni 8.082542693248197 1.9633764315141806 2.234459330140579 -0.23771982741711967 -0.42953157944821513 0.9946762522487707
Ni 6.437363128173656 1.9469522395474133 4.252950197207556 -0.5079211724017124 -0.21486066343075896 -0.31083763044871626
Ni 6.531970154393435 9.071794318415193 10.430970273550555 -0.9127128259010862 -0.480669792884927 0.08800500455607424
Ni 0.7519206710630055 5.984303863046669 11.53558137455181 -0.8640770671712538 -0.18188652249758352 -0.7034155154907176
Ni 7.814768556207932 2.6970547479590836 13.42823716771497 -0.9205454345716275 1.3584819502540861 0.09502463040701699
Ni 7.175586851246897 -0.2410841350021675 8.20929052896888 -0.37824192803530343 1.3225664673043998 0.7995179523429456
Ni 4.1849577229563355 8.333938644461657 11.74764483646536 -0.2937973871369779 1.1605296325428915 -1.6660319110904662
Ni 2.404115252359094 8.310236281152752 3.791370594959434 -1.758632762547339 1.391960541627506 -0.5934669167840165
Ni 3.1902497695897343 8.874253154642345 6.995961398498414 -0.30866736227027486 0.43130049842317975 0.6297122722692962
Ni 5.913785651711483 6.731222746572905 10.859366567166212 -0.09183312005291282 -0.5454531079088993 -0.0010222706169272717
Ni 8.670915217234167 7.781322092454879 10.508768496473476 -0.2870847510034927 -0.2080680659889578 0.3557036377234713
Ni 4.133053595850153 5.694925242679811 9.261933094268006 -0.0009469372943015948 -1.1264527454638404 0.001930898474125707
Ni 6.61482721246668 6.881690427935678 8.612733092268641 0.3009869629068816 0.12770720824170265 0.1848160374395527
Ni 7.240464709822628 4.322543685129488 3.187096508756675 -1.0932325499581301 -0.8833497993579367 0.3892269662918974
Ni 0.06472143769985635 0.6416053084142825 9.526059864532007 0.49385363856505266 0.04512825979720615 -1.8193773887255633
Ni 1.2728886792664809 3.4027705325345146 5.34825517621711 -0.02606892917290994 -0.10114128482771613 0.05736645373461088
Ni 6.05611944752881 3.6918915185175805 5.910526576756509 0.850763123671167 1.2395283198352975 -0.7599347907336848
Ni 3.3706766492963713 2.372886284552254 4.00250565296853 0.44254521809906355 0.33649004090949786 -1.4488302582313564
Ni 5.336509808684573 8.20509384888146 6.49733489198374 1.5225473854098488 0.0073736667562518165 0.408652936226993
Ni 8.310898769568219 0.1746733518428722 6.362301350455731 0.971272785723166 1.422336582816202 0.16182137631659227
Ni 8.645676248850501 5.620450503307812 9.175973382115659 -0.3091000789323193 -0.7653593041833658 0.9167599993872663
P 7.523853330766312 4.766392521035895 11.047822438419182 -0.002757508140479122 0.5830909728663313 0.5045589407976988
Ni 5.615353022999919 1.3777642759259867 2.120933659045243 -0.041704321717321725 -0.23404366411711305 -1.103463483657519
P 2.5865479997681144 4.267078682790174 7.401032579152864 0.3437014710562726 0.10047562621925922 -0.26594565503203227
Ni 5.704310495232249 6.24768901433447 4.52246336633842 0.13450803321361995 -0.03920880898897764 0.7506582505277654
P 6.221079062979908 3.9409963639608865 1.2899293535087522 -0.2715200637960163 -0.2284733691181872 0.04943974268836646
P 6.419301117624208 8.507326584753963 1.3322209577310793 -0.2794524312692155 -0.3170491585760669 -0.8464323575062972
P 0.7493976943474382 1.13594680305281 13.009320899300075 0.5576519639679364 1.206301696571684 0.4073946383398596
Ni 1.9641769383495358 2.1725387462416665 8.004782195360045 0.4647243252992642 0.07669420752894533 0.3283440147635958
