# total energy = -381167.96463497117 ev
CRYSTAL
PRIMVEC
9.25577259190419 0.00000000000000 0.00000000000000

0.00000000000000 9.25577259190419 0.00000000000000

0.00000000000000 0.00000000000000 13.54675877608079

PRIMCOORD
 96 1
Ni 2.102245074612222 6.750882718422723 5.972630532940916 0.3883988139636472 -0.38155633712051706 0.9938375583975595
Ni 1.7527285970863038 4.456802504961866 5.740913196379992 -0.5468885548038454 1.562733213600115 -0.25727152429680206
Ni 0.18337628844847312 0.9736054434212648 4.073578355494475 -0.7038693151986846 -1.007500914817265 -0.4875323243327153
Ni 6.819662363158042 3.88299089476592 9.14530846282605 0.06404977929205743 0.29680814893884366 1.944904815707128
Ni 8.088341830823952 7.930734538325902 3.5940229035763007 0.8383030435309434 2.126810878588737 0.31481178460511594
Ni 4.534190018033054 0.49417864673950807 3.734732857973314 0.08254500988276751 -0.8451128673639252 -0.04590319029001772
Ni 9.376745349483127 6.46257466380552 1.9537537923550305 0.6338023831782698 -0.4918996001624754 -1.1585344564897337
Ni 9.344442703792605 8.634561983483094 7.822317973847006 -1.0390797180648104 0.27653808583589795 -0.5592478477001466
Ni 5.767123692674094 6.685361105573669 10.417511603046224 -0.4738108609815646 -0.34715369127093115 -1.2980299156156163
Ni 0.16829308173865276 0.4297677265789534 10.664401001732047 0.016894204652177357 -0.019123865313644482 -0.056977960046940584
Ni 7.406543123988663 5.917233809524774 0.9989051717107977 -0.22216491040165612 0.18363744375041924 -0.8502072511676971
Ni 1.8050422227146203 4.9958031551457625 9.293550764805568 1.3852270795584145 -0.49756142643394313 0.1817404838380225
Ni 5.60196368989425 2.355936540437864 7.975816628974847 0.4368039447399122 -1.5741584247179212 -0.06383406373682556
Ni 5.12319960651663 8.894251189826631 6.039849654448893 1.2831920792718352 -0.938703850648209 -0.047585463088447084
Ni 1.7662327690239743 9.093972246763613 12.274081636312046 0.01029135462367905 0.9008826660353776 -0.3348396497902685
Ni 1.4052854125789176 7.783826918727063 9.386549063613614 0.6213338183976138 -1.099822544470822 1.236370490932606
Ni 5.684682527870234 2.6164495105253724 5.381747576122736 1.9265078012571788 -1.27172033118681 2.279590456418035
Ni 2.586451552163487 8.66427301290045 4.908044549095713 0.5445339385287395 1.0390545212538298 -0.4488829873916333
Ni 1.850904574977237 0.880366494530711 8.823924905522578 -0.09026320446263164 -0.30801738739110174 0.26349950748438494
Ni 5.980950546755016 7.5369106783012665 1.9112716481744136 -0.2678919801251257 1.1126757462844064 -1.011912413621399
Ni 3.025545395016873 9.052932151923564 1.211363097053144 1.444316172411087 -1.1445260580257837 1.31989200579603
Ni 6.940570518073593 1.0829531386040196 12.278442956268886 0.4629335519474286 0.006601821587233792 -0.14002022128110078
Ni 7.284644601425866 5.911236069006877 11.739010987090955 0.29437639956889944 -0.7422764542219733 1.0611315556585275
Ni 3.7435064046352178 6.327042388491395 1.2687137140238047 -0.27307121033322007 0.5451980544752998 -0.5994904972702771
P 8.476899156350619 7.548693276571763 10.05975471134888 -0.20882859830406617 -0.379140785700489 -0.43198878273945607
Ni 0.9309363326380837 6.7228007049485 11.564474886865698 0.5550947447637214 0.5237013180541046 0.27142107632430673
P 7.188273499153744 0.8063092083705401 4.846691736137493 -0.5295297518104235 0.19407252304081413 -0.72903732982388
Ni 7.851940147849281 5.695067504507703 3.52744057920973 -0.8309604871229431 -1.8724873811766654 -0.0906936071318309
P 6.598051404485221 4.748748078133904 4.984651800553229 -1.0058867762526096 0.4131832199971788 -3.030041218920685
P 8.65897871108527 4.169577375715949 1.6239178636920795 2.0651023458353466 1.5778453866512052 1.9242056354865635
P 2.9844682770872075 5.363460946583836 7.483676103318736 0.4260022261387179 0.7181391948541375 0.3089057035333261
Ni 0.47217582458033713 3.4748483548320483 3.828720598851364 0.15629299029919536 0.29142143070563353 0.4013517745798894
Ni 1.353138390853876 8.188007988071954 2.863242649178193 0.4810590579035457 0.8301932699396154 0.06535384281546164
Ni 3.4400929294544245 8.346226161548678 10.681917551006922 -0.3533973581877978 1.6202477628768162 0.7970949447237499
Ni 6.3780046713487035 0.860185208380679 1.1270726289229327 1.1789369314054858 -0.7414773553594456 0.03381000657090952
Ni 3.7736524553555695 5.609738538713745 11.74402391342505 -0.05447653378132554 0.4042792326393295 -0.23265192597590897
Ni 8.559784598229879 1.9329940204297384 2.1591504889302424 -0.8519039221438297 0.5146345798661459 -0.23549016675565249
Ni 2.517801488241827 1.7487486149525147 11.200202856973066 -0.08487545778815705 0.2591476582735924 -0.4884404379692813
Ni 2.941030937194481 3.1018592384891783 -0.22137956436271672 2.6807087748308804 -0.4791916656775037 0.5495455328107182
Ni 3.667090747666467 1.3660687049024887 6.278746693663725 -0.7353187919572174 -1.1025664257645464 0.13005539675890504
Ni 6.162141547338866 7.7300879041485056 13.089893746209937 -1.4844742326872111 0.018039374000214093 0.22511499416891553
Ni 5.526353285124661 5.089221666020957 13.411561455726218 -0.28017928213291105 0.9733042143308981 0.9747419752186891
Ni 6.498246410651156 4.390651499589329 6.9024117451829605 -1.120763151278231 -0.301157684156791 1.916122344257797
Ni 4.761317417058754 2.1417209439159675 10.904802103962556 2.1137882410768243 -0.2865013676961969 0.6632258306457094
Ni 3.67461569063105 6.588443912729702 9.468764387570811 -1.5632492340045854 -0.6129360812522218 -0.9459690168510546
Ni 8.420836942898617 2.75946044994206 5.641466400937968 -0.7401763771598349 -1.0697486079035772 0.6161959829504162
Ni 2.3491613150380184 1.4665586258944618 3.042710224940389 0.3420752483067593 0.6723748441348291 0.8376674668294735
Ni 7.620009002945821 1.6548302923674956 9.770612711638062 -0.5882285512032128 -1.266864288646089 -2.1086915432802074
Ni 7.86370423457497 7.234830034346673 6.0077163893933685 -1.135825187817676 1.1979502392831949 0.5064404740911278
Ni 4.21727237091459 0.5056909764558032 12.850644987643747 0.8378237899016797 0.20404326110028087 -0.925523090291877
Ni 6.975936824429892 8.5282409258765 8.475814379824852 -0.8363834579107272 -1.937852793956353 1.8106148120415848
Ni 0.9530483729116237 5.9439367129107765 3.9505867262107466 -0.3239029482731067 0.03852489554807559 1.111693584876795
Ni 8.783922382769035 3.994171232884699 7.888142250453675 0.48908141398738997 -2.378401550450678 0.8029159222809011
Ni 8.371781349156565 8.741762339468083 1.2964541894963149 -0.6360215023167757 -0.5571745101108856 0.37756495657293687
Ni 8.151253315855032 8.183537450000745 12.156956315578075 1.0019092796621003 -0.27412741951187625 -0.2188420166760102
Ni 3.9898672987167645 3.5375932359598536 6.797126408508391 0.6322828612099498 2.485953366790428 -0.09903992221399718
P 4.636836533995197 0.650001426318035 9.126491477528392 -0.22399913539691746 -0.730301284137968 -0.4056411459838627
Ni 6.676993887320308 3.5290964368928344 1.617049154990952 -2.053695646660302 0.4144559160620152 1.28956404423645
P 8.970324383216429 0.7206933136320531 13.165918809583234 -0.9093009720060597 0.3854860111922264 -1.5596257783193848
Ni 7.498647315182466 5.944547593889451 8.345263561218646 -0.12001163936965784 1.8066465714224562 0.8918249267084833
P 2.22523577831871 4.032777059582454 11.2746692482735 0.02201635637009112 0.018900179338612613 1.0529004259979866
P 3.8169046798002126 7.6416860219163665 3.1612035488356955 0.6936198695565344 2.2949985634429892 -0.8233914165264334
P 3.353366342027438 7.698312837485021 12.918270437560267 0.06680111678494946 -0.8571836824855302 0.20411705176100978
Ni 8.54862213671046 5.0953212200352995 5.88399355408971 0.866862857446507 -0.014565299408684592 -1.3152969302261799
Ni 5.521170052578331 5.197486435832426 2.5774604948500857 -0.5888684987800569 0.356622807103631 1.1474108357727464
Ni 4.423555770486121 1.7809772144638025 1.3883667862013522 -2.3884867026008223 0.8309897976989817 1.8888853629187146
Ni 0.7095632473160499 2.9947236729110176 10.106301990769404 -0.020560340649854916 -1.3028137101575046 -1.0221641732563944
Ni 7.2804887596163965 0.8928145828370668 7.06464784946033 0.48728421287765117 1.2825264206633782 -1.33392431551938
Ni 5.938124087840964 2.3153870015352354 3.24256549057723 0.6468728432089828 -1.4345063854095166 -0.20816653924003503
Ni 3.5337243230949147 2.5739655151902743 9.026476377660751 -1.9806544625029112 -1.2835684887746475 -0.021472053830846893
Ni 3.2509512203754 5.786172072281857 3.7366025239989544 -1.2304865213480036 -0.760823106875909 -0.978700702756121
Ni 3.245906824415132 8.348688197008185 7.814244163578856 0.4750316207625432 0.6934188092893219 -0.1972023269190475
Ni 1.1257703417456675 7.887834033232617 0.4491687511153148 0.07079146889126518 -1.8416269441523831 0.059500212248162036
Ni 1.4790539186400788 3.566045480330244 1.7462588121757956 0.8260018575660871 -0.03170375886118411 -0.5866552931788218
Ni 5.946602375363176 7.183293893600305 4.06102012349651 -1.1751589524202923 -0.40930676776090796 2.484884816316598
Ni 1.9601874797531629 5.227077140208528 13.426002311831189 0.5906248193495311 0.8614997933623808 0.01205410295105666
Ni 7.881336481004896 3.2630300033628297 11.194066279869107 -0.6872972697726163 1.0159901832351985 1.4960010023798882
Ni 5.72190924447977 8.89304793941409 10.770567487939493 0.6286776603571946 1.228931775266374 0.06531347649582946
Ni 7.8974600365329435 3.246082684090811 13.520951727462032 0.040078098967808395 -3.097211803229911 -3.145676583599518
Ni 5.520253731110319 2.707396730168656 13.26161238931537 -0.04448111313151049 -0.07686312900664181 -1.6492886301938563
Ni 1.183554128864843 1.1165515924311233 0.9864857762988948 0.6530933701973979 0.5144219496347077 0.302367388194176
Ni 4.083480180812447 3.6732736036324463 4.298304807158536 -0.5539146084126912 0.2227920024626937 -1.4661571795455783
Ni 0.852116951575972 2.8492136749452066 12.750602120458897 -1.4123663589773676 -0.896974589230223 -0.8780592403829588
Ni 1.8966466021985995 2.822677375462478 7.362310713246418 -1.220506527317156 0.6113697652063664 1.391206951290933
Ni 5.264229810638828 6.610241256741501 7.842110517556063 0.2814602057278637 0.1944964979521102 -0.7067096128609571
Ni 0.9506788951761586 1.1051669923740055 6.229314389984824 1.420497215614618 -2.0760292771604956 -1.4036271793321569
Ni 4.318817449960638 5.945500938447081 5.664752998729596 1.498651809739174 -0.36324802572963244 1.4102953353809518
Ni 4.537883071222314 4.473314802930888 9.281006416466209 0.9053437871305245 0.9463611100831509 0.37873635117321874
P 0.5165026442011034 8.099291409578074 5.773723058398262 0.011141618439116294 0.7807165033657264 -1.2062875555042967
Ni 0.45254895919731425 6.0286177746364435 7.73080985439603 1.3622115924998475 1.8068070082597205 -0.43868162137859934
P 9.227653367596906 1.6670479119409878 7.91369095902088 -1.4051001643332577 1.4505043034996699 2.448818152501028
Ni 8.991964379097356 5.12597633823788 10.308243507506143 -0.9570458434905066 0.8167073196380386 -0.7691213423289592
P 5.579536953358969 4.117291517404845 11.568145726201188 0.5090470584760395 0.17181628274577507 -1.831469544003407
P 2.3856383140828155 2.6515381437095455 5.093987463231859 -0.7674084734029106 -2.1331602178455324 -1.079307969457238
P 3.8345276704577347 3.954473225043254 1.951234371106618 -0.614606269865793 -0.07961472360984999 -0.4346182499425031
Ni 9.077691343104693 4.964870363771057 12.864367595810158 -0.1144058631471062 1.6238071980933004 -0.08577765788745227
