# total energy = -340888.08749483764 ev
CRYSTAL
PRIMVEC
9.07892343705518 0.00000000000000 0.00000000000000
0.00000000000000 9.07892343705518 0.00000000000000
0.00000000000000 0.00000000000000 13.28792216177437
PRIMCOORD
 96 1
Ni 6.61902549179266 1.9390038492802206 11.287969939745388 0.3403382110109945 -0.09775488485398648 0.8991952510306256
Ni 4.333488211523467 0.49400420114905147 5.860318920817697 1.5321198595896324 0.929631970253928 -0.942538393902951
Ni 2.686498857627702 1.8696862683742288 4.142987883445385 0.718082373474273 -1.0927198719877698 2.0816520226639117
Ni 3.846694491416398 4.3586005139184865 4.576732545662238 -0.41333440086306233 -0.5542074570627616 0.4564178623160978
Ni 4.0042319719508805 2.806168148252703 2.365927516273147 -0.24717634484432913 0.04894763354329634 -0.472264085319735
Ni 5.499004094481896 4.562467741062435 2.5026869724904777 -0.513167251292 0.7606953230487932 0.021734306353298056
Ni 4.827372570882346 4.385819126565004 11.071270562129595 2.5271570947222477 0.9509510434466786 1.3696454230700734
Ni 5.559587750982967 8.041874382373804 12.436299420522408 0.050186133936087764 -0.6463221129118352 -0.3197719568238686
Ni 2.1128924710343084 6.52613902548628 0.19380596412364454 0.5762811490333495 -0.3351607805751131 -0.8102888177062044
Ni 2.7103764264270156 1.7918072626097759 0.3649246063185421 0.011940460191327823 -0.42809793232548204 -0.2637465904981845
Ni 7.7512761990550105 9.042580567075984 6.620800421336487 -0.5197603311284855 0.9906748443988618 1.0824511430719101
Ni 8.857161712479641 2.1966364613783647 0.9583103356443256 -0.49269432814962894 0.9684350591640547 -0.39439205543260464
Ni 6.836302288942915 0.8657561579379676 4.54019078647579 -0.34878248512360577 -0.42446187823479153 0.6168912092452279
Ni 0.5783183478887718 7.648983968004872 2.053449127324565 0.044035026733027394 -0.22714205190127335 0.2401988850852315
Ni 7.577659945005858 3.9284865132084192 3.4951222578861265 1.6502229690826675 0.0033804864364586945 1.3414031403949287
Ni 7.996815685054035 3.8375429365305775 12.447993073987625 -0.35917771231500073 -0.0549105359949506 -0.339377389759622
Ni 8.261012358841116 7.160955514302097 9.106943779429205 0.3457935776986109 -0.25318784114573173 0.01163655579766383
Ni 7.025543370331846 0.6806586972334492 0.3311319451672399 -0.7997688920114872 -0.09990227021429247 -0.880383003420129
Ni 1.9331933382416044 6.700163831092835 9.151112742246186 1.1262730253528668 0.35803871361455114 -1.3738250083690597
Ni 0.6788211231174868 5.00447513155467 1.298841690308877 -2.4176962342852426 -0.8188688460657316 -0.08526677968930477
Ni 6.313056690992027 2.5206541620926988 6.989766056503917 0.8144894860511135 -1.614005124401214 0.8684312303748913
Ni 3.4825751856121143 4.439675300754178 0.6456058815006471 0.6491701238835916 0.3048608440399911 -0.5192008590805897
Ni 6.195711604782473 5.931551246689383 4.621233797079239 -0.5641064613440285 -2.101933398620767 0.5414468149629836
Ni 5.329173751531342 2.7981696166511076 9.545857072793375 -0.689902054385315 -1.1099945999078173 -2.047051916091539
P 0.4445522127486786 5.545252130779882 12.28344848029751 -0.3623761646476404 0.2936050686205137 0.023904831642055605
P 4.2906901661546595 6.11271208616524 12.330062397212458 0.5256160185783141 -0.009181923609584187 2.5789028598359716
P 2.3823639993736325 8.351874225207476 1.2595072542544947 0.758783450738061 1.1682948783106073 -0.24460241346956585
P 6.0452193688823135 7.7294686248132045 5.871135550273022 0.5791816105095962 1.2684370324498477 -0.6393899045683763
P 4.915429049887876 1.2089766897425787 12.72770381224781 -0.030525422282366783 0.030944512097656387 -0.968265623465726
P 4.113442342706372 6.276314287596277 8.318956772281366 -1.111607452920892 -0.5117243481978865 -2.7536617701498383
P 4.7199870637499215 1.183991492276529 3.57308206606971 1.1420403154894525 -0.6126838560320997 0.18355619689052258
P 0.2600249084398243 6.1181231245699506 3.495853111227702 -0.6645975141822554 -1.2358914944136585 0.49294526781817033
Ni 0.40491181697241907 0.20912755541859565 4.929074671905126 1.1336387216893185 -0.016181237745552777 -0.21314805161502645
Ni 1.9004456611849034 6.976716919760475 4.611254244370416 -0.27038697863283756 -0.30232419366106644 0.9501689138650152
Ni 6.0480973876311275 5.577427835656219 9.20996504803622 -0.04135310902549007 0.32322212015599816 -1.0312211412523402
Ni 9.001634622100735 2.3167415403312615 10.180183299740309 -2.45768074509798 2.0582562694477904 -1.8007178646428474
Ni 2.629120061121367 5.251349219307876 6.796266959994498 -0.6649929498484612 0.3610304492530234 0.6516733499214196
Ni 0.6317314706112512 9.033074934173747 9.371904898574805 0.6420810782472941 0.9756220638307971 -1.084080965365849
Ni 1.5457865936653663 1.3407845010841883 11.22064064308542 1.2472606554825487 -2.1233946538183366 2.0246907747875196
Ni 4.238268461878143 6.908189205198794 1.6013005792852455 0.5630674785565528 -0.045061668225328845 -0.6039441621662567
Ni 5.7479572557161065 7.806911842249761 8.062513499161438 -0.6416403911654498 0.4521248913676988 -0.6311816577259711
Ni 5.740784906152815 2.856982883070101 4.735550154409915 -1.4020171545325597 0.7173943462683128 -0.6617605589540926
Ni 0.6737795968991375 7.887296630899616 6.951669985614639 1.1280028635597799 -0.7151477163259813 0.26693295864596606
Ni 5.3234267929572106 4.893222003012165 6.841406459733399 0.18419048804041183 0.3231771258506757 0.02843691518445425
Ni 1.0876641139644696 7.405587107951337 11.224228633651766 0.3007511927469917 -0.49342477855775024 0.7696129372533972
Ni 4.716192073727825 0.36834463680017765 10.429065645371237 0.519499621267931 0.3134115618234796 -0.3968235476922327
Ni 7.873178904860479 7.592358722148857 4.643371844136368 2.0170944504975004 -0.33283778886889126 -0.41611479182167693
Ni 7.5780412597927675 6.488579518975726 6.839293794235452 -0.48787428105316616 -0.7078498971129873 -0.22214819823110776
Ni 2.309242349522047 5.770709038001688 2.689502165520787 0.8700870208107596 -0.8859011050248806 -0.6797629090687841
Ni 2.6940071273604143 5.175830733652861 11.310068039539125 -1.9791809632811783 0.6924803566354526 0.39164431748413836
Ni 1.150118028706096 3.4909187163066275 3.8194141420900953 -0.7144650884366599 1.2936125032742107 -1.686595851284747
Ni 1.266509827948377 1.0679446921271658 2.3307149114867833 -0.21655836284815605 -0.15441094278513406 0.4880570864879336
Ni 0.9442806751631168 3.587845303569544 7.698171759731458 1.301438941297165 0.009528508315725525 1.222295758007095
Ni 3.9678436465715463 2.9598924809180924 7.139002677284325 -1.0684280893199405 -0.1993754233109663 -0.5967311893575853
Ni 4.007037359311712 6.991270434127508 5.947620941280556 0.6282621700863309 0.24956721367400886 -0.13882748652458024
Ni 0.7003753953937035 8.955949479059614 13.211370751102224 -0.22238833926637186 0.22227701049948817 0.3698655310461501
P 0.36099524822867796 5.8068340745995854 7.747602866607786 1.349597760390579 -0.12359318607332907 0.3121452935165463
P 8.880821387115006 1.6671173272904711 7.7925426300297325 -0.4749421463725304 -0.9066203398501033 0.6659324309435951
P 1.917822720759765 3.313017210366495 10.382331886666115 -0.5199526496449497 0.6777736465528973 -0.4978316493761942
P 4.169886010092429 6.217464705483292 3.708220934442676 0.288976825819883 0.9256357046103414 -0.3860765935883738
P 7.085473344341073 3.9153583898305455 10.022375267285593 0.9088181188323704 -0.4703133893512675 1.6728499624535642
P 6.465110501733815 7.965457083292503 10.029405077749969 -0.5201825062675687 -0.5626170212826955 1.536694109223876
P 2.4502925049844557 8.660158151500058 5.649320199266198 -0.7909402379762637 0.6683680369682812 0.45096995182764915
P 7.518292864253496 4.178329408945419 1.3898106879725125 -0.31294953458539654 -1.1351135064626323 -0.7772655687026485
Ni 5.726285865326768 3.103757102664831 0.2021494948181575 -0.3509267851601182 0.2615089594169174 -0.12321060592292975
Ni 1.830710449798011 1.251166447237031 6.943418152047454 -0.35713162841924945 0.7610665903452828 -0.6550558932404072
Ni 7.206958419665641 0.8818285762061899 9.096074492217594 -0.8478490353481656 -0.30558872334495113 -0.733708252936988
Ni 2.7920504222135647 1.8560406463569785 9.079955771439531 0.5836350182952594 -1.1962324852611397 0.11960643351143918
Ni 6.499147385927209 2.0730813914962893 2.296737948188475 0.04872523311984511 0.09498734941117834 0.5747276885033006
Ni 4.318344567129073 6.846888313741394 10.315958600650474 0.3601542172956571 2.1123072856559233 0.7333899503656208
Ni 8.286841896192465 6.9880020216682865 0.07631289146107585 0.10148169888627039 0.6072585712514703 -0.41064451273572505
Ni 7.7440766127212255 4.285851099930312 7.906380528092072 0.2800409567828338 0.0381716259737149 0.6695759412334533
Ni 3.034966099321714 8.613728536732115 12.49452709637579 1.1317132225318316 0.32977251968000626 -0.9267011697603783
Ni 0.507677967829145 5.045693444234853 10.101651519376361 -1.1922683584070692 -0.7795384238972253 -0.31884018903821865
Ni 9.030587309135338 2.7158782540667055 5.729127568381592 -1.101726189251438 -1.435860842554882 -0.08991147755016775
Ni 3.595516993925217 2.5257292803279903 11.4966036017257 1.036627656979892 -0.2621882448721291 0.4169797109251335
Ni 1.378471112523713 3.5591014317753893 12.65762269387565 -0.04961766302712745 -0.23327747537504984 -0.22914057038854088
Ni 3.3454380461772737 8.62143654278178 7.840272346642566 -0.5094368377152902 -0.712475825920773 1.3532384424669597
Ni 5.91687062739338 7.968044576489387 3.5168217929383085 -2.8827126369036287 0.5835951661962595 -1.0957982538027773
Ni 3.0868339892648615 8.74845068251653 3.1860048864164434 0.4640206143640202 -1.0246265187539578 2.091706064465804
Ni 3.454612101238774 4.368151541438212 9.140415954581032 -0.4516903749334415 -0.1732247330575275 -0.890946380758272
Ni 7.2205677259889 5.997591336212656 11.230659235165286 0.37250142600710034 -0.05282742821367676 0.4821402067828664
Ni 7.829137046972468 9.017513659298453 2.4690159689140465 0.5929226142447724 0.20863885089076326 -0.05877876070110522
Ni 4.409733011058309 0.42587595922127636 1.3884415863090385 1.2852263360930447 -0.5433887691807029 -0.04467111765512952
Ni 6.344569634453022 5.604319607056815 0.40950212069292585 -2.096035802189409 0.8780019047824621 -1.9778319054524518
Ni 8.101931461312 8.519207864196126 11.221530377588211 -0.42433203752514664 0.05752611924092673 0.6015324674009704
Ni 0.3014529442528081 5.139578592125995 5.48043043279002 -0.46975340308273933 0.20876226384250499 0.5831200263320538
Ni 7.4535056661729255 6.36863786064579 2.3214662121195357 0.9603021456442752 -0.8600530336135253 1.50371071231932
P 8.63583571544935 1.6764867763402396 3.6728213038322566 -0.21610507736082138 1.4141643314180548 -1.1096511005254694
P 1.896823170709266 3.2412392411925897 1.7084545738684764 0.19249797946484265 0.021966476968762166 0.17660907614872812
P 4.87052469426757 1.1349017529237198 8.002956668907972 0.3204432718592804 0.25367480808447923 0.7454934184973742
P 8.54224109311014 1.2957167248409214 12.152031062666307 0.45256532133922706 1.830485839933899 0.31526892674719253
P 6.297277521952784 7.855030136788302 1.240333475719411 0.3233658448227141 -0.1272886326470453 -0.1361471114789397
P 2.2157929899588025 3.3817083455511363 5.795739630085227 -0.30379769288279934 -0.3776554594042141 0.03837885688851455
P 7.211570512802544 4.064052998878133 5.790743498484367 -0.06857337819402383 1.8510253546481477 -0.6422978222437906
P 2.6956231757430293 8.72922152254811 10.230770153577913 -1.33813886782136 -0.3667493540146716 -0.6962678487023428
