# total energy = -340872.7002194525 ev
CRYSTAL
PRIMVEC
9.19976587411698 0.00000000000000 0.00000000000000

0.00000000000000 9.19976587411698 0.00000000000000

0.00000000000000 0.00000000000000 13.46478728335649

PRIMCOORD
 96 1
Ni 2.894908727720159 0.43966877090777834 8.408571291002252 0.005364349635706891 -0.5171023246803481 -0.007088017195032954
Ni 6.9525574649711785 5.894556789938124 7.884036519841915 -3.0894789533620277 0.568220483512402 0.8869616850789112
Ni 5.385984532549166 0.7383161706561374 8.942503623004882 0.6117191781259851 -0.382415856907335 -1.252359924382327
Ni 1.0654708849243344 7.494193680918338 12.79576208176628 0.24720539831005164 -0.8877098760988454 0.2791958351737192
Ni 3.0112673665193035 4.870089261522945 8.637823016795068 0.9534085038482354 -0.5611910874694463 -0.4101706584231001
Ni 8.188665607362823 7.956270321570193 3.431676427565759 -1.1873961179164323 0.08634252925198678 0.011710346458392735
Ni 0.3736392912862489 0.21846132039690208 2.1019477877139927 1.3813434282332921 -1.479269291447504 0.8929425852526944
Ni 8.940038085750123 1.6262610134252424 5.503004634514793 1.8339385743691898 -1.3806443452837383 -0.7146373523484659
Ni 6.229363869461945 6.624263819687538 10.771964465215396 0.12876418875130727 -0.1960404454004624 -0.4116624124772781
Ni 6.24757020613047 8.104993736720965 13.401462707343864 -0.45413395137792756 0.9628328824859289 -0.7221876538918981
Ni 9.095836120859511 9.305471185875016 9.58985066872635 -0.7641678549784258 0.6068934746025677 0.0915641826622423
Ni 6.96027606854111 1.5822585332405246 13.20191426563476 -0.03045137451132175 0.31998150173151346 -0.4659988211363136
Ni 3.8720894595329027 1.8484353593296818 10.294758809580525 1.5180065601167019 -2.2602259358484944 1.1467775730641219
Ni 6.226475142976893 3.0260053914525917 9.0796831719345 -0.10132846113785773 0.024055241176990826 -0.9113514267771853
Ni 1.8342125212854474 0.7267281455587778 13.367517411214745 -0.04139321823480613 0.353749599320894 0.2227860889254228
Ni 6.730300321173856 4.658733840288634 5.94043510238495 -0.31794801624125246 1.9619643422925759 -0.5661083222654058
Ni 3.573796250770768 7.0675913374841866 7.286227453432731 1.8404807463630817 1.0269065730373863 0.9974203906528112
Ni 9.056939510735951 6.4294771767958325 5.566410340908499 -0.7799207469373084 -0.7904720400905935 -0.13859968678449036
Ni 4.10483433642882 8.120936930984005 10.016657246962948 1.0197208539222244 0.7806038890472621 -1.1228637425610017
Ni 6.971269788762883 4.4092085904349645 10.833067470210349 -0.11047850306824199 -0.18388786919832845 0.7374625777730976
Ni 5.065078299263922 3.0018192069646923 5.720339903568478 -1.5295973502780948 0.9763044346098023 -1.36187272110319
Ni 5.990528747556142 8.944527571497593 4.159811217326971 -0.8152235360036606 -0.9861872409411533 0.4746223011392665
Ni 8.842888558099984 0.2143931839265525 12.733985653909208 -0.7278520512665272 -0.0008551489114436884 -0.31875611396484455
Ni 0.441812316356877 7.140977869876721 10.497336734192581 -0.4348283090707802 -0.39833561346138496 -0.7253537103247056
P 7.759809321289062 0.788889123629466 7.590100320198636 -0.11015454406991997 -1.1319669904138503 0.691447287385248
P 1.9846194935915213 6.489321653818953 4.946962505182468 1.6336694355993608 -0.3464052431406809 1.1611988906957742
P 8.316266360062393 5.401890927748702 9.477688963119817 0.8185721407609192 0.5163258515256398 1.2706857192747083
P 7.899406568690882 7.621564439471007 11.93327575110572 0.6635019671252315 -0.18844797776518513 -0.28938331722968225
P 0.33834898938606545 4.301249337880572 3.0573278343304735 -0.4187162340002659 0.2921937900952839 0.09398487628859298
P 4.270871710958151 5.961853077320773 9.95743927399598 0.36183366188060906 0.06059935884961176 0.4295737455400601
P 5.452075650602065 5.266065584356024 1.327393739272448 0.33045257646616644 -0.09966495739250578 0.7079727958440969
P 4.343963850842655 8.533316436373923 12.181566392378837 0.166759437048158 0.3147552203355676 0.16912073819148293
Ni 7.908173945570672 1.7808170801413743 10.95748234398707 -0.6424456606755646 0.8640968646655958 -0.19843517088488405
Ni 5.9978333616616535 7.390963108024189 2.1476871836960916 0.812305076805285 -0.42732068783982535 0.5761729055902592
Ni 2.732017673120407 4.781569114264456 3.5526708283898008 -0.4611543485598187 -0.3150853499814767 0.45985311324989186
Ni 1.5102427659635078 5.009585311500129 10.504944020595412 0.4531343064688196 0.1046752661229036 -0.895471008101503
Ni 7.6693388236648685 1.1848654464625463 3.44193600647063 1.0718494562966638 -0.8187004388086675 -1.0540738774807976
Ni 7.809009669193697 3.3772616523626295 4.317981872055768 0.4648662501937671 0.7237238880307665 -0.38128251463384016
Ni 5.806432232612301 3.713494695597224 13.170191632941274 -0.22377724919409844 0.7866704069563161 0.357898588492261
Ni 4.491463697131925 6.148856718281418 5.259157480159766 0.9652502336781699 -0.07938306721501813 -1.0743208006552916
Ni 7.821061362491205 5.32968196538829 1.8377148721544256 0.25817938082305214 -0.8389563608442261 1.5983604758854215
Ni 3.135409007249511 1.216669037095741 3.2796052176127244 0.28123780530441245 0.12245701558635684 -0.11725644522202387
Ni 6.365713599509552 9.05085846549194 11.036696008085439 -0.3414018763888185 0.43791980351191034 0.4661343182729133
Ni 3.0346531713759943 4.682303640462845 6.244928033370895 -0.36379644203393474 -0.9242899892157244 -0.5294536471568495
Ni 1.8973965133215425 2.9552683916323335 12.381127713760167 0.01470619586192306 0.3381915969816369 -0.24892675187653254
Ni 3.5862067349374387 8.796107748620726 0.8607024960572116 2.0139119390044606 0.3127178781905646 -0.6251182251407105
Ni 8.719915287636024 7.542004864175703 7.847587967417949 -0.9470925889325367 -0.5530494321989186 0.21966708368046683
Ni 5.593181659607543 4.470157039363202 3.6498994740264736 -0.04316933629862243 1.3624545617485888 0.6310250775434487
Ni 5.50974898287846 1.0619841736573454 1.506696256218325 -0.9278661366027569 -0.5452543616345319 1.5340661846827257
Ni 8.788573140368316 4.899758506472916 7.429626964071087 2.4837794990675612 -0.8326993241909207 -0.9460338086507191
Ni 0.7065144199761181 6.573131520948952 3.231253088121852 1.033916428696316 -0.5512977396151344 -0.035664286170828896
Ni 0.7987669122504846 3.967371434710223 5.290638159010715 0.335418405111874 -0.11244796808978696 0.06484142195541737
Ni 9.095826921093634 4.230953926822359 11.891076425032692 -2.04805336077286 -0.8046832985939689 -0.03896069753391355
Ni 1.5481458013724638 6.2973501392852915 7.354830107569767 -1.228806305432103 -1.3085603828332948 -0.28837698745235496
Ni 2.133204912254155 2.802451080666758 9.595424806870595 -2.3087925319032885 0.07834485575849087 -0.7987458500636114
Ni 6.777715914498555 3.128959971370463 2.1615153517842476 0.7012293064726762 -0.13329550096275752 -2.0322361912349454
P 5.7349500517560905 1.9819699610192447 3.7236733165623863 -1.482300879184976 1.3823492437899871 0.029321888892568853
P 6.916981970328841 6.627216944533721 4.683443491454876 -0.8279733794701613 -0.12374436693921269 0.12223744337638302
P 1.5753771083653063 5.18266050692457 12.648188637350003 1.3848028475368022 1.3315825547600808 -0.05318198333961808
P 4.212931585471353 8.515165298300653 2.952410024374673 0.4277721735549472 -0.8132967512945929 0.3591363175541041
P 1.1135212620944748 9.049855691011462 4.481660426614503 -0.9213059668867358 1.2368993668528827 -2.9520987408069352
P 1.495403543605584 3.5049360031892056 7.453796588980409 -0.8020540885012382 0.43347025238098896 0.8599509608180222
P 2.8699957617280583 2.8935563621363922 4.822265198593353 0.4357580199739012 1.575411323288416 -1.3236972384747332
P 0.8641956471603136 1.557419165375432 11.08920827170542 -0.2935719013897331 0.09569337433926745 -0.0921100278633833
Ni 2.097381023933166 8.942025235179331 11.108382423744098 0.21738600095577398 0.7633147629495113 -0.794669880222025
Ni 3.0974875723088027 6.784063752952967 11.625712858246969 -2.050606980432649 -1.2452377115152489 0.25050078123187186
Ni 1.0860323616571055 8.477041468510674 6.444072605358043 0.974490007108883 -0.10556898158176659 0.546762313638626
Ni 3.994161152941019 2.1069395806782887 13.206505868783454 0.37445597863030994 -0.7825908375703039 -0.15596723152866043
Ni 0.07020065346968975 2.1548887604237934 1.0604018139266804 -1.052796810540587 0.8110048699366226 -0.7428642084046432
Ni 3.415008291751694 4.721549841689691 0.3117607460279528 -1.0288963497739056 -1.4894302911409059 -0.10708953199135104
Ni 1.2496133986975546 5.67779190636875 1.2095944171371273 0.30279984774590435 -0.199998658717262 0.17245365921945782
Ni 8.685370166771794 7.472187840943041 1.1653398633674084 -0.765553679582359 0.0005023935577152638 -1.2415371227352103
Ni 5.948734211181654 7.686091597324992 6.47584859669361 -0.25489993874083194 0.47917803883074894 -0.0039337878367674195
Ni 4.0857724215338305 2.4031904414159597 7.755004283572048 -0.5487695738766419 0.8363538902243725 0.4880871683949208
Ni 0.8499562495375024 2.074446007604397 3.3465114349222325 0.4923050631310102 1.6076159330454185 0.8975500021177187
Ni 8.067946279538473 8.552921137455593 5.613187470481407 -0.6597928937047606 0.9589124643856002 1.3105208489937752
Ni 3.8135145502006638 4.0098007549301515 11.050631813434345 0.13124093242657398 1.6923093567297562 0.744323566558989
Ni 0.7229369220412947 1.4764888249646098 7.7518533637595315 0.09494621176059777 0.25347529047916345 -0.0232276030693729
Ni 4.320145656989793 3.23882357546118 2.0736575876688272 -1.147424205509185 -0.5747348875921521 -0.2061677636424514
Ni 6.727264398434789 7.997126481825332 8.855467397982185 -0.2534958593044538 1.249450721155332 -0.035183232769352306
Ni 8.910083648057999 3.2495321029407975 9.224456207618136 -0.09361232344052266 0.1605021432845365 0.39522586418780964
Ni 4.9137145513067475 6.10020835632934 12.713587013032441 1.3859832409981485 0.16848798970349046 0.5208327382570579
Ni 6.550895686826756 1.384859156840046 5.8207470683152955 -0.7399498629713257 -1.9529258862393915 -0.11274364495333486
Ni 3.6262717153272455 8.410251168251202 5.200761046285522 -0.6370234612187287 -0.6746968073997864 -1.050872082714048
Ni 7.823471701150707 2.912673475626638 6.887225327603048 0.06875772629068803 0.2541617750232268 1.8066560845041528
Ni 7.337843659856394 5.919966543287527 13.199248173483907 -0.06607580858315072 -0.8353907549801548 -1.5086680563245953
Ni 2.30743007841309 1.17943758459573 5.79760045737138 0.5146790599508362 0.4166642365672437 0.7946917345988959
Ni 3.7736795639577556 6.468456584812276 2.0177524503937923 -0.9411461415411146 0.5721427013849437 0.23442521582624787
P 1.457914497661046 8.05367744266486 8.598573135661871 1.0902678109028514 -0.1334086295018541 1.5906574508142088
P 4.948443667488498 4.503110600730891 7.407302812196481 0.9744110742418314 0.34435838791398116 0.0885307951525572
P 1.8355188880398339 7.8810806350659695 1.4341616221459044 -2.0146328763308854 -1.2970384982366243 -0.10971822786344976
P 2.1422206828125963 2.6022365759082358 1.144562192136552 2.080278539355153 -0.11626014274702559 0.35357579274719103
P 5.614791909650173 2.702514023956202 11.231665726318075 0.6085631489955068 -1.2318533197885428 0.17681296462941806
P 7.442343800441426 0.11875425783324509 1.425032694467189 0.8242164835308903 -0.19044032560486557 0.11953212863007802
P 7.970585157273186 3.543989009332657 0.14262949023453708 -0.5226157982994096 1.0370202644326205 0.02776971391410056
P 4.470736624613387 0.5040395327418721 6.6410487925282276 0.7662846442111125 0.1586208671014236 1.1334780277417382
