# total energy = -340860.2023679921 ev
CRYSTAL
PRIMVEC
9.37439402307686 0.00000000000000 0.00000000000000

0.00000000000000 9.37439402307686 0.00000000000000

0.00000000000000 0.00000000000000 13.72037323104323

PRIMCOORD
 96 1
Ni 6.611900581060529 8.403375364302642 4.488578818469989 0.27598864109033117 0.02314584198884401 0.32258062991725733
Ni 2.1887053472055307 7.416307940836265 9.221215292990992 1.470755340439222 0.6493092205646173 -0.0798396951364625
Ni 6.5597320794214005 4.109462395695661 0.6247574139424754 0.08024644365657793 1.6251955938003946 0.7947393000073797
Ni 6.024172960168317 3.0434719506120658 9.430876423217335 1.0849955067603185 -0.11338025009606925 -0.37377797872667884
Ni 4.377176334565423 4.33821635382648 2.6527931504933164 -2.1051030545980005 0.9338622062851917 -0.638081727279914
Ni 1.2958318328981773 5.7349916594380685 3.422725239536247 0.9016102882300214 0.7448226176825946 -1.1193624142759624
Ni 1.5502247581418478 5.088711574711537 13.1778835062848 0.25803668459760076 0.5667688386675399 -0.16280045240040997
Ni 1.886418643907178 1.3032563528080048 5.19237924627065 -1.826686520792467 -1.3565885898861152 0.3229354421535148
Ni 3.5684473792361144 7.294590811405457 5.7792547347641205 0.6049096114033196 -1.0531765624775087 0.76551177060083
Ni 3.072832552073656 6.290012020272972 1.2184312128382262 0.543653078585683 -0.8963876063785015 0.10074944870593616
Ni 3.0824788033201362 4.338685073517757 6.589977623660121 -0.33894775842137115 1.2722967725155703 0.9390645764217376
Ni 3.6753623408163945 6.6078227197464185 11.342549684090516 -0.7282850250388876 -0.8051725795255618 0.4215243928730224
Ni 2.256313475475323 4.170386581167843 1.6450589383991552 -1.3094993497077962 -0.961351412844396 0.037509052689051525
Ni 6.0214543859589105 7.354886912491328 6.66350474419136 -0.7556238220631567 -0.4656303820533013 -1.9077161224719723
Ni 6.547020401393968 5.346751139153342 8.007621267366744 -1.7039363994457235 -0.762330544659371 0.46666113731066083
Ni 1.9841092019631272 4.481185234059787 8.74788996202752 -0.6448807524796184 1.0363201530418023 -0.6662450770880075
Ni 6.446255042163242 6.238134124842436 3.293191740533705 -1.4106668597877576 -0.6312492777391129 3.5352143962636147
Ni 3.0620426247804597 -0.08066478399000394 11.205675097283194 -0.447126666822159 0.46417462344338123 -1.0905105230412768
Ni 9.252001739753448 0.83053942000381 11.82467007134111 0.07591182083696603 1.099113177108623 0.887201054783227
Ni 4.12421769157706 2.552272462941437 10.947032759318406 2.280783705395188 -0.6981774070202299 1.4139265043756357
Ni 4.419342357992701 1.0000040869456213 12.903448127042124 0.2943236919540931 -0.6612267979378095 -0.1823557488245182
Ni 6.220069667940621 3.533359023147119 3.2974992744965403 2.2310919945970156 -0.8209067024313669 0.37636270873471955
Ni 7.89051165250119 5.887531795767251 11.332300659321055 1.5489572428619454 0.5450461022784677 -0.021444543027021132
Ni 8.821763935130303 3.023729477215479 5.433707078839666 -0.8296314838988745 0.5345179490536343 0.22317226862024792
P 7.810388708474301 4.4619771011112555 9.918059920573102 -1.2469922323125104 -2.337580145558942 -2.209895563025059
P 1.9572421892591303 0.37233498628093314 9.166965675922594 -0.9495965863013129 -0.9688492638833378 1.18533152207792
P 7.465345394937662 8.741012906717105 1.046925740360595 1.4753509302297043 -1.226338817728217 -3.1505423963322516
P 1.2714865321332507 5.827601296040576 10.538275440707103 0.36259213731318846 0.052755437325160755 1.0887068941736346
P 2.6324891509065798 1.5698078668434003 0.6887554631500523 -0.5529015937671445 0.3399394329106791 0.2155713163445384
P 7.667513572179251 9.182640599838278 7.229442524075487 -1.080289873754533 0.3888765249310141 -0.8607981393096659
P 5.465009117262526 0.7353827605989042 10.642687439135964 0.7660954110184419 0.3355711286396543 0.8810795152665213
P 8.544113138805468 2.5360453872294277 13.21274687692198 -1.2004740341463132 -1.4134377376646754 -1.1876547708944578
Ni 4.447109312503949 1.2254957560251531 1.808948653332918 0.19816314817042002 0.012321754790146522 0.20545016875013647
Ni 1.1804986656625627 3.330572135913044 3.9871124946816296 0.08132579276368573 0.5577308968349879 -0.10135700038294802
Ni 2.6435603100145424 9.088971656733486 7.144582698848554 -1.6153341276252824 -1.0637250274173164 -0.45602834018716304
Ni 9.184243621182446 8.161225397395125 2.080392663505863 0.7436651070393838 -0.049185974806347545 0.40612477048850054
Ni 8.935803436017993 7.746127238800227 13.314113134796923 -1.2138519981151161 0.6840777343940542 -0.6645291228381652
Ni 6.583196187166727 3.3355124414591035 11.94772773908897 0.07070765092820726 0.19628187198730712 0.06598633419313797
Ni 0.43004187979219044 5.141433165586372 5.6948739410616716 0.9046156507152485 0.721805330851815 -0.5702891931159727
Ni 8.60276872097187 4.589431359563293 3.290845329759172 -0.8636883163732674 -0.33964709848124086 0.415699044440497
Ni 4.794243115863684 2.1623633005557643 7.284557397693981 -0.8693655692637028 -0.6910971031346808 -0.3311246628325265
Ni 1.802489695987121 7.95999465953609 12.574310347509277 1.4219318911786156 -2.534901771664673 -0.000601895250057028
Ni 6.815915513885749 0.2525546066144823 12.433786309185674 0.21522421741776485 -0.12586424149569292 0.42447319108870124
Ni 7.804614081877769 2.1868960891972016 7.492092415400692 -0.8474271173193987 -0.5342338421543122 -0.3588234142993756
Ni 2.0753220538856283 2.4742025111623422 12.390978139781344 -0.9256992108584251 -2.036481853885177 1.7449709487895304
Ni 8.61180563661969 6.8649154704118445 4.066347683613238 -0.01591718545088872 0.40972920001030727 0.5003487593710931
Ni 6.572556250174738 1.7381907287377443 5.034388837371299 -0.5054945652380907 0.7784850429320463 0.18874776839379107
Ni 8.710349264513763 5.311925266091462 7.641945850459474 0.16311978341304167 -1.2571054094871124 0.28724081696538273
Ni 4.3618398262668405 0.6278265904809571 5.433198986694322 -0.30852080939008153 -0.09772865960174136 0.46623330574462285
Ni 6.13539076851452 6.009586403375778 12.879999955766303 -1.4927863520973323 0.1875426923420964 0.37222760352042344
Ni 8.618367712297568 0.7382972596392645 5.394740536025045 1.0803261263091073 -2.227726934779525 0.23733930414924928
Ni 3.9077910613268254 6.160514143966966 8.241224599423516 0.811229584352919 -0.44490317680827896 -0.2687561278976339
Ni 4.5433093419416375 7.817522622175537 2.967222506113891 2.2347455321892027 -0.4568022422387101 0.7541222978169657
Ni 9.381237133032336 6.860078283197867 9.040902577514267 -1.4591421816803258 0.005143491874152432 -0.2466137874726398
Ni 4.98384960537905 4.871122519626935 5.085277734253242 0.27417472781004393 0.3801314317485324 0.2462044678493631
Ni 6.922333632593276 7.757254644271142 8.57738754968922 0.34977261695101697 -1.2193302476208678 1.7455949555267742
P 5.44509790477708 5.8597742156498285 1.530726956424108 -1.495002900132677 0.2456974463059575 -1.852029884653262
P 8.154307094751877 2.441073403382885 3.1138389629847145 1.6116700485101338 1.0409797633010007 0.7883621928364423
P 0.3146918386476896 3.3241413017487242 7.57206818144452 0.3831375655647079 -0.5134703843547157 -0.34222334384884934
P 3.989104553369557 3.5672193336449682 8.950800591260093 -0.7167371723002882 0.4717205541114392 -0.6144607454268642
P 5.415906042404349 0.5636026183821846 3.5467850299840573 -1.8727992559901294 -0.31924333801390825 1.5453900943359773
P 3.267060617745013 2.7349325266320776 5.366325810900452 1.1789772977251178 0.10601352531835291 -1.2249645630885095
P 3.3818313213510955 6.280515759327701 3.848647073242113 -0.21158842043739046 -1.1465266333955804 0.27480361964329447
P 1.8110953895189665 6.522787593354948 7.074416298503771 1.1984611174813424 -0.4991318562448565 0.19658140550559694
Ni 0.7034460757140556 0.676070033425332 3.1194092277958503 -0.33328490370863895 1.165754885497573 -0.08771549834011344
Ni 5.728467081335493 6.263201253931928 10.243068279625799 1.3299321636408514 -1.4232914905303036 0.1385104695047937
Ni 4.0511161685255015 3.1502369218911372 0.16042587641522585 0.11667743279010229 1.2362236809420966 0.36798888284872755
Ni 2.6435790588021932 4.068083821349728 11.060060763112322 -1.6397020149466857 5.077694773151964 -0.4370700539171053
Ni 1.5788635312788717 2.4732369485983114 9.913875191169382 -0.3778675754150202 -2.083946218014727 -0.02420102272623574
Ni 2.1939643821416586 1.9694007780508553 7.5498546178355195 -0.6724342366178548 1.868279513742905 -0.21280892310805286
Ni 4.70272090894494 8.126905741599824 9.713090674456442 -0.37041728978456206 1.594486594752312 -1.3406588060297362
Ni 9.036962519789391 3.7702218319370306 1.0304577427272694 1.0604720676976573 -1.0524322281123164 2.996039408053943
Ni 7.671375822435373 0.12120716240669802 9.879628655645918 -0.4191643772812781 0.3976583848887022 0.3778747745038718
Ni 7.685915507258785 6.218119794024909 1.57878947356765 0.3846259771847763 0.8476613448173919 -1.5341302051514418
Ni 8.50352201354088 5.281327244644902 13.365783856123917 -0.2380088194124481 0.48181856177738963 -1.6558040627148707
Ni 5.432920567197703 8.684775918157692 0.9480765072278091 -0.5684760511666339 -0.8004517770111247 -1.4142882585904288
Ni 2.6669025506401365 2.1410365546026617 2.8349582461899687 0.14189044172062015 -0.34703156387077005 0.33179443520604146
Ni 3.056014889550638 8.449975476009397 1.5235377337993017 -1.781132486311752 2.467875940463427 -1.3837744062722876
Ni 2.7889009118857095 8.756546277286024 4.113888984460081 -1.7846171024262425 -0.12558836212648694 -0.7258687022879111
Ni 7.207080845044043 0.6472756453508043 2.5618127835376887 1.0396448465396613 0.7935820464744848 0.8644740454993564
Ni 0.5254441483153253 8.291801328991067 10.669592886854648 -0.7258165088937371 0.7146802897712595 0.5760507781900983
Ni -0.01849474157840726 7.570385477752834 6.60819769549944 -0.6541920025782153 0.43163654160635984 -0.8051383838535167
Ni 8.669045685318435 2.084171481656938 9.751425383127222 -0.0171464298722995 2.1466155720194906 -0.3451112069196056
Ni 6.127197548310999 2.027353280680342 0.6415966375712924 1.7632928870271698 -1.6550597283496786 -0.8799487440961878
Ni 0.1498534350587822 0.34092233001093225 7.93250237476393 1.2810981728572841 0.653929750055764 0.7975957956195683
Ni 1.2287767938640919 0.13371260376996796 0.17254228043473593 -1.4595607572749831 1.4254399043318742 1.2769090744766007
Ni -0.19584983580317528 3.6901457598792704 11.540315645991631 1.1691870511075735 0.3666529376461234 -0.3344082186798047
Ni 3.9526944077511605 1.1387263667759575 9.182249687615753 -0.05552837208460759 -0.7290591842007509 -0.9364667337875743
P 6.158882999441323 3.4840028396556524 6.617898318230109 1.6623439207159179 1.0677459756512515 -0.8553049774055785
P 0.5698431523518465 8.440497963851778 4.5818634114279355 0.5451767143190611 0.7441191638576669 -0.28137561643385733
P 7.460076985607708 7.880687287772024 11.21156127916625 0.29192793802840694 0.543091292544942 0.23093031529911195
P 4.323676669003069 4.574413580654778 12.290202468717412 1.2289006649181222 0.3607530272219206 -0.28519833261405725
P 4.633144157971785 8.949368183883548 7.518119482417921 1.740199495542816 -0.4403857485538996 0.06880220637537829
P 7.313639579658953 5.5699648305332685 5.244324637336731 -0.0541947408748486 -0.028792241641343964 0.8035000769191454
P 4.166983676209172 8.136111396336505 12.804579207682306 -0.8383855759424206 -0.036425846927201785 0.8459186510946721
P 0.3872215236758902 6.3146947992156175 1.1230458182239773 2.6020067928432864 -1.3437217612257761 -0.29803122271266735
