# total energy = -340867.78298537864 ev
CRYSTAL
PRIMVEC
9.26687045676541 0.00000000000000 0.00000000000000
0.00000000000000 9.26687045676541 0.00000000000000
0.00000000000000 0.00000000000000 13.56300162309694
PRIMCOORD
 96 1
Ni 2.442228068602915 8.405440578429884 7.99174061393123 3.108807221376994 3.6402462743949884 1.5512085007899672
Ni 3.0999163881430527 7.4303804845616925 4.908097776737065 -0.4624401572507778 -0.032281999962157304 -0.7897770709060978
Ni 8.14923014813842 7.204546855141736 10.311475484047286 -0.5773514992793928 -1.2732095141378266 -1.1062338473138045
Ni 6.506603250981151 6.81380000171039 6.068182056560313 -0.8714481628243443 -0.11713431782186277 1.1391264842767672
Ni 1.9823318289289877 0.2892922306060428 5.924305554836419 0.18733134766223866 -0.16718598306261528 -0.3542838745578092
Ni 6.513145661419004 6.9537482771104795 1.8865596509769027 0.9417740049331005 -0.2748876947166685 0.5830457214506926
Ni 5.029908933569213 2.864945624598842 3.2734172208693977 -0.44334174585843006 -0.4032461633891249 -0.1341043700172981
Ni 3.9680367986502967 4.048343496744401 11.94268374361033 -0.8174434264731147 -0.43883254513416675 0.17606580205074837
Ni 1.751280951525304 9.1046074094712 3.4553101313471872 0.873906651667166 0.021212886632189273 -0.8317503300140902
Ni 8.304376090844572 5.189085964859594 11.734546129731628 -0.7799433726451277 -1.006943242541582 -2.376032021777237
Ni 3.9702701143946633 0.341005073676011 4.521849988840533 0.2904706367565901 1.142668950212387 -0.7343379161011868
Ni 0.654898991577257 2.3894903096768183 5.131046629429962 -0.30624641153360804 0.8200204431716716 -1.4641951707232008
Ni 1.4632388217238879 7.296094266920141 10.384837589532145 -0.3466240440197063 0.3842907053325446 0.3594062833860391
Ni 7.050485136261687 4.206945982075652 2.6283466719414146 -0.5519541422522107 0.6355124238908411 -0.4109311907382084
Ni 4.203211433341296 6.060134706384348 6.453276119103429 -0.061393572616132985 -0.017786377449143565 0.30740469350776733
Ni 6.472186094655105 8.863400042209319 9.531019666659157 1.15074915611736 -0.36769809108118606 -0.7584304382740165
Ni 1.8988280605784245 5.930528258248627 8.515543971314179 2.300013757269394 -0.01205204606852763 0.9253834793902191
Ni 5.674846039564753 5.683732968190675 12.336471983876951 0.14206939050064565 0.359372087713994 -0.8791864120088666
Ni 2.0304732201820315 0.22397840198418 10.4023204670563 0.8218212438258362 1.666803499149168 0.07279255848169398
Ni 1.3447618848287648 5.268947853178887 11.391320713929682 1.3937991374981415 -1.426255201144318 -0.5239404306481041
Ni 1.567361376511029 6.983652467596249 1.9561371666277407 0.505259052188517 -0.5450160203714807 -0.4044162724378261
Ni 0.5335669319400623 6.783747541299683 4.59807463056371 1.5660422233686901 -0.21811233759883727 0.03227042999793152
Ni 9.22733783983796 2.783258162828759 10.97469241841352 -0.6571737109143586 0.024740697279789652 -0.3065857971508978
Ni 3.9934928913879504 5.304782840662145 2.373213051979808 0.0797965006033529 -0.5067266378729788 -0.12904983831252614
P 1.8569603405242856 5.392975645388847 3.5377194823143077 1.0451279811414194 1.1432001401255085 -1.168446059176491
P 8.416004810581658 1.4893250616425244 1.4225961819245423 1.3719015660941016 -0.21067645014608233 -0.4301746123488527
P 8.741809436890515 6.67684492541997 1.7314934033554052 -2.1017477649725222 -0.837146818439313 0.46361438006453703
P 4.597257292602494 9.29420757598463 7.620969426137047 -0.2864458318679131 0.00014706710082555317 -0.38224590698837396
P 3.1713083570003096 3.2078012922754753 5.972481233509605 0.7086250847161151 -0.15749240992393523 -0.41715814548452673
P 3.5775123501063573 2.086398782494278 10.956477458134987 -0.7583088250944875 -0.1288840021586232 1.0100974718998477
P 3.0546847941669015 1.7242865583164269 2.3991046876219646 1.2498003911852669 -1.0307002357518638 0.35764636327213895
P 7.519527776930177 7.634789109828224 7.999864879130758 -0.5662186225910248 -0.00624315269623441 -1.2168046529855367
Ni 3.9466210613671815 7.583107774117305 9.541652473651215 -0.6289352848939557 -0.9179961857872125 -0.5286900295179475
Ni 0.3605331494772697 7.985771822765478 8.283982489356491 -1.9238094284894096 -1.5166248492778267 -1.1314057185937416
Ni 8.933763388462323 0.12490629151521178 9.936662087424503 -1.140106074581217 2.554224897473317 -0.6484018782589994
Ni 1.5245206350744898 2.578497396490501 7.144487341984834 0.928674234326349 1.6113355479888507 -1.185341549380249
Ni 5.9270161144016775 8.28553654350724 3.8714231888741932 -0.29012688026392613 -1.2111873067987593 1.2639738544721715
Ni 5.8113007048585095 5.533702337894857 8.813916808135593 -0.31283666315661607 0.7944575071009027 -1.064841914630579
Ni 6.50498154867715 2.3617545668432554 1.0026864876321135 -1.1614184629057482 -1.47900986713853 0.9313170712658347
Ni 4.987707606183965 7.2057330145412335 0.31589000176571286 -1.2683313601099189 1.3883270586399767 -0.5771416972614318
Ni 6.8158109125673505 0.14024666862402574 2.153519650826312 -0.3206278770662607 0.9377067768422626 -1.650503476437564
Ni 0.9746894190558487 4.215434435278306 1.169168592786744 0.4169074629263013 0.2571679088394023 -0.028522275809408942
Ni 2.4749586545327995 3.387374705115029 3.686464797698327 1.3792454080536827 -0.037115416795058656 1.321415127308776
Ni 1.5527475220344074 3.596064624464123 9.266975024208824 0.4401823742938419 0.2379432562818354 1.018044494661066
Ni 8.36770588253337 2.9896220977304013 13.474000701369128 1.3297627279425228 0.8390823448991291 -1.1851129783092105
Ni 7.178896158127602 1.4207687550996917 7.8682901477414955 -1.542326367808989 0.4894215709356281 1.758935124279106
Ni 4.899829875047755 3.4689972987929516 9.75295101699217 0.2683066990650411 -1.092628340715228 0.40717403768862137
Ni 7.250529065612882 3.8051530192364855 9.746901604054734 0.7997061570943517 0.2558160227971982 -0.18098972171492697
Ni 5.927284853640626 4.6196182506570835 5.352950179152053 1.0002318919596773 -2.066010973692545 0.807822615553899
Ni 3.2558870823066677 0.5978104370412848 12.675859061997086 -2.8264707836917644 -1.3949250235724688 0.4762282121738056
Ni 3.69156898986429 7.719923847353097 2.6615758154939004 1.3214015004620208 0.4412815208952916 -0.6908551623272037
Ni 1.6669338979766604 4.899005123590292 5.712600195888915 0.8212738559627986 -0.2998713612451997 0.19091520835875508
Ni 7.49876998743897 2.6722688571429645 5.734898139225407 -0.3202555813285065 -0.6814801488702069 0.7769804333620619
Ni 3.420828106928982 3.246675813219945 0.7051689829401802 -0.2803726290906397 -0.553244321818544 0.45231875254605974
Ni 3.4583496648083996 6.657134292273632 11.840391395709133 0.7413187182943942 1.816413678111549 -2.6183237848357552
Ni 5.162666117609849 2.187296466414035 6.2718168981560805 -0.5417088103751186 0.4194711098884195 -0.22301106045203525
P 6.420968102459615 3.748689978446342 7.5296360790627705 -0.1249108764434881 -0.5859181579024813 0.2397972787714386
P 1.1789034400459013 3.513459742533491 12.610376576335604 0.3634336593778773 -0.3586357237686017 1.4556200274596802
P 3.4413820252734 5.1445957205081285 10.07661870300787 -0.6113635945587793 0.4722705130776383 -0.6910207413707905
P 9.4218123801337 8.446844954968594 11.706484193063202 0.18350374638603234 0.2254368962847085 2.2485549272684695
P 2.8281005482519506 7.853607718424591 0.22559454416599536 0.41378254414407445 0.04509740655927072 0.6767840289461183
P 6.064378932985674 1.212523645525409 4.330516917579398 -0.13889484942740596 0.03595867748279614 0.1842704493487278
P 5.129360985720832 6.075619646669975 4.170053644690187 -0.7189650331895424 2.0155667009990643 -0.8028341612003722
P 6.512543314848947 1.6820110959687107 10.082125077345227 0.5678942105212349 1.0413991102266065 0.888692808837405
Ni 0.2576625488688169 6.124131712735362 13.366487398736082 1.5912984268323174 1.4154421696892139 0.40214598834641063
Ni 3.4916177292161814 1.860435416890001 8.147606592460358 -1.1456606858508591 0.5174707637633604 -1.1951081418487095
Ni 3.7014382067429215 4.2820539659266466 7.954157894707777 -0.32149511016256244 -0.09750343096481272 -1.056386070553742
Ni 7.52216883496812 6.303427119465658 3.9708131529947455 0.30358840508547075 -1.194823006508123 0.10322619238120288
Ni 7.938538584802674 2.0879092823545755 3.491238714220561 -0.2886641796754706 -0.6860554269457152 -0.4021099929021526
Ni 7.473832839438597 5.169477267286651 0.24034276826209142 -1.3937973377259285 -0.26045223601762885 2.231523682817796
Ni 1.017354089956525 2.0972595544959267 2.4169675068287724 -1.5227546163246484 -0.8535975077961686 -0.6902553239596757
Ni 6.31674361209908 -0.017862819206807892 6.2481085371586245 -0.3871315172154494 -0.4139224121560484 -0.05859389838380877
Ni 6.400618055261985 3.568171344835314 11.933325131285702 0.95465343199893 -1.0438971940581119 0.40351844321390506
Ni 0.6042416450354353 1.2546601048184967 12.815950973886956 0.8573184082911816 -1.0555897999046917 0.2192729335658417
Ni 8.405829786982844 8.063937873818302 5.921321622597058 0.4110029245164083 0.7637703624296911 0.14122941109785356
Ni 7.621074141771535 0.9164443591053665 12.104815979842117 -0.6764261313860672 0.09633897834306634 -1.168516250292794
Ni 0.0028124951386523113 8.788171589044312 1.3671506434942804 1.3400828789216084 0.7753284995809356 -2.985677605203645
Ni 2.922854297157123 5.536547267079589 -0.042261562042253266 -1.2789939820300877 -0.7474978505219126 2.681755213817523
Ni 8.5653033581231 8.450838976071589 3.3346267526315927 -1.6520865046539677 -2.062327354193371 1.6935195749877738
Ni 4.488955379306185 0.482172869208709 1.3629054902059226 -0.05528591705649833 -0.396808121073265 -0.33246317913829193
Ni 0.0786414414996544 4.089822008245581 3.4997021468733815 -0.17746705327364917 0.7302922852769036 -0.43449843653518716
Ni 9.123697162306863 0.8803878934217345 6.874977099426506 -0.3065392601836785 -0.34558428990128226 -0.0928978138720013
Ni 9.294578250796974 5.292921246667169 7.4343967461534275 -1.4933913326711827 1.2308112516772738 -2.3816097729753305
Ni 7.442177210464507 7.343197768698624 12.575682340587333 -0.14796004495346776 1.1864867187282857 0.532448211008799
Ni 4.409139825338435 0.6449250590641383 9.690723982870095 0.8076040717851899 -0.39565549552606055 0.708542809414954
Ni 4.999902807510049 8.797104852021778 11.56899627173004 0.9654278969066148 -1.0270240724518571 1.2646611103471832
Ni 5.0321515161838875 1.8170108626240216 12.807528315463493 1.2751738369530492 0.5785768870460616 -0.35117309684296943
Ni 8.743597942860069 3.1808161659369065 8.046521717760367 -0.6561383276713086 -0.4183112852523635 -0.07285812161230679
P 5.441617447638553 4.080684874121326 0.7904223364050023 -0.4872009091352254 2.3114353688427745 -0.04790196588760137
P 0.9881078472626644 1.378048482977164 8.668426017603945 0.14659144674071528 -0.9073186514687084 2.2500011727966927
P 5.723256170056745 7.010331787214635 10.430666896643201 1.383237045711579 -0.9991080627678792 1.900384621807566
P 9.281975307177314 5.335437647642909 9.510403660283671 -0.905906344502214 -0.8496899452116464 2.140769140541042
P 8.502659314837137 4.504051111038853 5.401085083595881 -0.05715922281981124 1.4828729496383624 0.317933103842917
P 2.0015235173380455 7.025288515892673 6.698997378892616 -1.0261139019327619 -1.8970028498195262 -3.0418924618323158
P 6.289573148354339 9.146475129525339 13.435780421468444 -1.2431687448013624 -0.2432908937469939 1.1769535824268698
P 0.11083918238679594 0.45190634409387437 4.625838174008199 0.21398211748054757 0.46319811846272485 2.092231597951971
