# total energy = -340859.5457496802 ev
CRYSTAL
PRIMVEC
9.37555213487322 0.00000000000000 0.00000000000000

0.00000000000000 9.37555213487322 0.00000000000000

0.00000000000000 0.00000000000000 13.72206824472218

PRIMCOORD
 96 1
Ni 0.7499363567056663 2.9642308351100928 2.505046290393014 -1.6479513994396715 0.3768825857939316 2.7045652697335036
Ni 7.345679515485258 0.4863230180991304 7.561641610063508 0.20144207603200795 -1.6486355699908894 -0.4895359850263053
Ni 5.956550824594754 0.6452789426694734 12.108998186961198 -0.9697815458896202 0.03606820647746692 -0.3146750019169355
Ni 7.040308404959866 2.703327968642972 2.687302337277001 -0.3611104105613394 -1.2397036690708971 0.7856833604526985
Ni 9.447556435302145 6.271719387163344 0.25108197554343553 1.143385259553121 -2.0868381948505412 -1.8307010412684988
Ni 4.130596405860493 2.483255631982676 9.460583765076333 -1.7129779408227015 1.7488350597306268 -0.10285312531250028
Ni 0.6750369453346537 8.099052012070189 1.7873402694662044 -1.3245043077570609 -2.8675863227851512 0.9139965777095161
Ni 5.579681753034496 0.05147271910274325 3.2853097457820635 0.7756691707498061 -0.8462647215801812 -2.4452880278605824
Ni 4.631785299519142 3.3180360482720066 7.340606404192842 -0.434002213625059 2.790853548708787 -0.24210690074122174
Ni 1.8088440359793918 1.4004918601501755 8.250777510788174 -0.5281107599757099 -0.16009410921284042 -0.3190931855892892
Ni 6.894706079380077 7.8025689250251355 12.12568385720166 -0.16423872750883328 -0.64344016337835 0.05454363957383509
Ni 5.509205727188825 2.8404454194867856 13.384780202041695 -0.5785488620216036 0.9421897523142806 -1.1910385997650264
Ni 0.011711939801305415 5.837959464887171 2.5583013019679215 0.9716929039797202 1.2683611849065897 1.5458220396670732
Ni 6.152340481071428 5.181070775935312 12.216880790952283 0.8202130187984519 1.1483402895655515 0.7649967786376245
Ni 5.544701567797008 5.542348304196202 6.4180173787159625 0.45777051968925037 0.2533477637623637 -0.9299147916016695
Ni 9.074090689188473 9.043245122468736 10.924673745982332 -0.5498936601787562 -0.36614874431619526 0.18909203910708725
Ni 1.4736774205800425 0.16502471950580963 3.018895929735046 1.3101758069495306 2.5036376714440687 3.1254440586027266
Ni 6.214266003315762 2.1679933138921412 8.485891983389243 0.9565807309286299 -0.34697679937343473 1.5385447892793698
Ni 4.293102852046874 6.197774407005727 0.09355019735142937 -0.22416162911671073 -0.9028639581314644 -1.567949467693732
Ni 1.6067727595324375 1.1576744338661464 10.68311076858192 1.1993684597869603 -0.19938930726803725 -1.613861399734498
Ni 8.036807721051243 4.4287108389873815 1.5467786010401596 -1.4649325631098578 0.15525760705614552 -0.9432757862896077
Ni 2.9141841374961253 2.8209161442657487 13.075031646196717 0.3911714916127779 -2.6291512144685623 0.3260729593412319
Ni 8.550391094710953 7.980629412302107 6.009799273283126 -0.689234081784013 0.6501638552554286 1.1706507801372936
Ni 2.27304637623094 4.042128695353674 8.433088873430108 0.4039897264233687 -0.9800651872038154 -0.07085214692587154
P 0.29007114689927027 7.760903971073005 4.315192590572215 -1.0861409332186716 1.4080913857510977 -1.1469446947696051
P 2.7646628310990558 5.549895623712732 10.101171181427704 1.103677399440538 0.15904484201271962 -0.09904943529569393
P 4.643964141819731 8.022163108523515 11.184857507596139 0.8536039355540719 0.8018013490604836 0.03094502631828864
P 3.3663857709387788 0.46232629225743876 7.0237230531278865 0.3610690158004427 0.22041733158293006 -0.025686863243142857
P 4.209988581843086 2.0675248965764284 11.463799874040598 0.8087374140586845 -0.6289440266447038 1.46926050106125
P 8.514951507415937 4.182133816273378 3.6872846710086162 -0.24508295265041014 -0.1227246674254467 0.37255876160759704
P 1.9967863552693121 3.7564649955410148 1.0561625175911913 2.101161810562065 0.3073558425477029 2.9236402283559264
P 4.665443531897213 7.131073125754326 4.6794721706457665 1.5331254180360114 -0.24003253471069627 -0.9287313128165295
Ni 8.489384376581675 5.795816357773124 7.3023766525647575 -1.1444381262976677 2.0877221401173913 -0.8605708537902083
Ni 1.7977246310767756 1.0427395395143988 0.8450260197274241 -0.8278589653794839 0.7200821775131212 -0.2121977718866152
Ni 7.580349586912311 1.9120876167446619 13.599982876892195 0.2653473593264011 -0.4405556984728606 -0.18962759989558312
Ni 5.4865450175348425 6.456014616649624 8.843283345265533 -3.7127966349588895 0.32601073864472885 -2.2184930748860827
Ni 7.1110844484757605 6.488200887333167 10.059058076080678 4.200206574781127 -3.237132008598038 2.6911729075869975
Ni 4.972680377309299 1.313805504560302 1.3463433584511364 -0.8658657836405605 -0.32275495071159255 -0.22127016650152861
Ni 0.12930480320017923 8.794324211706122 13.644978026983793 -1.229927306410424 1.6345091578918367 -3.6716211891618444
Ni 4.170555009313234 4.289671399943706 11.662797844478211 -0.553842103303543 0.7815027467124477 0.03710821770620706
Ni 4.599045871256127 0.3401187820684573 9.458223938588992 0.8416691317896988 -0.8667970372055781 0.7984362892429926
Ni 2.8003368071989336 2.587230505819113 6.115953025449553 -0.20133666080239515 -0.23364154358268793 -0.7282027497377266
Ni 6.188164466006416 8.63457417786491 5.262879969273634 1.264398600714416 -0.7953584216486174 1.507395874480391
Ni 1.7397462163063044 0.17595098803322023 5.589519519952132 -2.1804152941777546 0.38766090735635816 0.6278469369257833
Ni 0.6917413666795031 5.735906579250596 4.944047440907452 -1.594950678872924 -0.3811552450273565 -0.0003861796948251414
Ni 1.5877872663386787 6.762754557795405 11.570997125166267 -0.9953334262167954 0.28515693785316054 -0.2684116000740216
Ni 4.274745520850144 7.052862269348233 2.2733895214412567 1.6517095809305231 1.1971344282501188 2.2455336239436425
Ni 3.8476047384232515 9.146713716486675 4.793049485039758 -0.3485428583089739 -0.024792119343015367 0.15350102937635499
Ni 2.3880656505524374 4.850760696572687 3.7605049209816026 1.7439198818171966 -2.1529991069483305 0.48839827187743623
Ni 2.0578774533683406 7.215706235413615 3.4790930340891255 1.6861582495266962 1.4250827781027715 0.3082053350321918
Ni 2.064927868618566 3.623510289871537 10.991541121788359 0.3652835681024225 0.5763330853172075 0.566766781785011
Ni 8.78995520438351 0.9967055782396553 1.8337351895004341 0.4393645063782368 0.7498784349389473 -1.3453238156055733
Ni 3.1346971251095606 9.20267638753534 13.193315487792319 0.8331703502900683 -1.215558182172945 -0.7047645733194444
Ni 2.5176545329841087 5.931133702595604 1.7741123028750563 -1.875377815350583 -1.5201840273839946 -2.6804046133268997
Ni 8.19089492136701 4.445521204072028 13.034771149963312 -0.5253463098566953 0.257201333180499 -2.0523697287600267
Ni 7.672511264983742 7.24155463281371 0.8137941802572763 -2.316787377183307 0.8726005312612326 0.1452650146198079
P 6.845418801493859 0.2441450044747629 1.3115947493528508 0.6408214948085803 -0.6322293822641951 -0.028314273563660914
P 9.218933595040513 1.4295841986095499 7.099002174362774 0.06488461648852696 0.4310541867403286 -0.9753202163196623
P 4.464384815087259 3.9094365051456412 4.974194528988703 -0.8002538020677057 0.07283112502911328 0.8752315411261766
P 0.6304552570948304 3.00177992164886 9.717639842478071 -0.8016956767205549 -0.9773215630204072 -0.7646051996261606
P 1.5458504213729092 5.34907129570764 6.7484305891527265 0.10525247878261228 -2.9279661094247897 2.0111076367864458
P 6.6592390860164965 4.180811863413961 7.924467041991701 0.4724366063418573 1.102046034484702 0.3017256408451191
P 1.9346358197723112 2.057239915819118 4.155728511072933 -1.147735566102017 -0.11773441329970691 2.054573678389881
P 8.59893770397381 6.235717266736661 11.580848955412193 0.8108837709777261 -0.32548880470298786 0.7463565378286178
Ni 8.262777280041847 4.228120899787149 10.311023228640831 0.6613262996301514 0.8568034163279761 -0.06395079182034794
Ni 5.769761698224751 4.485976711791074 10.020389548609893 0.03207194083388025 -0.3082094487972499 -1.9258367433320833
Ni 1.3866441695589746 7.311796269854519 7.311900338483879 -1.146362339903574 2.0359133829762164 0.9345715736473905
Ni 6.750781977643094 7.287672974058204 2.948282083272116 0.06694612700324598 0.058257340979996436 0.5203786814387747
Ni 2.996154590332191 2.406001081900418 2.46257597650738 1.6898652660646383 -0.07516800069240602 -1.695697299365383
Ni 4.968742645387631 3.7308322358413917 1.817954260046738 -0.16386540332981456 0.2302857397365776 0.14074347260037054
Ni 7.713585559147622 5.7983946346265975 4.797633192507623 -0.710792267570763 0.7628375662027765 -0.025851413845465153
Ni 8.962671626909644 2.2653677989836862 4.563767543458855 0.760525116019516 -0.9330993599772381 0.41596129696294815
Ni 2.813959484537468 6.6913034745215105 5.544456865884733 0.7429580536700302 0.38393820708913234 -0.1437100114278622
Ni 3.505172070073204 5.931883746771159 7.624049973245856 0.033600204552948584 0.1646074237021617 1.2498042478400087
Ni 6.745381659579092 8.462551546201162 9.630779101617382 -1.3955870826364998 1.8660850771947475 -0.9308414171809969
Ni 2.2905411566257814 4.987925025177473 13.30294194449157 -0.3900576897233089 2.620522849369603 -3.0662894026194416
Ni 0.2683273662499046 3.0343974677333474 0.3379474041802229 -1.0820294821534588 -1.7174889413191774 -3.20242597257542
Ni 3.1581266300434883 8.03960163560519 9.033690497227374 -1.373757388355918 -0.8844389186570574 0.4888998941042032
Ni 9.255329488659363 3.9171057068407 7.948658779319036 0.03226117402655089 -3.2441284945205284 -0.8108243784947005
Ni 5.519050056992996 5.3022029102875905 3.6351406623687503 -0.25512285338491547 -0.0391329614457197 0.49095600530228356
Ni 5.257453399663486 1.501410303971222 6.2330302334777326 0.4036706525210531 -1.3064752181694919 -0.10430065639230425
Ni 0.6394942269654984 5.620821676063738 9.311328724361587 0.1219340532033513 1.6674904979138638 0.9322704363180396
Ni 7.690531076301473 3.7093903479726875 5.990588766836701 -0.5013108661740463 -0.3764907496721516 0.4337895833936207
Ni 8.130497614130372 0.05069642338104289 3.7179671031201695 -0.06956608112459632 -1.6760833817891971 1.1330517388375971
Ni 4.8046892330891655 2.0671123722798725 3.8711739390848763 0.09098259912715943 1.2845825318614588 0.377005484525041
Ni 6.759463738975153 2.8703440554348827 11.21297478862729 -0.44669446438074684 -2.091831020079443 1.1928694823261778
Ni 5.353018403181503 8.182025648991061 0.5191158870096539 0.6248127780851497 1.5041495996289516 -0.6980707062390364
Ni 4.989509493498335 8.450419581661547 7.422088390759576 0.07497156841088379 -0.35608184699849643 -0.25702495550363474
P 0.8690368088974074 8.474739764053947 9.14494923756368 1.011926040468154 0.4492992489934456 0.5363493458354182
P 0.7662751315149321 1.294463740383154 12.499418681663313 -1.0008458713945927 -0.15016425169363815 2.7721881110887994
P 5.998243905203468 5.557339812155126 1.180292953535254 0.8392055007405547 0.6801256917248416 0.3939763080514247
P 1.839033314045517 7.344826340235564 0.0474899845305414 2.1496533304045498 -0.047639970475466344 -0.8129820482676514
P 3.3607416885177206 9.047342238777711 1.9269628678563744 0.8982933080416464 0.6346660167301457 -0.4395730228446172
P 7.316090272759577 0.9560531839245253 10.186522458385088 0.15404918857034114 1.7317719336007529 0.5717212975768089
P 6.9238734222570075 7.366174472582323 7.5490174290336824 0.6927217832222973 1.0918904341079387 -0.5085575204341306
P 6.868773302010232 1.5809712398933145 4.74315654648178 -0.2209480072754195 -0.413721608999152 -0.18960188886397022
