# total energy = -381176.3041887383 ev
CRYSTAL
PRIMVEC
9.19198665978158 0.00000000000000 0.00000000000000
0.00000000000000 9.19198665978158 0.00000000000000
0.00000000000000 0.00000000000000 13.45340161685019
PRIMCOORD
 96 1
Ni 5.437308163970593 8.06309101094096 9.977270712325948 0.31551343865783077 0.2895350123161981 0.3577386658756291
Ni 5.635413855764703 6.042747542947525 0.8237895017105055 0.957068726308642 0.31800689450364583 0.8599113658293384
Ni 6.86252566177482 8.268458372024106 0.6145798902946771 0.601317523176687 -0.4068999580916282 0.19105636192230965
Ni 1.8888980618754057 7.3871031360230575 7.422806649760376 0.09477369073847548 0.45615226735953696 0.8130296136761352
Ni 3.8892029994256725 7.98012414131709 4.315662452797989 0.8627650332280495 -0.8177614719341657 0.7515828192245637
Ni 6.8261070114923275 7.773718085766016 8.011500067837598 -0.20788757454703552 -0.6597095899623348 0.006502577005208157
Ni 8.280187346723869 0.8547343240668932 12.784484987684962 0.6907703159228813 -1.1547384797824114 1.3507640127845382
Ni 7.88508819349511 9.286296222713302 2.859412808766178 -1.8091863071251746 0.24460421324177878 0.1392198368669925
Ni 1.159909193133969 0.6536044687334248 8.66750180663505 0.9895954952917537 0.21473930736154628 0.9731604896641821
Ni 4.423128723885243 5.261594151148758 3.940393171920169 0.41869515095434345 -0.3230226025506824 1.1278974483301674
Ni 1.8530493147523068 1.8213185775551435 1.6402787277889173 1.8737433650709536 -0.12207237855342845 0.8542150867755094
Ni 2.394392972270426 8.396916382548545 2.4619991133513692 -1.8225023075077902 0.5379871385491574 -0.07036363732522721
Ni 7.98042747686967 4.0722797933874055 0.5197948837025594 -0.1756701092742265 1.289754305870385 0.660501489736011
Ni 5.425018478097879 4.11214543858558 13.003048364503984 1.5744155350340499 -1.1107109092485516 0.5273234881877241
Ni 5.828840826459926 2.525728074551153 9.499365549236051 -0.7091287638254109 0.25233320645492024 -1.489282966929764
Ni 1.0171300677331754 5.301662020048652 12.72960790942865 -0.24611473634903422 -0.30871904144381673 -1.0271569984852955
Ni 0.5801421130903976 2.596442026248076 13.368348936085653 0.5292006506057789 1.3556997595232587 -1.633664036282722
Ni 7.982072842442755 4.983545753270138 6.8622839125313995 -0.9152741588703591 0.17629283045988994 -1.0953295416964748
Ni 8.569863607451392 3.1633761740202218 4.532168663051334 0.20533806865230442 -0.006401275540653491 -0.37360160104981466
Ni 2.1520738256911605 4.221465733338149 7.6268007280691155 2.5280582663802784 3.086563836597762 -0.7712988095962524
Ni 6.3704878195306245 4.525656140657305 10.665910437382369 -0.7339270538160134 -0.7368457701247052 0.5384039143716017
Ni 0.7460207004194853 0.82007593918801 3.8828403064106447 0.37554278393658547 0.13406811746272396 -0.14659144674071528
Ni 5.791309945817974 1.1191427332644963 7.527447304215413 -1.8878471514621873 -0.4875261536851281 -1.242934003082737
Ni 7.412684434290643 8.18004984642668 11.589930278453128 -0.5551294546563987 0.48294599051361337 -1.2962314289542967
P 0.9769151270502119 6.175470635180966 10.669192895740743 -1.5738239241966379 -0.37553584195805 -0.8429377140894772
Ni 1.0646618296238277 8.537608927027044 10.971060488086051 -0.7116818692645679 -0.23407606001694528 0.08634844278925774
P 4.402906353713237 0.8193479338618179 9.5290841606011 -0.06642239328929204 0.4045036899453098 -0.6346140804462878
Ni 3.0622275552144322 5.9658933443074655 5.811922975413756 0.6206393634337505 0.4646927007303803 0.5470523340752191
P 7.422473899851182 2.747567475338042 12.418511562695754 -0.6078373265730758 1.0680786764003218 -0.21656196239258188
P 6.064459014923103 8.552352873279723 6.0889152140502105 -0.9112442117753597 -0.2438207981085349 0.8290915522350044
P 1.7511561450447297 2.4477524535651916 5.011929688203834 0.1803304908643733 0.6815554821928327 -0.2540969832235624
Ni 8.066280630236271 8.3362860399783 5.243006116166109 -0.18011066154408337 -3.0845635183382814 -1.8544775748628062
Ni 1.7943952492670519 3.2052272882898296 11.10691253250429 0.853220069852092 0.34157054075619886 0.18812787542160503
Ni 2.3439473506777158 3.6845709972578704 3.2533684788815744 -0.04649171580363606 -0.9572409902204482 0.4003302752939106
Ni 0.39875572543531485 9.185211947812606 1.3012681566295015 -0.038163398443598784 -0.7289342285871123 -0.2364425033665928
Ni 0.0700337447002283 1.649676614727034 10.571965578351035 0.3283908088411312 0.15091578514768203 0.36545300380075124
Ni 6.232001351798161 2.313981474877382 1.1441366635984496 0.3654023530684739 -0.06332061443551676 -0.19375242069723406
Ni 8.58858768383338 4.363371620026968 11.106792117481902 1.4612615420161739 -0.8475870399360306 1.0703402187409887
Ni 2.6302961123132995 6.118949110550214 9.116953175694293 -0.5609316631604727 -2.0601629995522 0.29206317805469056
Ni 7.523420294955252 6.099324219496928 12.60274287015458 0.3995825984946086 -1.62135128035364 0.7833063755800898
Ni 5.900547512692565 6.415078145759895 5.888755113286354 -0.7058259247044232 -0.8440345466980819 0.41776723982343533
Ni 3.2193002195322564 2.1738680255447163 7.804815495097339 0.3830504051675403 -1.829589553371875 0.5065716003523535
Ni 5.454910818006679 6.452149427079755 11.904969068170919 -1.3808207229606024 1.10706894162059 -0.43205383164943656
Ni 7.962144615836889 3.352804630613253 9.026747616747489 0.9069386424214703 0.9970457809222119 0.3616192318769579
Ni 2.8768987245744526 6.745989657665422 11.373733838142872 0.6549155110078012 0.5159108754754083 1.0662004855410026
Ni 5.8292268898904815 0.6551533184488716 4.431765514345976 0.21622334810624053 0.3869597675242755 -0.11074641201764797
Ni 4.087437379029968 1.9734919130994772 5.607606258380908 -0.3608648702094366 1.7259231881294597 -0.9412482143366177
Ni 0.31866043237587016 7.572450350635921 3.333214669108446 -0.4169809964767141 -0.32097343333113754 -0.48763979644485694
Ni 1.0827608509277717 4.77848172773957 5.1743263510687605 -0.41514702859176883 -0.1407398730559447 0.540121925503973
Ni 3.118730695872301 3.693174696567414 13.153121331146364 -1.7047946336809605 -1.9508319798248401 1.0723317952497209
Ni 2.3314370571303984 8.31215707556852 -0.008521890630211533 0.18610853099873112 0.20393270366434557 -0.08496338951627302
Ni 2.2029974305788445 5.999958846060851 3.4588424670074467 -0.3617341601882674 1.0662989587920797 1.0031894319261045
Ni 6.221283495606999 7.151218379953067 3.5861248224659756 -0.5224070247227132 -0.04853111483116803 0.43075413900140647
Ni 6.2008037498146225 3.6026152461426015 5.321210617614471 -0.44436195959282826 0.3204448145211772 0.3494332313337272
Ni 6.981424006399764 1.2491817654569268 10.896474871699835 -0.6227242709872373 -0.3077620768471861 -0.34418638111249106
Ni 4.169117370551982 4.184752939489519 1.8490627502324892 -0.04837119221453605 0.9459667028582095 -1.9094744999239759
P 1.2936801718217787 2.858946775053578 8.99758052456895 -0.08451524623526091 -0.5656267546432968 1.8223349286919905
Ni 0.5479821101264012 2.994381503287357 7.009531262541562 -2.8690757628464847 -1.4116945297213235 -1.7618584685734884
P 4.587610129275173 7.975601683987715 13.560355744875613 0.09095457410270143 -0.20755153136385546 0.2798910614685309
Ni 0.20224484328886116 4.988196898409699 2.710658892178201 -2.0068619741362146 -0.7012138798537084 1.4773525340407654
P 6.968380577638821 2.325747217522912 3.2756480156192582 1.0027813978544085 -0.2830134091475965 0.12771980664719293
P 1.7296377047844285 1.045009362611216 12.412915481349973 0.34171246565070185 -0.12242050592146657 -0.48806917067279165
P 9.369575619876194 6.622862999277241 6.30874340820363 -0.14260058041376733 -0.05268858864296732 -0.0016401067065842721
Ni 5.784756059484956 0.5629503408482612 12.827333432483506 0.026188485469909734 0.7754789091158709 -0.6536944941165065
Ni 7.993057266240731 5.898938915065247 4.687851499019155 0.3944388495101401 -0.3360177292587697 -1.0122345728475084
Ni 7.75110579911914 1.115318866904699 8.491612226872176 0.777118758712139 0.1840763310600507 0.7612542808760566
Ni 1.3892584468438254 0.8545725451055173 6.3755268664980305 0.9080884397551973 -0.14986317551345157 -0.5239584283702331
Ni 4.906820242440265 2.6597564288593336 3.239902218744308 -0.42390343462816027 -0.4921996479013975 0.809405900880619
Ni 0.20025661662149546 5.2505269994728065 8.529590757253844 1.6911775571181584 0.8358484113428637 1.4592149438997901
Ni 2.9609778245577827 8.317948027026867 9.4412878213007 0.23195232880572308 1.843906227104863 -0.3292518712898459
Ni 6.481618935612231 4.620039457441915 2.9776815023198577 0.9926173128372132 0.03366319658040009 -0.7654773178184687
Ni 7.820036505446349 6.303037023020548 10.09899743117904 0.17258504259099952 1.4344567631185037 -0.6644018532316815
Ni 3.828324473221497 -0.07330057668165121 11.637098037680685 -0.6528090061877596 -0.42366277937226393 0.11848903207754431
Ni 4.445005651616774 7.145657228155766 7.910223680420267 0.20817348121857052 -0.2723626143019697 -0.8825339883248607
Ni 1.519260711090489 8.00901455470373 5.289580992268168 0.5670454893676944 -0.15370491785704496 -1.8047694090044013
Ni 3.839704152436471 6.8176871519116204 2.2215202024577567 2.2638671321455073 -0.39885163386585504 -0.779072025783768
Ni 3.9825660057152406 1.5580784698342955 0.39543833752846197 -0.6329325789788067 -0.19367168805796967 0.32372605637561025
Ni 3.921503639782229 3.9180750288394295 9.22708236525374 -0.24714214917228408 -0.45125303028570674 -0.9927921478521805
Ni 7.773010302809996 6.745465714438239 1.9847805916486767 1.0181411681399304 -1.174956349491183 -0.33092771633037205
Ni 8.925832474397323 8.682750392943387 7.3732710348254065 0.8304791766111504 -2.255261906975 -0.6525202713027471
Ni 4.310793457579757 2.2225947456728052 11.259474689075113 -0.3820368763013614 0.2354819392255364 0.9048354800355385
Ni 3.380637965559085 0.8770736087164489 3.408862879127338 -0.14314976804901797 1.8789508774138222 0.9589710855376773
Ni 9.078401065358655 7.605376046070521 13.024587946333103 1.3543247335526032 0.3388019768721262 0.5928632217617467
Ni 8.843435507932845 2.1938973640014425 1.9981935382645808 -1.7010850460398574 0.6293137512792968 1.0005699920253865
Ni 5.255159760639483 8.845172793370349 2.3566993934684533 -0.6577928325555962 0.6092771443433959 -1.4256599907624803
Ni 6.013847937574441 4.913934839946233 8.261114894055737 -0.15804596843456004 0.053939430330932917 -1.1814758957772558
Ni 1.207661562699225 6.525666934641433 1.260867537820413 -0.1835104312542517 1.3716830223253924 0.5670092368131202
Ni 3.6495219529552103 9.100130921307116 6.511177606413192 0.06906240201530042 -1.097047809939162 0.5161978105882079
P 4.779722645909216 5.882356571524203 9.741406178626129 0.02242387622115493 1.138194202270485 0.3290071022688914
Ni 3.3053831725599028 5.893662714847642 13.607039086417686 0.3349399228135586 0.8324509556255405 -0.5691195982879036
P 1.4579869294693153 4.374080284231689 1.2144305415149814 1.26726203830514 -1.8548100185015604 -0.6464426976500997
Ni 8.178248217084084 1.106623247730737 5.913899792197954 -0.5819614872475783 3.703744294948634 0.3945450360707012
P 7.445573361779477 2.931443972120214 7.023590405804327 -0.8000779386114737 -1.1714825320099695 -0.7435347521091067
P 8.379681407970132 8.527819461466507 9.465032560677209 0.1248885078459849 -0.587411454618556 1.7427739411382115
P 4.315325106895575 4.282546483244043 6.456704056361677 0.1413898479351178 -0.22461825703815508 0.26770608936656476
Ni 4.010013277230516 4.566257144770825 11.331288921549122 -0.9935652785727791 1.2560281172625336 -0.016192550599462435
