# total energy = -340865.2048107049 ev
CRYSTAL
PRIMVEC
9.27473019625432 0.00000000000000 0.00000000000000

0.00000000000000 9.27473019625432 0.00000000000000

0.00000000000000 0.00000000000000 13.57450514631510

PRIMCOORD
 96 1
Ni 3.0979453739386575 0.9227011690886004 5.891389298995834 -0.36604358619689864 0.6316184881530735 0.3952384625933
Ni 9.256570255962174 1.07252052301327 11.941451609343924 -1.7064349974978612 0.3841968600671577 -0.08011968827072653
Ni 0.4619603980534807 6.269086918439329 3.313088507450552 1.3923513493080215 -0.052642308786064185 0.0130347216967711
Ni 1.9470348314638897 2.565056476851598 2.3866690990337314 -1.7239591224245536 0.03441113049001815 1.5272535326362664
Ni 2.644281222029085 1.7628108659452277 8.512857467206953 0.7613931204467661 1.7714404558349688 -0.4768972132163723
Ni 2.5025355207240594 7.037247895942836 6.111364566930284 0.34883699251062505 0.5179482176204112 -1.4563031695696338
Ni 6.5584306757914765 4.623397345177466 0.4671134381401831 0.3168604396040285 -0.5151354307619644 0.6134222768600209
Ni 1.0362934269393689 4.689164456867181 6.881839589613115 0.07246911370400422 -0.13162299835634106 0.19690613583486735
Ni 8.678467049259071 2.544188333951886 6.270729473153791 -0.6754714807822818 3.169057167306988 -0.21095104396370767
Ni 2.8141850041534555 5.3744928191540975 8.990910449591675 -1.3137205868779955 -0.15952589541419623 1.3685151661203723
Ni 8.219701795751792 8.049427024420314 9.352902240952336 1.0271294876814698 0.7670667737927758 -1.7232189018244195
Ni 7.732611516281969 7.788584512904086 6.699140389735658 -0.8239202924467102 -1.8501709770676522 -0.3804559049674867
Ni 1.6062812447370283 2.073134062959219 10.503667170163316 0.09881700756991368 -0.5845462172556191 1.5437273619215737
Ni 5.762157991119513 1.584374332057419 4.203033184497728 0.16388700059636935 0.08960603049460697 -0.7254768661661313
Ni 3.2550500284178714 0.6586829899595441 3.07258918910598 -0.9924327076302327 -2.2523743010145596 1.5275805769583823
Ni 3.487613887622445 8.457468778586028 12.765437187786706 0.8271413704871691 0.9979538945587781 0.9975607728854174
Ni 5.492736354188957 4.0752607916783505 3.8669151079136554 1.4309317806843806 0.08598283191972288 0.08574860442172974
Ni 8.309119469394515 8.251885109468237 12.952914728651688 0.6134461881194209 -1.1662084280952238 -0.977127187621414
Ni 3.399856390681521 3.5629432461253185 10.926403806822497 -1.2453032746458619 0.004581962943727593 -0.4780614087278025
Ni 1.5221037936446769 4.8350374131012614 1.666745993184182 -1.3167771143161322 -0.03037115609268963 0.06417499201601205
Ni 3.2505888832024215 0.8430757555674395 0.7987499651024147 -0.19493307126889656 0.21178999492523523 -1.1117141537020856
Ni 2.469842096847843 8.825156181748785 7.911167694189069 -2.1996761992898954 -2.0885472071218483 0.0018820475140612749
Ni 0.6999286425325715 0.853659150173156 1.7306683610415636 -0.3070856196054518 -1.7529858486742067 -0.12415188679027651
Ni 9.134941444412473 6.641281840468424 10.86776247032827 -0.6482291001265611 -0.9079863669596943 0.9357805063538271
P 8.225016216143585 6.227415555751148 0.2906514943071961 -0.3615647244899386 -1.1124296917118712 0.6360618686364078
P 4.4597911048437195 2.3772431907541853 7.196904028693921 -0.3289857621126528 -1.6525053373589411 1.5869712602118733
P 7.46750262888402 2.8920092650741167 12.050698656106462 0.8459273928454206 -0.7558279676541628 0.852680138188222
P 1.2772509169547164 8.296199770257049 3.192533709655421 -0.10446777809778782 0.32332033629675927 -0.36155623984950636
P 6.869801917315543 3.1784314824203044 5.4188612733779395 -0.34957567044886245 0.27602026565921495 0.01740585418127325
P 3.6514890951313435 5.581634642941732 7.158393494050284 0.3238342998187003 0.40809603528225846 -1.1294138849746935
P 8.286043940712522 5.848032717834374 8.347736663435198 0.567132649764862 -0.21987354326431813 -0.7289987632764606
P 4.568277623731692 1.9845882139531947 2.110482473911598 2.237859909448469 1.1622640987354953 0.06246649396533758
Ni 9.25252647360472 3.5679701498816048 4.02955121147082 -0.5874767606388527 -1.1550542112506172 -0.62332179536192
Ni 1.0416913199027613 4.627867765123093 10.697320753853594 2.0208194647575715 -0.26704274475095297 0.289024905448999
Ni 4.456795366996339 9.641267514270742 7.9831933938026625 2.007817653181265 0.7420764223960252 -0.16094463013859378
Ni 7.804935862207284 8.087638912752233 1.7231474823405073 0.884993505608947 -0.8137122415654566 0.08606150767645823
Ni 1.8989453554927744 4.626884643724262 4.4977358809465215 1.0078953220422062 2.447417158388443 -0.08863826726469896
Ni 1.082435209573178 8.697127806376503 10.640050222479623 -4.027279575469677 3.022801506639136 0.42926469894007363
Ni 0.6466796341636295 7.119969214397297 7.424657085355348 -0.3687213901393779 -0.45831045135312043 1.401526073828754
Ni 6.201066047316444 5.645528259135563 7.3049026967745485 0.2605231984648803 1.8108991760512234 -0.6271632805951973
Ni 7.091505067482089 5.6007127629171585 12.01015231818883 0.04945028421132774 0.9726894635650344 0.0950094608983654
Ni 8.067392176774423 4.219612692163294 10.25317711247138 0.7174560527441838 1.6377122382101665 0.4587683648261454
Ni 6.026237383467741 6.893582325491037 0.4888005397145821 1.58059852391631 -0.8424296641048071 -2.26686683820378
Ni 3.1187578684573043 0.07114460024671773 10.335655432995186 2.4607768675248005 1.1461270839643165 0.4423423580596382
Ni 4.284860418963063 7.5163062590788146 9.389729412068732 0.1515045677716165 -0.9825303609148563 -1.0697056704807835
Ni 2.0807300669747146 7.114673343465858 11.789905300660175 0.20965623641168407 -3.027440548073044 0.5488883588426934
Ni 7.905269893269101 0.853177791676936 0.4910756310271596 1.4017371613982956 3.2271640987520485 -0.008816312740049332
Ni 6.592858474210913 6.154108088427002 9.702404680655777 -0.5755265302555119 0.314200119163046 -0.09851541716909486
Ni 4.943292063734793 4.107286434981775 8.64018652792384 -0.7424137511307859 -1.1143914434239326 -0.2178523990692313
Ni 5.9590697875212 0.10713704564712413 1.0181947184707028 -1.7481609164817375 1.4441050848415453 0.6842836797572731
Ni 8.337694913071855 7.916816932340275 3.960592665126974 -0.5697091522427865 0.6741548188533873 1.835550398941
Ni 7.255519395943652 2.2146664454701583 9.895000017632785 0.8256650430519585 -2.622928116376986 -0.28408530205553656
Ni 6.115571584538865 8.929033159738465 9.932180555968948 -1.4272394194344582 1.1577520697977546 -2.6528575569465667
Ni 3.054697307120276 6.670608537290153 3.4344038331202493 -0.7826139774987554 1.4340875527045431 0.18381613542012856
Ni 9.182029249524403 4.302992516460368 12.707514642881245 -0.8867714234449761 -0.02269615604593511 0.9945973193817192
Ni 0.6760916585029932 1.1487217061528425 7.251066597985362 1.5107025702561208 -1.9462063081273708 -0.2644428452342607
P -0.12058818682376996 3.1946066118501264 1.8260691631218893 -0.023921029591971704 -1.2772695431398131 -0.3681405779352434
P 2.0700270283497066 4.622516245810589 12.904304940317605 0.47207922300243854 0.5978948706483832 -0.508634396418653
P 3.7837189232740993 1.9265562272316383 12.377654226748035 -0.930607961013952 -0.6365637479734909 -1.1107229934334097
P 3.905635251459309 8.632520035958994 4.667674907045567 0.0075114778856967416 -1.8384241209443692 0.3465569382271967
P 4.643282366678348 5.329705147126226 10.389301399815732 -1.150395372322367 -0.0930489947378849 -0.3843207872395316
P 5.549506977606352 7.906206641017044 7.586967645883276 1.6791023711211792 -1.6179957336178459 0.13646592827093917
P 0.5053077044847636 8.578225765499031 5.7794544354278115 0.19186728785937923 -0.205961046948284 -0.06371347899856122
P 4.554949836466409 7.937035844127553 1.2714217490380633 -4.429619682104764 -0.34808340217405215 0.7456579690996965
Ni 4.455107366104007 4.374491411399872 12.999950595274623 0.41241008927658007 2.0551079536267958 -1.7910651720444313
Ni 0.5159680793509546 3.1918983906382525 8.854989278838215 -0.7122092025229476 0.2802553867864851 -1.254673403006852
Ni 5.00901280177362 1.5777521747105767 9.844000131331924 -1.4046556205966712 2.074609256884518 0.743713700889132
Ni 3.3918893974589195 2.7053738697092653 4.196422156827099 0.9291457746461288 0.37339205614216986 0.7465444854697079
Ni 8.137156697170706 4.932551926189074 2.4347910365604686 -1.702053580600714 1.2374215579049397 -0.5742299229312756
Ni 0.9069239255834 1.4169840018111914 4.406189656728027 0.2664423921627927 -2.2516633909904638 -0.16335246824913804
Ni 0.9853380593433598 6.988166023842712 0.35245829621105584 -0.4689900425541536 -0.38306146091113386 0.6837712588972288
Ni 1.558377263369466 2.2777253359480008 13.027656069261297 0.86850039304993 0.7296736778562981 0.7629812908694925
Ni 8.059091293265427 0.5453216728901991 5.439643161287 -1.1291552319966682 0.44037315014840933 -1.2847067161441486
Ni 4.516951266928577 4.05454104446148 6.052505274276882 1.0934374668800846 0.04835859380904575 -0.7826476589501682
Ni 5.582543566499142 8.162745677730843 3.2285734561797335 0.32258731478547664 0.14084863071966713 0.9301467051068174
Ni 7.232035779133842 3.8105599924082187 8.123662892235243 1.2892213161850508 -1.1379201226734919 -1.0890681341677955
Ni 5.690148986020238 3.6731084911754457 11.093954589900799 1.2051285021991889 -0.9257519184732315 -0.34525544580695383
Ni 6.299535857612554 0.26898386966617016 12.244664798203729 -0.36057150733873383 0.19763067270571769 -0.31536997110143106
Ni 4.957853390113703 6.517325071644132 5.4981629988159 -0.6228687669849015 1.0021363080712418 -1.074211271660621
Ni 4.912230992369842 6.9297723226442285 11.590075674144598 0.8295800618356487 1.1224091715220865 1.7656302769110948
Ni 3.2203532628232825 6.046669614049104 0.7644464480673582 1.033808442363542 1.3295655243300522 -0.8821956311488355
Ni 5.608345865853364 2.3543809808662783 13.316005575538401 1.1606838987325687 -0.3624700099130274 0.6456376852503011
Ni 6.804591289436486 2.8251662846837933 1.8352455811596562 -0.0376895441309738 -1.4191669268389688 1.405220491961206
Ni 4.996371344541483 5.789314401079671 2.343434944310616 1.7757005166629032 0.6140905065716391 -0.34348344150819554
Ni 3.3112270691038974 3.3524068710926636 0.9603287494193266 1.0215159981494342 0.28576808907459816 -0.4737681806690873
Ni 7.388203685865113 0.49808639956844525 7.75796584616861 -0.09654543792691761 1.44513018367195 1.426551392228498
Ni 5.610367757032092 -0.1311474671310245 5.87473373854281 0.5195114483424731 0.048248807704058844 -0.4801319181035859
Ni 8.173235397561765 5.1757909998281235 5.20384056630439 -0.5220838370553396 0.34759309280119494 0.9265618159690366
P 2.1355808212453367 7.352625820903647 9.663256044575915 0.3119241786446757 -1.6389329979911451 -2.3087624499963018
P 7.10255127112367 7.828567874699935 11.208767402242945 1.1338801482761633 -2.3297416233511297 1.8174760579377927
P 6.74178281667344 6.330170291389332 4.138378112956312 -0.36092426269246225 -0.06957328021344793 -0.8199605364680137
P 1.6714733231557302 2.9086295815524656 5.635388196632339 -0.5274854676868851 -0.42590863798364714 1.6753267061288308
P 3.438726784856052 4.526550612662445 2.960626501347425 -0.5570402985258665 -0.056169090992400035 -0.49474401158980597
P 1.2180503142307764 9.060725053530916 13.305037279630312 0.3151629972969476 0.6953119125469768 -0.3554807230793878
P 9.344383401284164 1.019784407223152 9.292522820022818 -1.4070770855539703 -0.08944533654702659 0.6017003604374025
P 7.426545420419518 0.668167329039209 2.9189532837132077 -0.13842767998300032 -0.33971343294280204 0.36080830593988833
