# total energy = -340855.5836585819 ev
CRYSTAL
PRIMVEC
9.44457506282818 0.00000000000000 0.00000000000000
0.00000000000000 9.44457506282818 0.00000000000000
0.00000000000000 0.00000000000000 13.82309027672047
PRIMCOORD
 96 1
Ni 5.09869153506472 9.171230007848191 0.9863744017408342 -1.3366617690552012 2.071528046856032 -2.7074970986683176
Ni 6.089786335337799 3.818271627475272 6.987102173653991 -0.08913449017482714 0.38035151817913854 1.1969153702607775
Ni 8.745572461930532 5.637872871213587 2.3071708114615173 1.3921004096394798 -2.2481548636165734 1.204600654720177
Ni 0.5851093594030535 0.8023988050845285 2.262521583648037 -0.7855409213375631 0.9867479985406297 -0.645941589643965
Ni 3.6312312662657193 3.885063661128774 10.144683286675939 -0.5068593067961012 0.2678356729658936 -0.47857151559500155
Ni 6.3917766175876185 7.795911011719378 13.64857334963988 -0.17377314936182975 -0.5847611614799026 -1.252155778791321
Ni 4.318956876354387 5.400256811444291 13.74348282721163 0.23754962038784247 -0.3935366494108448 0.4194423135330131
Ni 7.228565953235282 4.182898330425039 4.980542736507705 1.3185753438671355 -0.22675175844139017 -0.44195360726165184
Ni 1.443027153547077 5.760727901440504 10.738425931990001 0.41806831600362193 0.3297213547270967 -3.301836133644643
Ni 1.143577461943862 1.5973798410469615 8.734119025956042 0.8347160975106335 -1.9685607645631709 -1.3086331450527593
Ni 2.747171833271367 4.122490829400181 12.470970862181296 1.462751496298139 -0.23254368253281887 0.38525229791486554
Ni 8.032034828655352 3.674865202278047 1.4296668579013976 -2.3841312538456036 0.21274875929407877 0.05647145272416726
Ni 7.297955244984757 0.15939420157853842 2.6284053595162544 0.22526026149752817 -0.3827860957625601 0.06178103786253876
Ni 8.754932035650926 6.930920175436905 13.640016564785515 0.29266301642221854 -0.4903901054964845 2.1634475559751647
Ni 9.054778399399709 7.776077404441048 2.352510437699781 0.932231098439672 2.946132238810855 0.8350639677683553
Ni 6.7869187420213315 6.4606559022927925 7.133529918359948 -0.8693475715415737 -2.12659619147477 -1.6353481088533641
Ni 9.100707367111385 8.546537490605038 9.870059604640257 -0.5539544605116912 3.2398082698786204 -0.8487224390920545
Ni 9.336056728906014 1.8963573039054544 6.202116331302347 -1.4163389704718705 0.71137822198122 1.2549734507457742
Ni 0.4646513622843465 7.30070361627904 5.277710618816423 -1.58939221094854 -0.588737115408515 -2.2623581517001488
Ni 8.50876863560216 2.2791364798023417 3.729787294204213 0.8515061724847787 -0.9225344399771982 0.9953784205221181
Ni 3.967533689107052 7.492088481940036 12.64815486503101 -0.8293160095409847 1.61736452779175 1.542202697746931
Ni 8.748094163427348 4.4568098915136805 9.580120599955746 2.888427170789903 2.378057793958014 1.0199959619604821
Ni 1.6521300417100486 6.038558961110339 3.2953415713472745 -0.8449133497586094 0.8963451831763402 0.09450681023033401
Ni 0.7808170069932365 3.6740435242622302 11.472404458709226 -0.6110638039301733 -1.7099054725449652 -0.22243050535821693
P 5.3174184450451305 2.955339708519789 8.951142134625494 -0.9483236331261604 -0.869310290545735 -0.15574174578141564
P 2.380939552589544 8.26368191709136 4.597463223129175 0.15437134779645026 -0.12227112482779585 -0.434236184012736
P 3.7367932798609105 3.118749743343445 6.200816757796872 -2.572488985889828 1.2783578911079856 0.1219556504699061
P 5.288621936191973 8.837609844276882 3.8854357773796155 -0.27411353555480533 2.7403874216384354 1.5468221987968136
P 0.9481408736531494 8.360885481904969 13.570749108052178 0.9329782610183416 0.46163694462319205 -0.1925468304249071
P 6.061490388954047 4.082474165572425 12.373103343752609 0.34245551446431344 0.314618180537071 -0.5217012569049402
P 4.0098264954843685 6.441917865702217 6.860842374177627 0.5254167580833145 -1.9410509891786765 -0.8629771492388556
P 7.210016808142597 6.899573631362249 1.6319951524925853 -0.8296944759263258 1.2355096855942078 1.8157611321292149
Ni 3.869782338949565 0.9178407884767968 4.382057970139141 -2.1464124548697483 -0.7233935012745413 1.5256483929326756
Ni 5.1885661097602425 1.2631080018079346 2.566449892666197 -2.760308071821762 0.10221497750786912 -0.18078531901360476
Ni 6.455754167922576 1.5340823001044033 0.7033412702191404 1.1655137160210443 1.340416351001627 -0.8470725621934572
Ni 5.034836764203391 8.541172972064993 10.674314268691543 0.011252947205999975 -1.1441691889069974 -1.3699079327028405
Ni 3.651310432491306 7.506567015253217 8.786867921198997 0.44031889987170625 -0.7733793462743648 1.75315168482811
Ni 7.480141094698566 6.846117337459701 9.93137850714243 0.25375682627532425 -0.4649991762272056 -0.4534541517020836
Ni 2.8798397768136104 0.4953112857641774 0.15925064404014289 0.27064511739023067 -0.27457659123415296 0.3757824107512173
Ni 5.587042169131694 1.4456244116430488 11.098946133775668 -0.06738758541603879 1.3121740683264822 0.4366391370272738
Ni 1.8180995563300983 6.0533680545448245 12.781671875856263 -0.8883138282314316 2.17977071861522 2.4644262913519297
Ni 8.014080691781015 9.327981617371265 0.15648999479849715 2.273592072742755 0.08914811702158194 -0.07901334258042521
Ni 6.734529685081855 4.032824035352338 10.081345134061333 -2.023986549631643 -0.6843258458491182 1.038308901337057
Ni 1.3359067850943025 7.596073251527855 8.901420225636208 0.5177214463215858 -0.6445796762994319 1.7020142427223461
Ni 2.432828047059615 5.311713921808887 7.913525247337368 -0.38968925064029664 0.7878310029233205 0.40106072570203183
Ni 4.488798666681159 0.7938099086755219 9.087147790935433 1.7275892629779732 0.17941774924211681 -0.9947073625970224
Ni 5.058023195569249 1.6168734436290921 6.852893819946464 -1.506715817694231 -0.005515016280958244 0.5710489541001327
Ni 2.8626223167810405 4.021783327300733 3.313491210921926 1.7770076655101008 -0.7459245924975217 -1.3281743004094804
Ni 1.194880392770477 1.0893561574748636 12.374913868759874 -2.095751952400404 0.6110200951764315 0.26739807120784276
Ni 1.7056052247623859 8.489539481117074 11.427023276341428 0.006682297116182039 -1.7134898474621134 -0.03012638707173521
Ni 2.412871660307657 1.2862094319997426 6.375554615748923 0.5800100199481624 0.10826478324637483 0.9601183117682431
Ni 9.024867430709007 7.195849945800932 11.553255686550596 0.7538263638431018 -1.0486797030484196 -0.11113516281563442
Ni 2.4095377253699186 5.057220406703221 5.5199054084945445 0.18693642621666515 -0.07742491504738278 0.5716153681265639
Ni 6.371584116463299 9.27023748646664 6.2146398376123795 0.9890776751150708 -0.7949087357057084 -1.7601710535687363
Ni 6.287102394032505 5.428514979528464 3.2338980004564957 1.012193435196928 0.8807984936909927 -0.3970552040870646
Ni 0.8915905370151815 0.5605572425074591 4.715428796933239 0.04742399780991832 -1.4494609498368198 -1.1619509383704507
P -0.10568101523886124 1.3928481271329003 10.450864126806424 -1.0138199150567573 -0.7825365872936008 1.1470346833802503
P 0.42750112693705433 6.667548759930464 7.299627879198563 -0.12352916560461305 1.1115362333633243 0.2619589024701424
P 6.534285808169871 2.520615370703464 3.273473602636681 2.000758175231322 2.4539125363047996 -0.4472104847852169
P 3.71882969841168 6.363697896426439 10.941722295507871 -0.7008292428207802 -0.8439196183867723 -1.8652358418205746
P 5.297263722220388 9.331580000406047 12.604888322982076 0.21543273388414508 0.8753516116438086 0.5523958577753195
P 3.8155893682052504 5.6144408809004736 2.066067814641193 -0.18569329783818342 0.12012656768096731 0.15230572351667318
P 7.08741678143783 1.8552450693899434 6.490950320724208 2.5633448574967144 0.9425121686507058 0.4151722254027495
P 1.6867727424228662 3.5683965094929895 8.743063038381079 -0.2933507865178625 0.8078388135038151 1.1945602397650394
Ni 8.132676218730538 4.59521069201685 11.922429007854548 0.3197063936932558 2.1613719043930586 0.6626856418715233
Ni 1.8816521007948064 8.262605235553393 6.773203330359621 0.6026514114967622 0.49969184251338467 -0.9062796686812328
Ni 5.290019733276351 3.972095418781068 1.9796320096647386 -0.5201495961471042 -2.059157955326454 -1.3832666133979339
Ni 6.501116461140586 7.360487775360864 4.4461696334376 1.6438551178831111 -0.37661956194053203 1.3152941020127025
Ni 4.28805422729977 8.48475108164559 6.791187689873619 0.5450725846410289 2.007642818166297 -0.8950622026988584
Ni 5.515697850379071 5.880267885879471 9.246790384833695 -2.0599213158550396 -0.3613199554689842 -0.6252683775653297
Ni 1.5874630374077963 2.9709327016705145 4.74394669082701 -1.2203232076617565 -0.8999642679861661 1.0547349081035644
Ni 6.798497790841918 5.604779080783459 0.06497017515636398 -0.05415026079015836 -2.9626384639959946 -0.4779647352489381
Ni 2.427180191272738 8.884473824903107 2.432117815027553 0.8487046984802417 0.7169114930946234 1.7732209447741591
Ni 2.545889053120994 7.216883014090857 0.9813706659617583 0.3608679555332301 0.040988783707535864 -0.9363793162800905
Ni 2.705030140092362 1.0275036364911554 10.50156732712724 0.0875270364783912 -0.2635678988284751 -0.9146614649870248
Ni 8.890716688908336 4.9384926557051765 7.378060351409466 -0.9593809193815863 -1.7924471399936228 -1.4131844840032888
Ni 5.8156953273261625 6.2845051359365325 11.66766915573686 0.7146885173013755 -1.075525105376038 0.14054472632600312
Ni 4.1057739318370166 6.169366323398376 4.178111819868535 0.11572201085536844 0.4870430434011224 0.5980406521976281
Ni 1.9746339406305995 4.8186976677440585 1.0837262463802861 -0.3731562859822799 -0.16280225217262284 -0.7545336743227715
Ni 0.6370280765127865 3.4540227075212826 2.5326666482687736 0.639075458651751 0.3100020219212984 -0.09394656685148982
Ni 7.347454262006533 9.142017937699679 11.492516680946943 0.26449735262127994 -0.10800253072392368 0.33372893322459296
Ni 4.83581123745279 2.7922602338174385 13.450461113281571 -1.198120703422788 -0.23559121110989104 -0.15455081079710803
Ni 7.531113465403875 0.8017773520564742 8.742896813862936 -2.686501213142941 -2.4401715325696234 0.7683068168474639
Ni 8.610807822761723 2.541280100572506 8.630100255898602 0.21951358882173808 2.165758206386212 -1.445858577197542
Ni 7.936087392302704 2.3108324731480927 11.915434355687726 0.07372792581176979 -1.2461563666747764 0.15025526874554768
Ni 8.014524586801054 8.331975638153077 7.474463016272026 3.293971386184585 -0.13098536477234216 -0.13870278802125788
Ni 4.8322411881426905 7.679789963392198 2.3520816539995733 -0.6774499446648914 -4.313857304929764 -0.2526841620364358
Ni 4.9012715860461755 3.061855624179319 4.496305214807263 0.24908564605190006 1.3146276720732972 -0.6357633635593826
P 8.664264116664272 1.8650579827052698 0.8276630429271641 0.8271755661592142 -2.055396174291176 -0.483640959698109
P 2.9128957889441613 1.795442021158329 2.4343287900103423 -0.47507558662660115 -0.17170572530983977 -0.10350181464009271
P 6.239652849762822 7.936181838051648 8.473070031416144 -1.7019165408022174 1.2299491607872945 1.4039801917962014
P 8.297200713391739 9.093520045616714 4.46452610920244 0.5441354175387403 -0.46361438006453703 0.3143299598726909
P 3.0674279233670405 2.1184653716980746 12.197052689890231 0.7168585283695009 -0.019135949498502527 1.3548430679499182
P 9.340495679106402 4.6656199978549235 13.770741759271973 0.9331806068371348 0.8371013099133583 0.0730301284137968
P 0.03912415150023082 4.829927267293551 4.726432671142755 0.4525488662789949 -0.2829697003938546 -0.623573763471726
P 2.6934983141462463 0.025858301603495944 8.315846193148348 -0.31774052821613663 0.6588500701755169 0.0892689588701624
