# total energy = -340859.95209210535 ev
CRYSTAL
PRIMVEC
9.41162436443326 0.00000000000000 0.00000000000000
0.00000000000000 9.41162436443326 0.00000000000000
0.00000000000000 0.00000000000000 13.77486359891880
PRIMCOORD
 96 1
Ni 8.848121919010584 9.338909880329261 13.534078259688764 0.34149083655819895 -0.5325921927858311 -0.011131848247103409
Ni 4.512092585412712 0.342846642278881 6.248924988567303 -0.20418827131857736 -0.20585048951234872 0.5042624926032024
Ni 2.3296875453831736 2.7875159991455587 0.9748089649180602 -0.18861741346351388 0.39493687219248114 0.23209373947959383
Ni 6.550292721165404 1.614799402904332 9.999930592340245 -1.5670148716946044 -0.4956441548065722 0.735403895471856
Ni 2.02279330712058 4.8836164462878315 8.583558342408738 0.5684765653872661 0.21968790961607326 0.10612048320986239
Ni 7.201473580192347 8.503929414487114 3.9393905538438356 0.2784530434704237 -1.2774433497135163 -0.058159639059867575
Ni 2.0623691864107605 5.527004480569883 6.069893310515096 1.0165812798519784 0.8355337083159223 1.3434610513652216
Ni 2.3854608297288595 7.902413695772722 2.6678189639939496 -0.13964561155050143 -1.000807047736857 2.2744479929851473
Ni 5.616527848895257 7.719555251366322 7.698205923285026 -0.518383505385617 0.9258172244935282 -1.8523903533164743
Ni 2.2941680760749357 0.9208972998169872 10.179912844425344 0.11190700798465242 -0.25089493134649693 -0.31264485886078414
Ni 5.064545507756185 9.035065008271191 3.3663977030906382 -1.1138558826354366 1.855244792046134 -0.6127031393058092
Ni 5.8330422610404655 2.4163686032339613 13.15933374105072 -0.6743270827651936 0.15984676908872472 -0.0720029727008631
Ni 7.703790781018866 2.050143486720405 2.951085319983535 0.5519898805861525 0.20197789393081989 1.0405452468667433
Ni 2.683338732115117 0.8766269024316957 2.334040421523889 -2.037592827561168 -0.7519875108621501 1.8428960406727937
Ni 3.485519688010468 1.8991622131001733 4.482010211340131 0.9068226856688963 0.20726922423674624 0.518031778473153
Ni 3.1267768126468987 3.7721224647392617 3.0524136884025292 -0.6185626834103799 -2.608666207141333 -2.4801789262004963
Ni 4.883023513970285 6.8383637112519295 3.784409339986189 -2.2420207256943776 0.1798095853638968 0.4659589690373137
Ni 8.302266545152822 8.339216581322441 11.098724528344421 1.3197824768013593 1.200933490281235 -0.20932687809672335
Ni 4.900491488277675 9.416800481281827 13.355060699072688 -1.4365864078669968 -1.6724131320264615 0.7974240459283944
Ni 4.109736244025196 6.23717739938062 13.248235942186284 0.6123020472126487 0.4195883521925742 -0.4638581206442269
Ni 7.912070022087045 2.4600855971228763 6.996831931834192 0.207070735072695 0.08188423637031704 2.356235298766284
Ni 0.6132538962769865 1.950323801642723 4.986293500438641 1.0383916908588504 0.2769003542713231 -1.739135573054676
Ni 9.233904390379074 4.095327047546417 12.514311848826985 -0.6288869481545233 -0.39861869191944255 0.3021922960688925
Ni 4.283333650328972 3.1149464011682406 6.66514653456131 -1.036623028994202 0.06495969270083651 0.8265371612442667
P 8.390980513806625 3.322924470265603 5.290319075679201 0.38406547669561597 1.666363326287956 -3.678431527215458
P 3.925136649162509 8.905655177060732 8.69607148489395 0.25275846691779696 -0.9702384309213807 -0.15472538870175934
P 7.20212298225442 8.066317129265824 0.25738721323472 -0.8014529645821293 -0.9147743364158052 -0.1757061047184845
P 2.1087779047888535 3.7280854756313535 11.64539306652339 -1.0311699762994304 -0.8367320994993978 -0.6849400823943493
P 3.383667092129771 8.421671819957702 0.9939117383295416 2.173449404382883 1.175040167454241 -1.3178724042628398
P 4.471970831925426 0.6630357407282303 11.28308695028009 0.44280129997392775 0.20873912391405341 -0.38142546796960763
P 2.1041379741134527 3.7594732419649453 4.903162507193859 0.8623428580889665 -0.9170266227850916 -0.5872505035606596
P 4.421712759295327 3.8487236731917656 0.2663630791274775 -0.4699004701835649 0.7600962560122135 0.46909391512186954
Ni 1.927020620400752 7.3649629022255745 13.75695587087989 -0.812041281620937 -1.523279121369551 -0.22949358285258542
Ni 7.951843545483074 6.61065887806605 2.119179631730948 -1.2501958268514726 -0.8656068735522189 0.29045315325509335
Ni 8.352675203768328 4.5354428247751235 3.352209679777928 -1.0631125906442982 0.5066093955688243 0.5292726414942949
Ni 0.1476570879923385 4.130611226252454 10.09300778992126 0.14318447794169534 -1.4635127999441957 1.1272503016644717
Ni 4.05128064681442 3.1567904818636374 10.713509577908441 0.0017357517441841074 -0.10624878125761059 -0.8599111087190222
Ni 6.504853400068377 4.840050038384325 11.274133672285144 -0.980782524985814 1.9535591489480162 -0.8013339225057619
Ni 6.672559129693045 4.554350777567982 6.159925847703632 -0.7765140352486046 -0.2510471406536451 -0.612854320171693
Ni 5.660103668422852 7.070482596135097 1.5741778921779708 0.18595426480905394 1.7972895556875883 -0.7561658106095557
Ni 2.344237916223273 4.64346944605757 13.479406135361378 0.13782681317420778 1.3535220351456496 0.30297185454739434
Ni 9.139439919407483 5.930283161118027 5.468165830258725 -0.6956147884993762 -0.21076926697020473 0.37525173505872794
Ni 0.41827516237001594 7.24615997136233 7.480797406851455 0.03655440208526607 -0.4383131822955871 0.9879692725422403
Ni 6.19372393096617 7.170019932490139 12.026048085088718 0.6418069986503011 -0.10465341174603267 1.2089180511486082
Ni 7.728872759213474 7.250329320833329 9.066353011389449 1.567981863593564 -1.2857045612810438 -0.44827492149398923
Ni 4.568929383280346 4.254185850528333 4.60912454743552 1.4548762073151202 1.856075001256913 0.9408172974467862
Ni 0.4971313959540126 2.1606265418898296 8.41232231258865 1.7341311778615487 -0.4482762070455699 0.10828329518913608
Ni 4.572383449320655 1.5882021532315496 8.659829202855752 -0.7513987282382156 -1.2607602326308802 -0.6380953541266687
Ni 0.8723107316249236 3.6953518470531734 6.612485674301537 -1.0352114933586558 -0.878989722617028 0.09500200469919767
Ni 9.094969995591523 4.902420871215721 8.109165430251414 -0.8177648143682754 0.6488186540814438 -0.7993544301818879
Ni 0.31296661812419246 7.843139287266289 1.463454840594302 -0.5879421303110455 2.755843351182189 0.7400460222295577
Ni 2.116137794825695 5.6320193821441595 3.616121971992882 -1.3115757726208508 1.2487446962272428 0.16829824229018758
Ni 0.001867266219065828 0.017464209657754793 3.4463880373772433 1.090189135146116 -0.8423949542121298 0.4614518251955795
Ni 4.6056723637200285 6.167136092917475 8.873560597758129 -0.9803058424597118 -1.6522297151000511 0.25337784566935073
Ni 1.2132054030679464 5.7021265699759205 11.244145414453444 0.5334967068779716 1.6953350309299577 0.8641449442947118
Ni 6.709753868088953 0.6410257166359554 1.2956117012579493 -0.3630014569364652 -1.2129621393109948 -0.017209936120383264
P 7.5259769671236505 6.041057976634179 7.332138922056149 -0.023722026207288176 1.9042816428691267 -0.6692630379787249
P 2.7506506675927316 2.822819001099772 8.915959023112311 -0.09773045937395426 0.15433355257997938 -1.278211081117476
P 4.149425062804434 6.260085292410893 6.626204998734663 -0.3500202141854488 -0.18577068804333813 -0.30643281651280124
P 8.254220204183412 6.282626132101733 11.161799350657603 0.302177383670557 -1.7586954974644744 0.24013974971252192
P 4.43807016196033 6.364271971065422 10.964185362005983 -0.4313210672484701 0.33025408730211514 1.1740060697627717
P 8.543985286605784 4.31746961089627 0.941400522892768 -0.1804266501226054 0.40805181230788434 0.4639267690986333
P 0.180982707725656 6.886221819739579 3.5749075289489745 0.3749313756048317 0.6057521619092728 -0.6745412556585286
P 0.9274430843702145 9.115826154570605 11.588888498986062 -0.6103996879836133 0.5051178986249624 0.37338100039857636
Ni 0.915299265809425 5.698051336745802 1.3263086543834792 0.7690310966079982 -2.504343696372158 1.7994189433257652
Ni 0.46329660735753253 8.934115928302944 5.932241720090746 2.340668811786595 -0.27258938560079504 0.006629846611691808
Ni 8.92011143165995 1.5626778287048029 10.386163880502549 0.5491238718922673 -0.9778321841082386 2.9867952637478563
Ni 5.969699042798711 2.3600117981948174 5.196664004379181 1.028019603595907 -0.9362492184601294 -0.219363436397119
Ni 5.370846813701232 3.759520300085385 8.683384615623282 1.3904201937235796 0.9807892098540334 0.2547161048648
Ni 4.038763186777336 5.503889531809673 1.9608657617837293 -0.5746333290172814 0.22061762051919426 -1.247445517799845
Ni 6.025622913129805 8.264394169822577 9.885420303223551 -2.22213992761005 1.9249795375381107 1.5319522236635164
Ni 1.8334690769657003 0.6844133036817894 0.11267125776989194 1.2765478344824401 -2.832698509769031 1.8827489110036737
Ni 8.07346996357273 9.742254442246022 8.595679573071717 -0.28591309929289466 -0.6865693904676563 -1.4386407192928643
Ni 6.822627475776738 0.18605557310910603 12.269711268078268 0.19269569729794556 1.3828398102731603 -0.5303609894624672
Ni 3.4927760501823424 2.0419741970119922 12.769022396171069 -0.9047948566055901 0.40384934419076257 -0.6797454255672873
Ni 8.174663745767266 0.7102162122815419 5.346492354048628 -3.2409737509416314 1.1000932816337057 0.048824220591554626
Ni 0.5467588897702128 1.7073721374342286 12.592938438783234 -0.29268435657845726 2.6177982513495883 -2.4774756683367207
Ni 8.799689701453563 6.333665369531138 13.544064934008576 -1.30907871723061 0.6932462882671996 -1.760564946573045
Ni 0.7006464729088295 3.2207142326695606 2.60015691610026 -0.052868051643625076 -0.7563738128553039 -0.3062705799033241
Ni 5.696818413990269 3.6427126335288023 2.119179631730948 0.35971661553760625 1.2186033967571723 -0.3738294007899045
Ni 2.8508844641302873 8.263434184165597 11.993801037475889 1.3691312024378162 0.9436997612009038 -1.352976961275457
Ni 2.1205706697711593 1.5955243967720396 6.700465536276473 1.429728761515215 -0.9525770090858757 0.753449183009341
Ni 2.859185516575933 7.424020843377985 5.1693891177720594 0.5938700657597062 2.0742629292886923 0.039728943158505774
Ni 7.494231559074715 8.086514474558744 6.4281637223494466 0.9497840197217707 0.06616116920810541 0.059707443162961685
Ni 6.386671636394943 5.172854477761274 0.05234086504078019 0.034497776666553494 -0.5140774218110954 0.21952310190343483
Ni 2.540310280849273 7.262893838990853 9.782426077340974 0.5565672155441899 0.540581638749211 -0.6266742567739207
Ni 7.953697635428417 2.252060469905074 0.15137844415674695 1.4276878198257863 1.1581986704168699 0.061258332589849335
Ni 4.3901179372318 1.5501038989231901 1.2307731405906694 1.2073823312303722 1.0749201248021876 -0.33371659192941877
P 0.8942209925018654 9.320519566861245 8.234585674010956 -0.1235016548007873 0.1287788440393266 -0.5529332183360284
P 6.466143390194297 1.0004462289338634 6.996446055246583 -1.3317486480243002 -2.4264336141582405 -0.037949482660579806
P 6.492053591308653 5.796233399232167 4.20458376809717 1.9648609471140805 -1.5213217405328638 -0.19310475981090616
P 2.2113269608520656 0.23471272848182992 4.483235604796393 -0.47899831871977505 -1.9549251760576074 0.4283786967906945
P 5.453245582591966 1.8461465346122812 3.096575852110808 0.3005349629711276 -1.5597288795561524 1.052941049427935
P 7.148439078456279 2.9814989832240153 11.573172027921455 1.8732419999545027 -2.105840704094973 1.2935559390046625
P 7.9811701661413865 2.942007808550627 9.128629727979966 -0.5377539394924288 1.5139668428296893 -0.803525787950758
P -0.04168878889794398 1.0557489320751474 1.6473222111029402 0.2959553140202451 0.7228612829201551 -1.1216926050710359
