# total energy = -381159.29883249407 ev
CRYSTAL
PRIMVEC
9.33356519334015 0.00000000000000 0.00000000000000

0.00000000000000 9.33356519334015 0.00000000000000

0.00000000000000 0.00000000000000 13.66061611169216

PRIMCOORD
 96 1
Ni 4.8736423836119895 4.843858977192718 6.053524489220901 0.6223866851421604 0.0277152065270813 0.557785147111691
Ni 2.543088497912736 5.159230810317366 6.43460088763201 0.14198762942011675 -0.6283488162628662 1.3878169517727776
Ni 7.022891766116526 0.07438011410085031 13.860333992751654 0.37392041784181407 0.7030475906283375 -2.8974555995407583
Ni 0.6001286391744443 5.859574871950086 5.372419705448427 -1.9478839529401097 0.8237009773470524 -0.9150813261332627
Ni 5.744725352680536 3.472748921913074 12.504982728884828 1.7797739154013286 0.9689456802518862 -1.9095632029830403
Ni 4.511976067303517 7.887917251397512 2.3035080139408324 1.6057781085057312 -3.4790597034489177 -1.0382621072595217
Ni 2.180694163521937 6.439441274522964 10.533291356520573 -1.0245776677938936 -0.3969623872629422 -1.8279710439318453
Ni 1.872033163745912 2.874859405020041 1.826233359515463 0.20768548583855845 -1.041555947519445 -0.47240780998645093
Ni 0.3199088791479659 0.38554997619135345 0.07589401836948265 -2.1800609961621293 0.08963585529127788 -2.053303810538522
Ni 2.299865123459653 2.75177768128111 6.548134374214277 1.4046702758846905 1.4050027195234447 -0.8605947650496082
Ni 5.968021565521226 5.689162639294789 8.215548722357232 -0.23790880349947413 -0.9593503232539671 1.0020162375536097
Ni 6.2858201255869615 8.22938573270401 8.835454252745023 2.624372819243313 -0.7422394303364508 -1.4130834396490504
Ni 7.8721248591501265 4.237625253048407 8.553020571063062 0.2161837531175567 0.04023159382653716 0.3397957082439632
Ni 7.524552226230278 2.5261200764554386 6.101896624008901 -0.16720989432201527 -0.45658498402158143 -0.19571597218150807
Ni 8.134640712784854 9.007571727754693 2.0979427748308503 1.138518418379123 0.5957495421706062 0.6115322589261597
Ni 2.2497345449958788 7.5802736102237125 5.613406757689646 0.614915830686412 -0.811713723078189 -0.8842676831865158
Ni 3.5934505865367075 0.4119760992232815 11.010456808233595 -0.1820803836759445 -1.3818226818625556 0.3860218290910384
Ni 4.9663060185009025 1.3229208583687395 12.650563944793703 1.063064768125498 -0.009535450294260997 -0.04060903177061393
Ni 6.5771860291251585 6.588162301751001 11.478947644488743 0.288613014722561 -0.5175257853710119 0.47463335688286
Ni 6.085475149469866 2.446626102004504 7.970942113547729 1.0771646978619902 -0.800748225205621 -0.11548469803358175
Ni 2.758684519498052 0.7475196333674621 5.746556598164542 0.1772737063159205 -1.6243273322628284 0.24531023816986786
Ni 5.4666224452318986 1.8639409627539008 4.153127554316253 3.9669854065653096 -1.934361750083959 0.29183100743922646
Ni 4.017689123664607 3.1885698635465594 0.24556609930774767 -3.546315905493415 0.8535918513692137 -1.0955051480423907
Ni 3.113761338804956 2.4588344052312068 10.283083675259737 -0.282136662969598 0.90167945090506 -0.6303288228073725
P 4.6706093407293805 2.309310691399579 6.12055722082935 -0.14945514144175553 0.2869140297535833 1.4215601096614938
Ni 7.927015555844497 0.3870041456429744 8.343917910758186 0.15155933226895188 1.0240701320298558 -0.44135788265918174
P 5.23067925160208 6.933812220248296 9.939942619076922 -2.3783462717327106 -1.6974783025252056 0.5360991774978251
Ni 2.4639585325029643 7.21988599234189 2.7704821458578004 -1.5405325091333597 0.42956937466468603 2.30653638887926
P 7.8568084787258 3.7123788737803154 13.270537610207148 -0.8072968249574161 1.172978656939522 -0.8336686300827256
P 7.204662947569144 4.881977257298109 5.522754506092287 0.04154337065942523 0.15048898202290856 0.564363571660157
P 9.145839162005736 7.912828536804293 8.843691123996985 0.44409687885689964 1.0099195515610866 -1.2865450549044681
Ni 0.20785289593021497 1.5555599699326168 4.665933224585208 1.0921981951563446 0.24625871812606623 2.2575699862828857
Ni 1.0878550198637746 7.336742228120415 0.833807509896926 0.3692667211198866 1.4573848326695866 -1.078054299555795
Ni 4.898665671800665 5.585877407256038 12.84712602695225 -0.7869653124889155 1.268909601210892 -0.25356322220727945
Ni 9.053642205374725 6.883298965613041 2.705416929784663 -0.4199336513471349 0.09238950677701509 0.7084901018001476
Ni 7.646747261279196 4.405965434238621 2.1908490824138727 -0.2899641294338167 -0.5150675536385064 -0.5172889867698575
Ni 5.964726817020442 7.251788118052034 6.589211394474764 -1.3874852794649717 0.761656658520798 -1.595230414896872
Ni 6.345330937034556 8.51997695033409 3.724403305773404 -0.4924814408078745 0.9691698804475503 0.022470927409006462
Ni 8.710055004777354 6.445984103698743 10.201529782978426 -0.18937486045482868 -0.6152860695416371 0.18071692766951458
Ni 9.437727745192783 8.43558285417519 5.978951170321278 -2.4441508289323455 -0.39814818004092717 -1.044591134801343
Ni 5.55214590277492 4.351102738239725 3.88940953748917 1.564176630914861 0.5670100081440687 -0.34733058316842763
Ni 2.8952625784554926 5.175993893341186 4.15957518112742 1.040736022721311 1.9535509214179 1.2036606594044108
Ni 1.826830707685577 0.4585029881795411 1.5411769460240938 2.768474409682639 -2.004954472700857 2.5305134127889906
Ni 4.412162921503553 7.008835416988535 4.608204190726282 0.535419120711665 -0.048787968036980496 0.03674466371920123
Ni 1.1278026787401396 4.868891598946552 2.6081397136381357 0.7515391104708218 0.2056558570030394 1.9300698075768246
Ni 8.611156548362878 4.218734117168556 11.104318872888799 -1.473898514053894 -1.7515455166832543 -0.858514742592128
Ni -0.020966920770996742 5.805113519252985 12.413374720215286 1.9447258669271024 -0.15672159319618173 0.2250815698278188
Ni 6.448812173941625 8.980308383928088 10.994268672823509 -1.6301256841121603 0.9284484914687882 1.0120425114413603
Ni 1.1188237890581156 0.76931350801146 9.537664094052833 -0.18353639939618072 0.38868472063518217 0.16244075506814606
Ni 7.977612812566172 6.499166757969193 7.1499663890300615 0.9739359343776258 -0.6549427647013109 0.2619002813180651
Ni 4.149647067868824 8.810353495965536 8.94238984211708 -1.463707432453505 -0.8115535433512411 0.67712727121815
Ni 5.910312132149132 2.960905542211912 1.1023901808843735 2.4412758213773955 -0.7107179626894018 2.2920435945797237
Ni 2.1934158128323307 4.3622750157338865 8.896626438790747 -0.9042402696537009 0.5521215210680104 0.03338526032866508
Ni 2.91862449204604 1.3111605662696226 8.227475151916162 0.8149363437805448 0.37051370615311024 -0.26166245427564616
Ni 1.1498392260782464 8.835796794586324 3.8891640647255143 -0.16886259943408985 -0.015952666674514462 -0.8385606680677042
Ni 8.091874317230765 2.060683182719998 0.8387505660046182 0.9185260901487536 -0.8824604547744479 1.37740064153546
P 1.3399266140866686 4.021721223812876 4.721928082037772 -0.906772034936619 -2.4869062176220007 0.5901316817631965
Ni 9.260679347710129 5.430258875376217 0.9568360323144559 -1.5708982659094106 -1.0121972918516697 -2.2262187256651145
P 6.71698416806212 6.1644277771416345 2.9445867368896135 0.04874683038639992 1.2744683262455923 0.4814845754767385
Ni 0.3523271510113486 3.594635949311777 7.004576511206925 -1.149231176810937 1.4649821854008707 0.05443333924821594
P 4.042171065074118 1.9790144875872426 2.007331590920187 -0.6391163391920154 -0.02996775000668387 1.1318191519820766
P 3.232736293874354 8.356359553113839 0.711100995477348 -0.20889159033151763 -0.744693291193582 -1.6775370835165884
P 5.204937278896235 1.995441562265374 10.371126262038914 0.0617409286532227 -2.833991517548842 1.6299698752605867
Ni 1.5945182709022305 8.732679566720417 7.583513290690065 3.060525246442155 -2.1332237240936167 2.373465032381009
Ni 3.9754827420199996 9.34411208665775 3.868440750005142 -0.9385130747936419 0.5703380440760372 0.2885957883313804
Ni 3.67792868478203 6.539730432145987 8.06099328354891 -0.27048596610454706 -0.07443703606365246 0.22134884225826393
Ni 5.832964877684544 3.7574226592329643 9.800672759927906 1.1662958456027077 2.923707334148436 0.9627601202664645
Ni 7.394694334186618 1.7781001639955065 11.786885292965021 -0.9108611174043281 -0.1365839419060422 0.3916006087303966
Ni 2.939821018519924 7.192585314254655 12.415219032690512 0.20081755507413157 -0.014794641810671295 1.7885508902630098
Ni 0.9319443473945079 6.534316964354331 7.593649542451684 0.7468262783761848 -1.1784347949580865 1.1933685334497834
Ni 5.440152454443728 0.37273965801195846 1.6393287172259285 -0.02492273138360869 2.1999235394140113 0.696824235426445
Ni 7.111411298075275 7.168056705019354 0.79199873812805 -0.8176054059722758 -0.5596368556084491 1.8216939526738822
Ni 1.3818343216462197 8.959737206319794 11.756476537680161 0.32863557786208564 -0.23418430346003538 0.05094795180277677
Ni 3.8969781254758162 4.776302632578903 10.929531064887419 -0.11074512646606734 0.2565189624014937 -0.9272493289543644
Ni 4.998226811341363 8.389195035339785 12.932341476845057 -0.14154848500016912 -1.2747030679642177 0.6389723574149835
Ni 8.548761665281452 3.599722742322903 4.16861940576555 0.9744635247463218 2.8643706440613315 1.063274313033143
Ni 0.2811979176550399 1.9507337851584141 11.492416912368293 0.8720683129068465 -1.4798485609897418 -1.5132705880936133
Ni 8.646764099440759 9.066513191727648 10.608397621990719 0.08685726410487621 -0.27857748486342987 0.8728087906172969
Ni 3.5800102527091453 2.523600013862771 4.158537288681847 -5.122340436885797 2.0739351136356285 -0.012486819613101075
Ni 7.50876916754805 1.8676370545564804 3.351714049013299 0.3438979033377948 -1.4274386799294578 -1.6839036491645645
Ni 5.5601914359411415 5.545836412728093 1.2541576837799913 -0.4724741444480121 -1.1443825904693838 1.540510911866805
Ni 7.743190990057111 7.044778976412104 4.696629453676935 0.29522357806054317 -1.0753695536347803 1.0353955843450038
Ni 8.313518489038485 7.665675731419679 12.802018773256526 1.167284691878538 2.3424976374652173 -1.8796414757229436
Ni 3.7601387266939503 4.281231669466719 2.500971718493645 0.9335721858485986 -1.920993813417485 -2.2830007676511648
Ni 2.643984337271031 1.2385360957749978 13.377731739334083 0.3730950937270413 0.31846120843224507 -2.1901322643552024
Ni 1.678791030714076 3.8932820336732368 11.384019686692492 -0.5950795126867752 0.923563652572661 -1.7036474074503951
Ni 3.1360965602281197 5.885354178916562 1.1418954287722478 -0.16681574420739012 -0.04468165917809079 -2.636539022292201
Ni 0.5825731364687071 3.1983421062670163 13.256644598469421 0.8764728697324454 0.725574310975944 2.240543884038535
P 8.976080278911502 2.3771750436636094 8.72121048185423 0.09612609100131188 -0.27131231866058436 0.13963198470374663
Ni 4.185459957380182 3.6131070747595166 8.073847469484548 -0.9393605103956016 0.5482460972730042 -0.5108599433150621
P 7.691744378906055 0.3802569113902351 5.060561959605777 -0.08499270009231169 -0.17351475349412054 0.4079677372345103
Ni 0.5580575942246278 1.0948645272974546 7.0717595132144195 -1.387531559321875 3.565553927787421 -0.39772677623279246
P 4.000730035772468 8.263238573532181 6.5618500482140005 -0.29586686807149687 -0.2532667740127832 0.05543889769459484
P 0.42143286744139663 1.312187258437006 2.6455561096436435 -2.4362351736296946 0.8152243073346089 -0.22005583447845328
P 2.7038778248901045 4.581352457123147 12.994360217250613 0.25363881264022126 1.5608249408338086 0.376537543749687
Ni 5.452351424105272 0.3193768659339582 7.242531088128301 0.42682626470191 1.157708875264645 -1.5167657457310653
