# total energy = -340857.4955510929 ev
CRYSTAL
PRIMVEC
9.44978221424262 0.00000000000000 0.00000000000000

0.00000000000000 9.44978221424262 0.00000000000000

0.00000000000000 0.00000000000000 13.83071146916761

PRIMCOORD
 96 1
Ni 9.71380890720233 1.105359899890335 4.201340947129084 -1.0524803077414326 1.796417180384964 -0.8480390398717846
Ni 3.1638437116804314 3.809490616923628 0.42516553664001583 -0.4307988761964129 -0.10697511790067384 -0.38719399502226864
Ni -0.284129430273678 6.153480692224536 12.141469242271464 0.9764065074053054 1.0242135995862554 1.2747622033369272
Ni 7.764016487955222 0.7751240382693692 13.126728082834214 0.24419437939786978 -0.2465212277588335 -0.6533689924562877
Ni 8.037616026148335 5.6325142106652395 4.7536155014265296 -0.45344849527512876 -1.207250176527882 -1.6668459223513294
Ni 7.18181541904776 6.814105501934838 1.487838881288202 -1.0554931264258274 -2.4718860900640847 1.120854939661089
Ni 5.645403713310748 4.707390002826065 6.601550610471725 -0.09447827098524374 0.1940694377170206 -1.2643952582803064
Ni 5.178612831946978 2.19644117918143 6.573958192015259 -0.13225034752769482 0.30931142361217695 0.11709009484748867
Ni 0.4391776733869073 5.749360765072653 8.882636321945393 -0.08974255607247125 2.3486366604834195 -0.3203473697113644
Ni 7.529539047234546 5.468522693868938 7.830353957582399 0.33570405467309283 0.2368777911317985 -0.8623708831134245
Ni 5.575314680230296 8.649602807914038 14.032363060280353 0.29409152133862904 0.08267947857810277 0.6352774250618994
Ni 8.8944939083967 7.8770358806533745 7.379555887272338 -0.8213283633498178 -1.814185560111979 2.4498648485979873
Ni 0.5851040419372998 4.136037283652508 13.413673548143347 0.8389689592497164 -0.08826674285789314 -0.23021323462742932
Ni 0.6566908654644622 0.10571471121356543 13.871926551471766 -0.5915753561882586 -0.5620585776760643 -2.827206119195892
Ni 9.362711706842195 7.898458536443234 3.524507871335515 -1.5727833987472655 0.8836552464134975 -1.987707769805267
Ni 2.051859514609377 5.831772313878723 12.944038282398127 -1.270057598772406 0.7384377972021734 -2.184641159333644
Ni 7.025175832646039 2.600334311565357 1.4699003601210694 -0.10416258815254319 -0.6002795688304758 -0.10728262183876362
Ni 7.165278300550957 3.0781247391750006 12.830598374401054 -0.3285054800421246 0.7749451480995879 -0.41410753158366104
Ni 3.2797547376700256 6.287525849868626 0.7759404994340113 2.8546297626244836 0.4232902265241936 1.4571282365740905
Ni 0.25571204584877105 1.9496412227351358 11.864219253292456 -1.3499597717156882 -0.7660668717733516 1.2405313071785151
Ni 5.4076660978007025 6.5261517448865 12.845549819478565 -0.7786405946733042 1.4249012582195848 0.5472585365487543
Ni 7.781432436177855 1.2644942287395742 5.636443430020079 -0.579445405693944 0.786242318279962 1.9730365409463373
Ni 4.104286016138644 5.572668741270807 4.59210077249195 0.7325468856390351 1.4371121984634798 -0.4312045962752638
Ni 4.3432710028724495 8.552600795702789 9.245498500893252 -1.4206455682670243 -1.177521796225514 0.9055636164508146
P 5.933149575155126 4.394658917378516 11.28421431372137 -1.827778211194749 0.2421565230322346 1.4109270554276796
P 4.22821045726269 6.761451316641017 2.6789668925503576 0.6236128442397777 0.4246896779748815 0.5041928157075316
P 0.8749638200146702 4.462413854305418 11.196278422359166 -0.16981159361092046 0.6290949504002714 -0.8261882625452804
P 7.273034164676128 6.90453046587536 9.176524542088584 -0.11604674118463885 1.1615457325122318 0.1257236021527706
P 6.155465146444153 6.462734257896758 5.518273906132921 -1.2274675320160215 0.5341502813015704 -0.805874747798909
P 4.457273172898413 3.9340576432235497 2.198626913757607 -0.10416464503507222 0.16859906136005803 0.18820809384023718
P 1.9921841412909123 5.072926470079407 5.845522691664264 -1.3105365327230591 0.12355899040128396 -1.8806532048169093
P 8.633216885929205 0.17024916243549096 11.134981466449815 0.5462203250922271 1.7600525257130013 -0.9707097141308443
Ni 5.911443425905323 7.52041055782431 7.466108330550006 -0.3123183287593008 -2.1838546588766063 -0.1404508810606162
Ni 2.4016337454897663 0.24450743933353689 11.85586564600607 0.027559397675507375 3.757237638881084 -1.113836599361727
Ni 5.4495853307446 1.4009018318832067 13.09404601179353 -0.8938689537217057 -0.019912422653210866 0.7629877186273956
Ni 3.868003667056318 3.093017595604122 8.880464762042212 -0.2756708527395962 -2.3547152625773315 0.08071618420414486
Ni 3.727683854165442 4.70167288471717 11.848825558417431 0.4270882601140451 -1.043489417096732 -0.4625627988715711
Ni 2.038506972645958 7.354519634846377 3.5560276191904223 2.828723327171367 -3.0929759107716928 0.10889444641057375
Ni 7.648464553681557 2.563158869184543 10.545433192038775 -1.2340433854613264 -1.8604664454563893 -0.09036142060339276
Ni 3.8648379900869294 8.985561457513098 2.410526935328247 1.7036301810592143 -1.8599820496208033 -1.373835292781705
Ni 2.4759279315594047 1.8106916282339947 5.7905457499552915 0.3441246746366202 -0.5608815266488276 0.890770260191724
Ni 8.66609267750085 0.9588410300086567 8.738173724626517 0.08507986048947927 -0.20954182232100685 0.3594991002101615
Ni 6.285928836710935 0.06935478501919377 8.426886565868289 1.1043561706751173 2.0730208293514747 0.846696152690645
Ni 4.906260664977624 2.474463215349688 11.107043185972216 -0.055630701990426766 0.3551223112987045 -0.3469225490967316
Ni 5.708235313816603 0.18981871597550817 10.83904547854762 1.0538054543107591 0.3804566762984351 0.520541175158568
Ni -0.16396316745030604 4.707361653480071 6.479729690820473 0.9637517947557724 -1.0463376851788044 1.1717591827101237
Ni 7.7252062332887235 7.918076283871441 5.084335191885803 -1.3733082166336412 1.5670284985413592 1.2262945947538428
Ni 6.241288066551563 5.042838364197222 2.6255529447838826 -0.20613408219103854 -0.5462012989288335 0.483108998454039
Ni 5.336745483904411 4.562827237818009 -0.12317979830258943 0.7895456716215822 -1.6708655850336835 1.3440464915550467
Ni 8.114291557281513 8.594378281916713 0.951829291766012 -0.030743708940759958 0.15242630825493747 -1.1904166499103113
Ni 3.4456551104299575 4.419445695559724 7.07570854188127 0.36419959100962435 0.2306742334242479 0.523050314733667
Ni 7.1480229986222925 3.166262855871964 7.525414217392343 0.9642955830743845 -1.1883726228970888 1.4537531494542706
Ni 2.915097100142514 8.797680891825415 0.001607407917889289 1.057036045432915 -1.0540836476728104 1.5950458096898916
Ni 1.2981638019990658 9.161525848101084 9.793567902201511 -1.9602303903206046 1.1736785112200239 1.9169340415258145
Ni 5.417919111268721 4.830237168802319 9.01664179050509 0.4287121688707133 0.05122948759893757 0.01696850953353852
Ni 8.010599099415558 4.557610958155017 0.7052003763738853 0.2693665077881232 1.3626106277104792 0.6693232017926989
P 3.7185364651912094 6.344479685971617 8.747537513608508 -0.06646224538829199 0.6043961621020106 -0.2109379313375851
P 9.019467275322544 2.404137937719282 0.15428186579317743 -1.4142010981932611 -0.8130365556546707 1.2629179024038315
P 1.7640002553810201 2.3617178663294816 2.9412248023892635 -0.16222838194702383 -0.2771818900674839 1.6125323965104292
P 4.187992185078464 8.527861266431572 11.8934710534678 2.1757348579829494 -1.0020949133103454 0.12691607979897496
P 5.8557936597180795 0.7968339674319725 1.910006947078397 -1.475422406897588 -1.2949530764625052 -1.7746450788151953
P 1.6447723559100667 7.845322412267505 12.05291155525378 -1.5285357417827998 -2.1397859506921666 0.6239188055159707
P 7.112737512641114 3.3954673182376585 5.4208920126853455 0.469666499795888 0.8048877012952912 -0.8927142712919722
P -0.1631637158932606 2.555136004268094 7.394036733206338 0.5464784638496202 0.14202182509216185 -0.5135284912861608
Ni 0.9471516496769163 3.2542308764929593 4.791179329847468 0.041452867828147964 1.4376714134010593 0.22957225860932076
Ni 0.5945292545022779 6.753768643876501 5.416286188939436 0.9586874928589877 0.1320845113737919 1.1656579549083925
Ni 2.113878433863389 8.216594897193739 8.0771076100969 0.6952422356513058 -1.9260380607096117 -2.237612826434669
Ni 7.770669134481936 7.7508907407597585 10.996854002982515 -1.0072738864081234 -0.4967582138063574 0.8512922567017597
Ni 2.4034575534154135 4.7811739006678025 9.471201819028625 0.02208063394912326 0.29272600844967 0.5301930964260353
Ni 3.9596193035286085 0.18499743720004014 7.17302145192026 -0.025675807499549327 -0.022317689660593817 -0.4132233292064948
Ni 2.1078211236025597 0.05850738026349057 3.571504472147031 0.11397160382316501 2.481114293530572 1.0331633525803756
Ni 4.446509871202493 0.7239411840326627 4.78548111130257 0.3105455531295942 -0.7438245154353835 -0.8158840524057949
Ni 0.06432655601796573 9.28373987868346 5.914178192815593 0.26571476996814886 -0.5150737242860935 0.2748298448955396
Ni 3.9326685252698184 1.8461472102911411 2.4263080712651965 -0.5460632306890725 0.36187351397960904 -0.0824532214999096
Ni 5.661959731371548 2.875899404414091 3.9942121204893217 -0.13600261548127546 0.26493084061427274 -0.7284398054491971
Ni 3.8938488208213218 7.4061721432483925 5.933790270374602 -0.5568772905854409 1.0475173073092023 0.4444290653853378
Ni 9.047996167175029 0.6944323497869668 2.055838817808808 0.49925449786564985 2.3378750510915416 0.7394392418834943
Ni 7.829484577638567 4.9046636518199325 10.806321828466146 0.2054242006082075 1.5227661862888742 0.2299874917698684
Ni 6.900429260488152 0.8696842268122906 3.6532715458208256 1.3003295102830703 -0.46782610415303943 -0.10588085639523057
Ni 1.0898906067593248 6.440810763660997 1.292771756390908 -0.9482472713622702 0.02823714046882234 -0.5756021206884538
Ni 1.8587532194767045 2.622314504493109 10.578502704141382 1.8652828930084262 -0.12049577809492798 -1.9464256232270283
Ni 3.4332853457943484 3.5328671484910994 4.332469902048537 -1.1078988937210534 -1.633661979400193 -0.39970498300508583
Ni 1.5893399347087818 1.995170272402335 0.9113388658602389 0.5399802577197862 0.7770277416602296 -0.6209666648661821
Ni 6.0361805482812105 8.083088377123545 3.2862183885567764 -0.5285442479687026 -0.5140627665230759 -0.32321234996398535
Ni 4.989711689803493 6.511126591509404 10.677239696327499 -0.19123865313644484 1.1098495896895209 -1.2911761259185763
Ni 1.7930394354614068 4.518413262426594 2.6013218137841663 -0.061591033338919736 0.15315290200831685 0.027075001839921113
Ni 8.806951127965622 3.9153187255211717 9.140011529425843 1.6502633354023 -2.4084299784919683 -1.7024037648512809
Ni 8.318756490375991 3.3153142673291525 3.5251854207047844 -0.5663142676286246 0.314560073605626 0.38168643494047816
P 5.903146517310926 2.1993706116008633 9.129942786706788 -0.14021202557693271 -0.877428034556863 -0.4112754614515046
P 6.017120337990895 -0.10384932424712601 6.316029227309716 0.24088716940150776 1.2201352600206663 -1.8411731444444164
P 1.3906015695051979 8.530063065637144 1.6703075568255308 0.4207551188071657 0.3182472926492261 1.2302605213801263
P 2.0885057691982936 9.129774580587222 5.978173061485423 1.8569566325309181 -1.0798101059046372 -0.5601446484828031
P 3.055766554967323 2.4906223425665646 12.357021604584396 0.35801325969325437 0.051664261143511025 1.0242153993584684
P 9.001352043232046 5.832433798618594 2.5788748016257057 -1.7101024190471195 -1.2537346932426665 0.8429929928074449
P 7.382623286508945 7.1261089541685285 13.220569142967074 1.013725555570738 0.413125884396682 -0.5921440842075351
P 2.5034645963020825 1.003491249950026 8.524739058459375 -0.011656096181689602 0.8952180115504323 0.8743974752606554
