# total energy = -381171.53630407265 ev
CRYSTAL
PRIMVEC
9.24167333641306 0.00000000000000 0.00000000000000
0.00000000000000 9.24167333641306 0.00000000000000
0.00000000000000 0.00000000000000 13.52612309049368
PRIMCOORD
 96 1
Ni 0.5355401947218705 7.462614413463212 11.732532823032635 1.1227210463355504 -2.2248167031112653 2.371281137355813
Ni 5.1390081613779826 2.992102707297221 3.4802312684457375 0.715525154270058 0.9457378746768551 1.3918003619005577
Ni 7.231859066947857 7.480996102125916 1.8290833770172945 0.24047733555759873 -0.0541407477084616 -0.5189987703721126
Ni 0.7832087279750904 0.24778035750300298 3.6975150274479587 -0.8835369756680782 -2.0584658143554355 3.3466216653904497
Ni 1.504507484933866 7.9679213973800715 7.434498470065253 -0.4295814588495441 -0.3376701772605281 0.7423551299787086
Ni 2.4060419800245536 1.7951673593082673 9.872920501657182 0.65574109223289 -0.5397617139510769 -0.17304475583623746
Ni 3.11961931874417 1.5170669192690163 0.33479348634460737 -0.4149963619465175 0.11581302790727797 0.47023239960168695
Ni 6.602417924098152 5.751915950272144 3.4372990740351854 -0.24122218414342328 0.6769148980970277 -0.448478295754047
Ni 3.4346587279060077 3.1985062440457463 6.361119676413159 1.4066443688919261 -0.256273679159907 0.6435409506222723
Ni 7.029290824716688 2.5170529625365665 9.348147780771871 1.0684273179889923 -0.15908546544266794 0.04297727489247437
Ni 0.6515167284246677 5.9596595296833605 0.3435592136933123 0.0503069757846682 0.7437898055427061 0.4166665505600889
Ni 0.5597986635859883 1.4322653229045286 13.224978075667577 -0.15358587578067745 -0.5116968373940607 -0.860670612592866
Ni 1.462762845572664 4.718669123949255 6.740432152514415 -1.014811075325433 -0.804039494362383 0.6299912369622956
Ni 9.065000462814721 6.56674506424997 3.139413135123143 -0.3454873593121018 0.9189194689324304 -1.0507263011648034
Ni 0.6046697611043512 4.961133670834467 4.444968644680398 -1.1251949617973398 -0.4531322495862906 0.8872378215584332
Ni 1.912998696889699 8.467470818684129 0.11617153301440251 -1.2248617189620583 0.3214128348614013 -0.01513994096523199
Ni 7.70763890391784 1.9229057709200754 11.900635167979397 -0.5068230542415271 0.8649844094768716 -1.346120857585572
Ni 7.570945310649844 0.8026661474373608 2.5430192926700994 0.8218017034418104 0.11714151691071438 -0.02292755533045084
Ni 0.31288979589741117 6.961567841046356 5.5765903132898025 -0.44669137905695333 0.2960103356278967 0.3907030366167916
Ni 2.995679234955575 6.601623140174073 0.9857788185409667 0.5746677817996425 0.033270074907039475 0.0648643047735528
Ni 5.783448540376289 0.6775754752935591 4.268979455538186 0.7581671573103006 0.6939620833873016 -0.3921328270847827
Ni 5.03593577643322 1.2013713512861368 2.0265243387708027 -0.17303755674738586 0.3145649587016324 0.041544913321322
Ni 7.754143005149979 8.879834291851461 12.324016564336109 0.37961618267501074 -0.8167376586553418 0.43728962612707917
Ni 7.72620542605126 2.5919752098912854 0.6476555572214111 1.9998711446406785 0.08403470705441657 0.5226751907824353
P 5.252264870559194 7.955306513003706 2.5419648177196645 -0.29588717978647106 0.2690590038500334 -0.4637521911939819
Ni 3.0408987435662373 3.010475154286388 2.2146459969308117 0.2971393070260173 -0.25110190515098046 -0.7506582505277654
P 5.75273845921683 2.5678452002893155 5.496949267427704 -0.6523495500528378 -1.0236173607631533 1.7292761637620926
Ni 0.9978050083131014 2.8287468858784455 5.224627645850388 -1.1195961275533233 -0.5332161995230752 -1.6142527216356457
P 5.7794191707146805 2.363363931636236 13.264244098186479 -1.3426182437489522 0.08271855934615431 -0.829792692067087
P 1.01676892240856 3.3663257937823126 3.025996544989762 -0.39840143370231385 -0.8705477624972621 -0.12900227290404234
P 5.870107713121472 7.590916567160704 12.754714593631114 0.48273567427502023 1.0714846167580774 0.7318678572941396
Ni 0.4403333981234272 0.7853666587456993 8.569367662755136 0.08301192221685703 0.2284476580865743 -0.044535106297897496
Ni 7.138009872191822 1.3682482503220517 7.375051405046228 -0.5011691983898594 -0.8878219761966774 -0.9098252199406459
Ni 5.852003274664843 3.6470878357998737 1.4750644372161654 -1.161740365021541 0.9198139557222417 -0.4222445588684986
Ni 6.053693557910112 7.9417027695590106 8.702193615648401 -0.23986207057110304 1.2592353113459216 -0.027280690092823984
Ni 8.06332319329012 1.7787818721292965 4.824051003110613 -0.9974746409295142 0.349434773995624 -0.5168233599873486
Ni 2.7643509046810006 2.809283921412053 11.998970271069709 -0.4026501816763388 -1.3449245232846256 -1.4924780768282941
Ni 8.289790403284865 5.030566364108922 10.543653441864837 -1.048882563087845 1.1035935814774802 0.17306943842658581
Ni 5.114268201322649 2.714168617381614 10.619643102512942 -1.0031740053071367 -0.30473768819856556 1.7097170106832427
Ni 5.6862631014738305 6.511498339852966 10.961692226750506 1.3931954424758717 -0.4062558967497262 -0.96353479364896
Ni 4.745044860220425 4.998654865389809 5.161176163688302 1.6403332207727814 -1.1666632562444552 0.7472661941270808
Ni 4.12886551889459 4.456011520388324 8.573073573842992 3.0468950572532303 -0.5537217756755948 -0.8320416360022638
Ni 7.233892235125733 6.031836999997947 8.400114729453167 0.972086539873713 -0.8599013385270095 0.24547041789681592
Ni 4.280244131410971 8.64029011380356 0.6275308889298561 1.425549690436861 -1.2061608001184454 0.9404966808825739
Ni 4.44150209293712 8.947686658951294 10.09305808944726 -0.278585712393546 0.9978531073148557 0.4431072612501208
Ni 1.0205118001905584 3.516438297024289 0.8570275195096352 -0.37651826047597736 0.3969582734978841 -0.9179164815892127
Ni 7.739494952595738 6.360840577872376 12.712837798338349 -0.3389523864070614 0.1843133867715213 0.018681378459587183
Ni 4.792750379012217 0.6124124351926432 12.293000583782616 0.048808279751954654 0.7188596179599297 -1.1358930649411338
Ni 1.7850384851130319 5.528212000664604 2.432064684366655 0.5367830909387271 -1.2604583851197455 0.5976341607878288
Ni 8.349611756082089 8.270567722330403 8.086362685414866 -0.30648500990697536 -0.6375209696804376 -0.28025795788964636
Ni 5.377119880027832 6.065448966647646 0.7585020379444865 0.32867131619602746 0.20038046753671296 0.1695704241343918
Ni 2.1120735865243363 8.643654082970592 5.371115564731624 2.0438290382788673 -0.2897892944188493 -0.8531167115050082
Ni 3.9505289446742844 6.754600562212147 9.34740382605224 -0.6059107989743242 0.2751779722635777 -0.12484557042319146
Ni 1.435000858271125 4.792953695830004 11.986714887793886 -1.1257986568196097 -0.17674971549165042 -1.0745002636559495
Ni 4.054137346684122 4.769923445378795 11.22679055629224 -0.6025850770352008 0.6385278136783972 -0.9878949676608793
Ni 1.9308351268137904 1.43523190010952 6.486438617893294 0.41983106433099954 -1.470551709068848 2.200696155913978
P 6.106297163675876 4.514612972278822 9.768160587124784 0.019832204234578748 0.4418597619962648 -0.2326151592007026
Ni 4.4013377797505395 7.502926593426365 6.781849636632449 -1.0712827851599163 -1.0730141660287262 1.7713898051026913
P 2.5673184248977745 0.3453151316651141 11.89438594833449 -0.15881267139725552 0.7609177234722444 -0.5869705104263955
Ni 6.217760988191143 4.154474196262288 7.252937475948308 -0.1933199611455058 -1.3075887629486447 0.4935548763777114
P 8.608184539940197 4.137072124994379 12.611648866460182 0.5252123553819922 -0.0421717482720435 0.8189197539083253
P 2.12275696113172 7.433900533787487 3.490159598325246 -0.8659125777180959 0.4275803692591152 -0.008576171704785229
P 1.1442578088349016 2.748695509711358 8.323516042519055 0.806670761337643 0.9866780645346427 -0.17292005733291507
Ni 0.9589530127686041 1.164598732287194 1.9470579605385312 -0.33818928298879175 2.5664944588692897 -3.2053621723856085
Ni 7.970416649234737 7.630720455079389 10.55122884166213 -1.2489305869858038 -1.5317642760224264 -3.4317776305335026
Ni 1.6896551725500548 8.359602005174287 10.049585257134861 3.3505837353619907 0.1849510203555202 -2.382385731909407
Ni 3.7515741967956124 7.248484837638759 12.347172501547405 -0.869574085730083 -0.20904739918309156 -1.2179148553305799
Ni 2.7960036365411107 4.030959229456339 4.2910679794560975 0.16347588120087975 -0.29671430367345675 -0.21504732552026834
Ni 0.679814732791283 6.462554436807376 9.091286554852593 -0.6279274124547315 -0.6026557823721364 0.20134026034682098
Ni 2.8748628368220803 6.094994596941595 5.324585586813585 -1.472037292475439 2.1456611785260207 -0.14801480945080314
Ni 4.681961196665063 1.8900516215003114 8.566702364107412 -0.01310619836465485 -0.1749705121040406 -1.2141332768009605
Ni 2.1596127551924846 4.481130389058625 9.261471973014325 -2.9024540811966144 -0.27203916952427987 1.612176041612275
Ni 6.543465288613293 0.46750853915544294 0.4191339231996588 -0.5822900742315907 -0.5018837079583809 1.0775681039479958
Ni 3.2151597397572553 4.467619062349287 13.338001894675687 1.1410609822953188 0.9163565933012606 3.0610965455645927
Ni 5.057792334345384 7.789316814627228 4.640001226310477 -0.7350755655981599 -1.2241433527387948 -1.0872691332858435
Ni 4.627980581542464 0.52639093792143 6.311762670560518 -0.2866260661995193 1.9289765745126457 -0.4671087663710407
Ni 8.009231678085092 3.798401756601504 2.926579241928409 0.9621289144403689 -2.4805422230771863 1.6548332141611692
Ni 2.9701352493026274 0.09244630871330038 2.3680457634494716 -0.5460305776789242 -1.0319896439872485 1.5289237212498379
Ni 0.16582796908960187 3.12170793696326 10.3384088109777 0.9341882221660428 -1.5034800843657525 -0.08189966298928476
Ni 6.414063375765041 4.222446705118086 12.234986902328993 -0.2765334578502076 0.08952992584103292 0.07324712952060933
Ni 7.756675223698788 8.175932985323827 4.206150862172413 -0.5600037520295645 0.3992416702154221 0.20216172780685182
Ni 0.3299665602568597 0.37222411249929876 11.055347346362286 -1.3063242944139244 3.1136064425378507 -0.03263526953651799
Ni 9.069926274809301 0.10570256523304987 5.93267938796295 0.0049038650595205876 -0.37671469275749964 1.2348257721533056
Ni 6.558723291620897 8.47241511402578 6.29889918516604 1.4004788635111622 1.5400758812119155 0.8056400060802835
Ni 8.695804846733104 3.0934284159437166 7.088459715362285 -0.3770743900897635 0.48334039773855464 -0.28223385066909457
Ni 3.2675600287052333 0.05400556764114618 8.01809629134063 -0.4246829931066622 0.052883221152276665 1.14555835594504
Ni 7.833796989355027 5.007286588472245 1.251883566330751 -0.09077125444730173 2.111732129878744 -2.178262766611126
Ni 6.3924193763442005 6.330389263571921 6.050735298211302 1.0385786100586758 -1.1152635616162405 -0.09601656200664108
P 2.7440377062493155 6.100188417468714 7.673612910293738 0.331133661693591 0.6406633719641611 -0.4837918834536765
Ni 4.318846601770001 5.1883956647532905 2.9410119634892657 -0.42495887247586817 1.0997901485709896 -1.8801610956718393
P 8.328245006867323 5.265314113591741 6.354897257621506 0.7449385744351686 0.3569657922653465 1.1109171117220866
Ni 3.4135045371825647 1.6602204423385365 4.321934244898311 -0.7140789087418348 -0.9266839433691977 0.5240383896785491
P 7.192498779358891 0.33775174604341646 10.095911918235114 -0.1204286723024184 0.8647437542209752 -0.8639999340764153
P 8.606077438374035 8.79851680640997 0.7965222828707619 1.6920753863420792 1.129434196689668 0.6465283153853704
P 2.3124977604952 6.405986153094753 10.837265106766571 -0.03169373155885509 -0.6974374435304118 -0.3076216946145799
Ni 7.115487913785082 4.140315952405444 5.030892595184735 0.3684920477373912 -0.23623193001768347 -0.29374853617691343
