# total energy = -340856.9666706361 ev
CRYSTAL
PRIMVEC
9.42084632467035 0.00000000000000 0.00000000000000

0.00000000000000 9.42084632467035 0.00000000000000

0.00000000000000 0.00000000000000 13.78836086989865

PRIMCOORD
 96 1
Ni 3.2080336043238535 9.266852909558992 11.724228789459303 2.426418444649589 -1.365789282548777 -0.006150850092744246
Ni 5.648626246969623 7.1424803857377865 4.516295191555711 0.5398786991449154 0.07017517546350495 0.19974180551144954
Ni 8.63834116471657 3.9463453099867576 9.927137399820818 0.922817518435256 -0.14942068865939426 0.16978613968962372
Ni 9.19565957588929 6.332212257874382 13.644837833865132 1.2593530678707086 2.692672632060975 -0.8999313578657018
Ni 3.709166089599246 5.063554023306371 7.24956149038557 1.1246789413928695 -0.5834948931729692 -1.6407957622314968
Ni 6.677571053560185 3.3699402646980103 1.7513013673675317 0.5250280072853281 0.635590328316628 -0.9723701325524027
Ni 3.8593720591678227 7.553540161840753 6.291532102505963 -1.9387128279638026 -0.44885161993306566 -1.0498809224453727
Ni 1.661761878082059 3.82703029464644 13.033309990298314 0.5085806603625821 -0.33498697400141014 1.230619447381442
Ni 0.9417869071888664 1.3613028347146097 3.288496108431245 -1.3446578998868002 0.6025364831854526 0.5490462245767963
Ni 6.607875634413902 3.1802703709872633 6.56403195893879 1.36184880984379 -0.021203887771124773 -1.0652928861250686
Ni 9.150891715415765 2.5862860269519676 7.767355684001342 -1.1432366497903987 -0.28472730651490963 -1.7827790207762395
Ni 1.05001923922509 7.385792576909866 5.368567103658859 0.9070301736940121 1.3409879072343809 -0.4502456720671149
Ni 4.591239906126204 0.31104053766119144 6.9756833641742775 -0.21342778763897435 0.31675245327125445 -0.10393453130213713
Ni 5.626609729729171 2.9036649098418184 13.295164290684196 0.5251290516395667 0.6326559282786524 0.8334457154386421
Ni 3.4571867200526634 5.047811789541376 10.432741960720534 -0.21876565491212 -1.1207204709657537 1.0210840528183383
Ni 1.8170080002923308 8.427276529605281 7.612774673522852 -0.5311549461186723 -0.7543189872088042 -0.22650596097917122
Ni 4.834297734454683 2.5754332122917196 7.739144960476938 -1.024602607494558 -1.2723569363295442 2.062461051557758
Ni 1.8133150286371076 1.4547764693144227 11.613591315424156 -4.0115181988703625 0.12106964832052695 1.3789247914894704
Ni 1.4893698160439646 3.450139927200349 10.54387685542761 0.2518246422496179 0.826731279532944 -0.9545541874169043
Ni 2.185476131361458 2.4867642091821205 1.4997186154400433 0.7335311039291754 0.11158973385454976 -0.9157449278591906
Ni 0.14212099948053386 4.769877989101577 7.087217702754265 -0.04517196855094801 0.34481578716637384 -1.0798728408217724
Ni 9.203356407119692 8.819409825975228 3.1575067806543133 0.03281473253717574 -1.5971921666089333 0.30006085154818646
Ni 7.278894236675631 9.29439946343622 4.101830721686934 -1.3037367361924064 0.35989530720731566 0.41300170011399195
Ni 6.592029771342255 3.4915068622464873 8.925137155044299 -0.8976860134749509 -1.2009710283873898 1.212702715002021
P 6.3077745831967045 6.263911123944867 10.785131533820351 0.8463076590029748 1.8806182378139162 -0.38353094434838464
P 4.451773701065165 8.132884511099984 8.346480527547392 0.4424881396088831 -0.333401117571529 -0.10585823068741124
P 8.236476134367425 4.8481275364696526 0.6602034709857172 -0.07087348708211019 -3.909157182702932 -0.3254065294018267
P 5.65289389023446 1.7646186753568784 9.934416887570794 -0.43478665719956733 -0.7088685681854889 -0.24577329384921542
P 7.754741171128014 5.0022337363067555 8.232589093283382 0.47596364565850935 1.9554368255867032 -1.4575498974925414
P 3.0508938920556736 8.81440735671777 4.621334798862457 0.47653931565632124 -2.4627383621265455 -0.08190737629876861
P 5.2138636221815995 4.6693481408033914 5.363644711592904 -0.13972197331439162 -0.19516035678835422 -0.4728698372245339
P 1.9261485018886655 4.427119346928126 2.85002638071891 -0.33857263447013947 0.7101160674393447 -0.5844837394487998
Ni 4.284148587133047 4.257412226016915 1.025874552859855 -0.3521945961289483 1.0435187276727704 -2.0587319235326285
Ni 3.5020958932170765 3.1255729387672964 6.027113447822756 -1.5017206784724846 -0.1603573901765561 -1.5599831616588038
Ni 0.0906803537432472 0.17039766892735286 5.44773989394074 0.5469127231735613 -0.18762265365041236 0.6356942008843439
Ni 9.014317710094915 4.583288712052203 4.373433713574921 0.24090568134426898 -0.2630919876333211 0.7888640721735253
Ni 8.516586150246908 7.087443803059687 6.739060915788867 2.091783197560643 0.30453637082103685 1.6520924181912386
Ni 9.52325065590736 3.240648573380954 2.1727561050122675 -1.5766817053604072 1.346571057749113 -0.28901462103635384
Ni 0.34141993994843356 6.452346886821853 3.3133567790969827 3.08866854164559 0.6717294972413463 -1.4908353990185486
Ni 6.488758456840829 8.949012405212239 11.176651533111842 -1.600388562059044 0.8477531332002496 -1.8465102403866136
Ni 4.994536905076354 1.6043700838891484 4.998253428846725 1.814939664669184 0.030856066148908148 -1.0542060321832876
Ni 7.917175398881489 5.4833846070904935 2.5239454623241366 -2.486902360967259 0.04815444821803965 0.8157261866716918
Ni 5.3289204151031395 8.965583673430448 2.583635000870897 -0.5937659360816742 0.08924427627981404 0.5461298222609497
Ni 3.719689174647421 2.5663515166906086 11.964352966324935 1.0796463266332632 0.6453962586634562 1.2084490819319897
Ni 5.8267085000275 6.810160040997976 7.078323481989734 -0.29474586709317624 -0.3472454796537891 0.7243322110387267
Ni 6.355792635560668 5.395808422123768 13.669946272782228 -0.3363177769976918 -0.30974722559801493 0.3072925934099353
Ni 1.993055350601412 1.2883666445239474 7.955497516481279 -0.4033214967117505 1.1192366873313757 -0.007083646319658769
Ni 3.8889817783320244 3.454247416082179 3.0345977125423946 -0.49551945630324984 -2.1626559133118044 2.2308256283095065
Ni 7.407498206230362 2.519237865548333 11.450240439349116 -1.518974580456926 0.5151971372378353 0.01818207022566546
Ni 4.574329487449862 7.5939932748191445 10.433707597441607 0.7247932098355453 -0.8243612366388706 0.044990191557445096
Ni 1.731005096617498 5.1386475872446 5.078390913765074 1.0516290154847308 -1.3882563533030414 -1.0026939803469248
Ni 1.5531395230189828 6.044264098073608 11.79694924227521 -0.6923104067164916 -0.5297500953513458 -0.6685780960965583
Ni 0.7684471080372117 9.191128148934794 9.837512180836207 1.352172720206607 -0.43263027297819684 -0.060808389536624305
Ni 5.641504087348835 4.5450023936674375 11.652446652910898 -1.3689275710674425 -1.5578874554720394 -1.213812146016116
Ni 8.83706449149025 7.344011124637121 10.85392160966034 -1.5313564990610466 0.528085048944097 0.00574898666863526
Ni 5.227778211811102 5.522179651162458 8.93500925962978 1.3860048382647034 0.15275232413578854 1.224345441447272
P 1.2666421735113322 2.131296845674749 6.038556949530919 1.069278610245694 0.06297120151589801 0.27900531642946785
P 1.8449031254737505 6.124784069341961 6.9086578128011835 -0.9143801863011801 0.955950553543799 0.2834708083999892
P 2.9150170293432063 3.440681397756869 8.527535999621566 0.1416991516454205 0.7149152886002009 -0.07082823566647156
P 9.358442374946957 3.167458020346692 12.110110412384337 -0.6437965182765042 1.0122487139148955 -1.6761977958798744
P 3.6278924506461534 4.6338786553903395 12.645305850756134 0.2737034446005802 0.45031354919057287 0.37363579672185976
P 2.453065842828207 7.653872172371695 10.478353929000967 -2.0393226657680814 -0.16011056427307263 0.9890015704614967
P 9.371075729512402 1.719125409736792 9.573327163135268 0.3076643749270572 0.00862348000295289 1.7999287930826486
P 8.021143855991298 6.830490226793824 4.389676194265663 -0.6698425646312786 1.743680255002565 0.4071329000380408
Ni 5.85112733301306 7.860122755146711 12.990193604138977 -0.29554625150728453 -0.5607573423661375 1.7756786622860323
Ni 3.5462702403888686 6.848512305305156 12.795240499958204 0.20506553171720812 -0.47444746612429906 -0.6559760910618315
Ni 0.519716988296462 6.076181924522324 9.303834440764552 -0.6366118276026068 -0.5740753996312823 -0.6039444192765727
Ni 3.309458432997668 6.965311954747655 3.2759211631113674 -0.4178975947537126 0.37447191946990993 0.542391181154124
Ni 8.82969738987192 1.9136187766298718 13.690986790370944 -0.15204372810453815 -0.16958276542956602 0.48584413799701487
Ni 2.745611375505892 1.384223753176749 4.501416849374348 0.5401895455171148 1.787565386421289 1.6294237729491292
Ni 6.676939856874215 0.9643178026241529 0.689626657397946 2.9869094207282174 -0.04438006877727196 3.2708237444235277
Ni 3.29224654724743 1.9090779288293163 9.905655044551926 1.618826199938941 -1.0149833392372392 -1.2193011941551453
Ni 7.926191148560185 5.24772214291852 11.85710793895572 1.3237936548432814 -0.5526583674080869 -0.09665753802474966
Ni 3.579299726672576 7.84917573202587 1.0836412967259237 1.1953061167921284 -0.14200537003192965 -0.2642916643683771
Ni 5.307252469166879 5.211725090126151 3.026724711490685 0.6824317141501989 0.9115499159412367 0.3887024612469951
Ni 7.235605449033407 8.075068778834408 1.5375263548449989 0.9124171490375383 -0.530866468343976 -0.6142167477368583
Ni 7.242021045199753 5.503733634578459 5.876020034555398 -0.39251617856613047 -2.4641910354126724 -0.6611532643873969
Ni 4.315764946507868 0.77499365396378 0.5948369306036569 -1.790924018480877 0.3560041996830256 0.11654630652887671
Ni 7.012246609814806 3.4325794701459196 4.0577769613446995 -1.6621174065274082 0.21146937836102292 0.2420289963154348
Ni 8.861238382478268 2.397633584615619 4.950875994014791 1.583145715818196 1.4856343144335833 -1.4196919461045032
Ni 0.8474267709748787 8.282986851361908 12.457852682123127 1.026496224972845 0.40324436361691196 0.18472399194637865
Ni 1.9031145332738153 5.8173347581985535 0.7500058018762428 0.7697522910447389 -0.6186747835082119 0.8515871622343592
Ni 6.858573768896428 0.5445107709551787 8.270106670629712 0.24617052928763408 0.6898634878378959 0.3112294665704962
Ni 1.3330308756908205 7.989979697227322 1.6283913571710071 -0.19147622306854764 0.7073199927514463 -1.0641829408903414
Ni 2.7489275133187454 6.407616709732566 8.750479379528954 0.9731972564393885 1.8672783261719004 0.750993522379997
Ni 8.407926111799595 0.4451104820994959 11.460182258195436 2.67644177202441 0.4645055244202388 0.3156934158791208
Ni 2.915450388261932 0.38625468842897875 2.4501642222419604 0.15716202316770997 -1.0030711611806855 0.06639565381641468
Ni 7.006217268336891 8.582739331274915 6.326789618882681 -0.6754025752175594 1.863746658869558 -0.44808414563942184
P -0.042679258902190306 0.7101452601149781 1.5554372673728323 -0.01418451903049815 -0.0699149798235828 -0.6897449599821605
P 8.568560957955754 8.219122935926299 8.74842563508804 -0.21896131586269385 -0.2064621549544186 -0.2526977888831906
P 8.11188544523393 8.17016279895641 12.852640772912569 -0.6211849515245754 -0.16371679356709226 0.45967699268334383
P 5.41345366679273 1.7886229911158305 2.4037665554001864 -0.762852478601112 -0.6760584636340035 1.0976324787980385
P 7.676670619835065 1.2846830937147833 6.046637209195931 -2.9220793116267094 -2.146665451420819 1.7372152161035115
P 5.563706740591603 6.632030683709802 1.3449322305174627 -1.5685325938907115 1.602608452528498 1.2091725903615758
P 5.670642764210075 0.888898277412274 12.833489134958732 -0.8474168329067534 -1.236752042641741 -5.0205638324669275
P 2.1817737388601754 0.18504331621105263 -0.2226927854022129 0.41950376289856783 0.09770140590823174 1.6737475345671693
