# total energy = -340890.5326308788 ev
CRYSTAL
PRIMVEC
9.13185049963815 0.00000000000000 0.00000000000000
0.00000000000000 9.13185049963815 0.00000000000000
0.00000000000000 0.00000000000000 13.36538626781153
PRIMCOORD
 96 1
Ni 6.396486669528548 1.7813774169293881 11.520120351847888 0.9897662165416632 0.974189959369961 -0.07680656473709353
Ni 4.300352639399372 0.30607039727557844 6.068767394949013 1.6222696784028514 0.9489409549951849 -0.5388636276168398
Ni 2.6623178752899053 1.7178836623866784 4.582255595081784 1.103139781769513 -0.18988933819740197 0.6951424768486479
Ni 3.6249062064199276 4.263003372021307 5.1120197952163045 -1.0677248926053289 1.456073570057331 0.2201982735935885
Ni 5.505190693024576 4.892133060711865 2.364630516511408 -0.16283104852802924 -0.7474194318754934 1.4623581175144622
Ni 7.380927518222313 6.367977033158298 2.781524134807391 0.28081228773121963 0.31704195948721525 -0.5331362382147592
Ni 5.3161339980299385 4.483921092414984 11.518784362161481 0.4881481035398432 -0.019547068893992145 0.13901697682756706
Ni 5.4356699173401735 7.794015894533835 12.490982139272415 0.09739878706614839 0.983219673672397 0.35722675923621705
Ni 1.674224286510266 6.546048112344669 0.7243328799187427 0.413121770631624 -0.6260139974821024 -1.2333676995505403
Ni 2.9432592471447117 1.7396813888491331 0.42152163998478565 -0.44527932920077506 -0.6029902828934196 -0.5597121889310748
Ni 0.5334552939912959 9.381332362550937 4.837160235604478 0.7577190140292885 0.1784448438058862 -0.6395691104587179
Ni 8.427903277186244 2.2084192603689514 1.1897348865551365 1.1742492961218294 -0.028741848019382756 -0.26617628298559964
Ni 6.624572892340752 0.8236033972325483 4.90651298524493 0.43698469329215067 -0.011433438647922244 -0.7396333601721713
Ni 0.5368404708658799 7.913241330936772 2.322810295268234 -0.04956289852979206 -0.6838090541136997 1.4650161239625996
Ni 7.667156231351421 4.049427659200237 3.6571836441887555 0.38545438662334264 -0.04209538650815331 0.08318264346676642
Ni 7.995610619873237 3.9624102585044967 12.589912951758235 -1.192395885123869 -0.9055849566070533 -0.5492357148797832
Ni 8.283985317802799 8.886842673425706 6.979805518432113 -0.5224083102742938 0.7151927106313037 -0.2572445277136086
Ni 6.54661428705798 0.766880909624028 0.5382495153540059 0.3115184585658248 -0.8733847177254248 -0.8280546263300578
Ni 1.8912883661133453 6.509739875891079 9.368975142840425 0.46245224143563585 0.0018617357990871166 -0.9587767101386844
Ni 0.1949878317090769 4.7173403157525655 1.3066161770079632 -1.2128191859752273 0.11988539820443869 1.3446229328838069
Ni 6.528286663677106 1.957293379465094 7.194734571454999 0.13061178348300734 -0.4550191821963583 0.5442796564260884
Ni 3.4152571891911725 4.565130636374184 0.6646352355102778 0.25880930109756717 -0.17156611440818195 -0.5949026207892787
Ni 6.063603333652608 5.6841201661311285 4.898119901712613 0.4299077318407112 -0.19654309606849377 -0.4797215700390448
Ni 5.236668637461743 2.54202401241185 9.524147194428451 0.25179173212915346 0.6923170915847109 -0.44646872152318595
P 0.1678315355406445 5.673938153141754 12.520947392566885 0.5954325251508198 0.34414524346191055 1.3559710109067744
P 4.205847121527589 5.985288586211463 12.588843612098096 -0.3065706276422462 0.6710586964265669 0.7732687888384295
P 2.4058042027593833 8.459061150118753 1.334313078709105 0.7375134856156911 0.9670857442250118 0.07385750941109862
P 6.768983971635792 7.954051569546203 5.60489497322358 -1.7520977896422987 -0.8968799726338875 0.5656406386003677
P 4.733960283143293 1.1236924326175075 12.707715645897723 -0.3732020516185508 -1.516759317973162 -0.04909418642348964
P 3.9579173881988714 6.138776724619901 8.264232212603412 0.25411523805600755 0.4132827216895205 0.1631040996837578
P 4.693679691846315 1.2020071800586523 3.75302697811699 -0.25949270031783694 0.23670809832315362 0.7806799937008362
P 0.2295966308377143 5.973408049082157 3.4537625488064165 0.39975383396515024 -1.9779175231877226 -1.35183179192742
Ni 1.4499186496869405 1.0507837405034568 2.537926551220521 -0.325519143720291 0.9442057543030449 -0.3851705368343366
Ni 1.7878427668813857 6.532395996273715 4.770828302015045 2.1863131477194284 0.07641318595341678 0.22440382703450384
Ni 6.631074769693609 5.765804566301493 9.219376259438421 -1.2769406990454848 -0.7575153826589147 -0.12840963362536595
Ni 8.852762608424499 2.3850566390716175 10.357398391412815 -0.8719379579765693 -0.05519875665933074 0.6159224175740553
Ni 2.3841982451514365 5.145605827120896 7.1885459165645065 -0.8317367031673353 -0.14546530355607207 -0.3173070402231439
Ni 0.6364680435230796 9.259696117691323 8.859406029455682 0.7096419560164037 -0.0839089801098297 0.9010878400676482
Ni 1.7272072814558725 1.1855515859717887 11.718328987127686 -0.5482805500553654 -0.2680801848765319 -0.8621759934937989
Ni 4.278838000293572 6.704650086873332 1.7141779575695588 -1.1933600488093512 1.322566981525032 -1.011158051953878
Ni 5.896161728116131 7.911250587589971 7.757323207186206 -0.4705537874968477 0.43009490815085283 0.30171484221184164
Ni 5.14884763394711 2.6562817222979977 5.482641415289454 0.048225924885923394 0.15935645971586748 -0.9196128954550291
Ni 0.9075753258816909 7.227914236025039 6.916372947285841 0.38197954070086476 0.14777081176079712 0.9253765374116838
Ni 5.206332631048557 4.815115036001205 7.125287763757336 0.3765213457997709 -0.558764737416141 0.20041234921591292
Ni 8.421237026529525 7.409090144284403 9.265045555547088 -0.24196163341260912 0.17674071663058594 0.15392449006701878
Ni 4.40543283981976 0.2935469778911584 10.558468035364871 0.5590879250835146 -0.8296816204105195 0.12792498067946356
Ni 8.656309114755965 7.325643297022605 4.911338254898371 -0.9606153060093198 0.06790334871019273 -0.2160135460882796
Ni 7.652106942197619 6.311706572135405 6.954704801747006 -0.8623924803799793 -0.6193378710135076 -0.5640825500846285
Ni 2.298788050093481 5.19259832832567 2.684143910488025 -0.83199407059378 -0.0908429882255016 0.6952388932171962
Ni 2.260945662803824 5.396749971725184 11.652357761621731 0.2184391248106367 -0.39706548849970974 0.12869656873816546
Ni 0.915431456621385 3.204530613637085 3.9488165862749156 0.11653242257180575 0.14582114423359402 -1.4001572185056854
Ni 3.9044686688923163 3.36448410199752 2.9592034576195525 -0.33928303027360274 -1.799344381334088 -0.42548826261677686
Ni 0.9976181085535565 3.4176679976478495 8.67071369528461 0.7739766135387315 0.15432172550543746 -1.3094895795157835
Ni 3.543157883298061 2.8526256337639557 7.463632859246678 -0.005847202809396381 0.18572749351022852 -0.38673119645323717
Ni 4.269742677479745 6.907386293489569 5.822136210720823 -0.794585805148651 0.4124710244215025 1.1152473636663245
Ni 0.7651924305193326 7.397163947904024 11.334555676375347 -1.4296714259147183 0.9452398519945141 0.2547677840383419
P 0.024161962483036956 5.609549477278005 8.276408621679673 1.6279502737273963 -0.044841324684406644 -0.824428085321064
P 8.572076928375703 1.7557991044780534 8.024724784727699 0.26119502772092434 -0.06439302156408909 0.5311606025456272
P 1.8012757185471884 3.2849730821782512 10.835278158182554 -0.19681254767979653 0.05110633175751199 -1.2182521840653406
P 3.9495708771026488 6.1334437240945245 3.8291299914361376 -0.15274152550251113 -0.7630427402350473 -0.13367268179651817
P 6.9088747850745635 3.8048036556492364 10.296091714996521 1.1393673966429798 -0.17951365139003278 0.09812743770205681
P 6.330116382168211 7.61821864605092 10.116420735652536 -0.134422158368033 2.6684402418761723 0.5547196208124898
P 2.4524040344049243 8.48470338552159 5.779981763759792 -1.6509313080036019 -0.5618613740635937 -0.21065845242395334
P 6.98727171916764 3.798447887899815 1.3022548053454295 0.6306304132081912 0.8547807294709924 -0.05974189594532291
Ni 5.195000004932131 2.9866264038142543 0.3579548306403583 0.3169404009123445 0.4874037691746509 0.15876639154035238
Ni 1.7939976339260837 1.0749374843213007 6.952927743695229 -0.6520795842209028 1.1186666737605186 -0.12669830736121404
Ni 7.056354166041738 0.6372488167164353 9.396788019039294 -0.27441306907309515 -0.7173858616278806 -0.4746400417510793
Ni 2.6885810765073415 1.5623773850807952 9.369122165628882 -0.1712346992106922 -0.08601188538544541 -0.055531971629033394
Ni 6.408741612516655 2.0998415613163384 2.6210994429758783 -0.806654820498043 -0.1159878629222454 0.33951031579306046
Ni 4.305950463580974 6.664205122272488 10.424480049904874 -0.09570854384791903 0.5925009533263215 -0.400629037481252
Ni 8.26342952296954 7.266825049789814 0.412460105016753 -0.49642217062317723 -0.029258639754801224 -0.07110437214599367
Ni 7.6324369368351865 3.9909290267249604 8.109247363944787 0.6809124492921951 -1.026236543553555 -0.2821585173464689
Ni 2.8107287049789775 7.862404320791616 12.36193905070367 1.217494737074026 0.7765420602730626 0.37964163659630745
Ni 9.21997256925744 5.076231161039929 10.34053186406629 -0.6405499863147485 -1.1516287305088362 0.5069431247591591
Ni 8.617443960242262 2.1958081752224703 5.76896875240088 -0.006263464411208568 1.1607859715280717 0.3839731740921258
Ni 3.7635368245290715 2.720113355298651 11.457210122533898 0.042136009938101626 -0.5623516834364508 0.9799726274900091
Ni 1.30116080968971 3.4581129622486926 13.023739759907311 -0.18237863164265364 -0.368561724633062 -0.9120625939115969
Ni 3.1830068426810705 8.275757520759365 7.8738693587361555 0.13523205586383805 -0.3284936529675827 1.488116971646121
Ni 5.4627549850769315 7.759497500722324 3.6910920304059265 0.3386348551666426 1.078498586182065 0.059834455659129204
Ni 2.9482726329125737 8.433811584275148 3.6539628406180356 0.7169189492937911 0.16976942751907534 -0.5039953549847449
Ni 3.5505455501217416 4.305466475519595 9.638782049728466 -0.6372983121466702 0.47477245356388553 -0.6997702054286464
Ni 7.39682606944608 6.385957646231015 11.531441106559035 0.07834845530291668 -1.451320628753378 0.530930231702376
Ni 0.6326454510232121 0.06364443007125214 0.22538228196363685 -0.26342211727923015 0.13602601252004315 -0.26983393434284497
Ni 4.374905064552066 0.43627597037665333 1.7350141002044073 0.30975005381149234 -1.2408457530951404 0.2605273122299384
Ni 6.256595856089776 5.750663958645544 0.341692831778046 0.10576747074581783 -0.022876647487857376 -0.7144818006072082
Ni 7.674288206369091 8.7122325654707 11.73329882918462 0.16823987824842637 0.37081118278887104 -0.3853302023406525
Ni 0.23638616147233316 4.905228133919724 5.555042376531567 -0.8404188043223656 -0.48220628413411143 0.8393535962826448
Ni 7.574102677663775 8.898166167691915 2.6644830369758075 0.39391254469302484 0.6452234805310179 0.6759810734288487
P 8.458147965097284 1.6740142539553282 3.437430234697451 0.18027726902893468 -0.09902423848471333 0.7366097428544992
P 1.9619506230745838 3.0808397024791665 1.7271954100505933 -0.5105748079744755 1.0771269026455192 1.367203389287484
P 4.721422252798531 1.0348577937290449 8.145267033931594 -0.2878095449846592 -0.949116818451417 -0.11133802285505986
P 8.478639836979038 1.4717985628013275 12.358277178767581 0.618259036127032 0.2486930385991717 0.7992140479492816
P 6.189723316967633 7.837949225916688 1.4456138954957374 -0.054311211848054854 -0.4175317267738616 -0.9118576769896426
P 1.7984174494299918 3.2504455565165244 6.044803593615635 0.062170817101789705 -0.2183661054808562 0.12071226498110824
P 7.008841149374727 4.042186101979992 5.931264560341384 0.26260039270888325 -0.6169660283472213 -0.2873210353840149
P 2.3496250602386364 8.505295707755707 10.216727717965709 0.14508580872946625 0.94939424048252 0.20231727954810963
