# total energy = -340871.8372761287 ev
CRYSTAL
PRIMVEC
9.20998038776290 0.00000000000000 0.00000000000000
0.00000000000000 9.20998038776290 0.00000000000000
0.00000000000000 0.00000000000000 13.47973725657408
PRIMCOORD
 96 1
Ni 3.5993433019012446 3.0624566937601037 8.77359696759256 -0.6392168693256217 -0.6926073691316201 -0.5450389031896161
Ni 5.422993137301304 1.0300350184907034 5.217885027708124 -0.7038513174765556 2.99118953616081 0.679066654332708
Ni 1.043702629676785 1.3172206330489267 5.845770849005654 0.5577126420025428 0.8262651385298028 -1.5232922339956734
Ni 6.802362719328451 4.01202411189178 2.7623485554450133 0.9452264822580753 0.6645926290862489 1.4685508765887354
Ni 3.1985986267470725 8.122235826785458 0.9923569879231422 1.2255183787094508 1.1042718384914272 2.0609142758959282
Ni 6.169489693544895 5.93394444011899 1.568246021839768 -1.9508481777747564 -0.8171963434593152 -0.2799599670332533
Ni 6.102800224138953 0.9458650059370635 8.970616872237212 0.4916771997390242 -0.2603715033783645 0.2727786187934657
Ni 1.154323706466562 8.067850891439223 13.275250356252903 -0.2627214916677798 0.5746919501693586 -1.0563413333587355
Ni 5.862603930518324 8.216951267107335 1.4020952091172127 -0.8043485409623696 -0.0698959536601893 -0.4220650958678409
Ni 4.869418044342656 8.135691608418117 5.148140607742597 -0.9070116617512508 -1.7096211085353268 0.9790462590209977
Ni 8.322350284906204 2.718316559272817 6.677686291170023 -2.187327705026872 1.3116950718075346 3.6239670776189907
Ni 9.19308026924215 8.604424360240522 6.405355454295109 -0.5236128721053563 0.17595498750449698 0.20883631161355
Ni 3.130831589612847 2.8532888247256674 6.374743320831296 -0.06452054828088888 -0.7487677183732717 0.022874590605328347
Ni 2.144636078700142 4.22877179494653 3.7975116911246722 -0.17189650116440716 1.1628438824983651 0.0362713236272085
Ni 4.524172712185336 5.439810561846981 8.135412546006433 -0.5159561268910469 0.12093260852203044 1.41254685041929
Ni 1.913723445507795 6.804306025231594 11.187333021978883 -0.5799989642045689 -0.3389125343080615 -0.2772633940376967
Ni 2.536060253503698 8.601495586414933 6.212568456726687 0.3966955067548007 -0.63910142679368 -0.03903191709148117
Ni 4.1487554836361 0.7268931125713706 7.56597418249057 -0.3441179897684009 -0.5550888312264505 -0.32803548238424146
Ni 8.334203529917314 0.8075881994508134 2.661008376089343 0.350670446174938 -0.16258113730075224 -0.6546889968192918
Ni 5.773985497342799 5.98202053876545 6.359713553516897 0.06150515849333278 -0.21181622017748036 -1.4450157695812726
Ni 8.277718718998015 6.6159158723937885 7.053353110193075 -0.4864329206209493 -0.4264691384728075 1.0907426936567408
Ni 2.9745474290895166 6.947861992588371 4.546513362087006 -1.3269355429063727 -1.3448077952011035 -0.749954025371889
Ni 0.6309997157328496 8.663773475121324 4.054637771054099 -0.5083168651782343 -0.8568820920847113 1.9719111690926423
Ni 2.7420046293338705 3.408586184053451 1.5185729125601093 1.408971731473522 -0.9649956944652026 -0.22564926940583074
P 7.753983963130272 8.500563409199117 0.25859415083445464 -0.4927107832098611 0.26427160976371905 0.5216544628274048
P 1.4912432161762956 6.695867713840133 7.250912719699926 -1.1723456513412132 0.9658547000313881 0.09540489656457118
P 7.7885306002994055 8.256544973636288 9.122924163144537 -0.47071653832695715 -0.5804797604957294 0.06618405202624085
P 0.5343980713874487 1.690252476627007 1.1920348929642242 0.20179971648174277 0.08616923689891612 -1.4010095392036517
P 2.9425611665226286 1.4872092446806733 4.715778069244881 -0.047543554106918115 -1.231520876149789 0.07678393902927422
P 5.85349525972113 6.779171988218913 11.839401489294808 -0.20968760387025176 -0.43974245854294586 -0.2123127001979247
P 4.34478071037772 7.41082008658485 2.9890107825980228 1.018473868889001 0.804179362374357 -1.1481883373687194
P 4.391797661257065 7.764814900296602 7.406657175361056 -0.904722608606758 -1.0099082387071767 -0.6815469975524004
Ni 6.384026981259578 8.923780436977305 3.6581987618227654 1.4753257334187235 -0.5701922625267922 -1.194593664106136
Ni 7.695583476249583 5.089370800640504 5.125643388171005 1.7965303089240607 -2.0701501926718993 -0.08610315954767106
Ni 6.074175604485083 3.469243116177126 5.27335397776905 0.044305763895910795 -0.24352846367909667 -0.28017876791227875
Ni 2.5474529994856274 7.729973543748794 8.966383965160983 0.4437767765133196 -0.6094697199701762 -0.4849961881744228
Ni 4.162708604220273 5.236297620890883 2.6016841281561165 -0.5486322769678293 -0.0039260745272835604 0.7883984453910164
Ni 6.2415393716505 8.822268030984722 11.160980504534992 2.202810631153819 0.1757338726326264 -1.0630128318416403
Ni 0.5253557124504574 3.996919743734654 10.380867519161214 -0.2390711992386915 1.6252948383824202 -0.10564894289008257
Ni 5.316498131812986 3.471048272371515 1.035855726219547 -1.1244580836313152 0.7132638690397071 0.7398130802831452
Ni 3.8990084401502636 0.4249070592152813 2.961430574742335 -0.07267377351564258 0.2849484213867803 -0.2749640564805587
Ni 1.9553709777068933 2.1831522175008122 10.36866797888016 -0.6980244263821334 -1.3945671260124177 -0.4730457006807659
Ni 1.362745567073726 1.9303658804223838 3.2270629927387873 -0.18046418822876018 -0.027074230508972726 0.49214925427943623
Ni 3.7016109263016843 2.3485726787630865 11.827026959382664 2.2945769025245384 -0.16269889382553915 0.22932003338919862
Ni 5.619147303771094 3.8725389559529595 10.060346379880603 -0.3448584674788513 0.060835643230133934 -0.6444904590197351
Ni 1.2666578396448906 8.870703318873943 1.9756845108821104 -0.2232362890889639 0.7964966490181186 -0.9373681625559211
Ni 1.516920642043409 5.952180201674545 0.7865065538949231 0.7987203961423148 1.0583167119175516 0.11689237701438578
Ni 0.19750803361558253 6.74350173341858 9.571207074079087 -0.7082211644094771 -0.5399787150578893 -0.8896759986862806
Ni 0.6251983489632318 3.8866486462070546 5.626873556482688 1.5821617546383722 0.16653420841122932 -0.8759028561615883
Ni 7.439647325811558 5.160987609658679 11.62659751992596 -0.11477661622296363 -0.14363776342903004 0.006900583774575213
Ni 6.9087656250109335 5.974293365055799 9.266766560897464 0.671006760142709 -0.834943125919775 -0.6397665711815046
Ni 2.6080915116481362 5.0914430462718165 6.204049224686844 1.0912877675269335 0.6593270098119355 -0.21138324640511982
Ni 6.333261568282703 1.2695497735481451 1.0883784034917754 -0.09192953642146104 -0.19094374760384536 0.4144137499701702
Ni 6.160519172456456 6.247277189554091 3.827247955434984 -0.5650533986383302 1.2110674933914432 0.5150053329420033
Ni 5.379844378267077 2.6394146556130043 7.361823910878086 1.690216992977102 0.36922172681456417 0.22434366322052976
Ni 8.144459509933716 7.643243156592909 2.160585923074843 0.7674421548543235 -0.14431319222949984 1.6533635715941783
P 9.164612219258203 4.306329041441136 3.314667407052056 -0.2515251087313281 -0.5157368117913892 2.041049675761517
P 4.393041008635853 4.7659254925245955 4.85447116685351 -0.6899707028397213 1.1016986784476122 0.3204561273750869
P 0.4649225828549634 5.3962657736476585 12.030597923216439 -1.113838913354572 1.0693542006786358 0.9539391795407249
P 4.017927709445876 1.6616554869148885 0.9348922350697468 0.6336661147107215 -1.20319117596716 -0.01413746784264662
P 7.93602843934597 7.1381494014264 4.920764607094357 -0.9602630648762237 2.5856872297476565 -0.24939932063757692
P 7.231962263651083 1.0184396529359345 6.412041900198812 -0.4888710977487967 -1.5455317621201639 0.026404715245773883
P 1.3433769779063875 6.792784339521494 2.9582365534759383 -0.0480883708667946 0.12743672818913537 -0.6050332814653773
P 3.229194182245835 4.115396933962253 10.546331267332231 0.030062109492703062 0.7513120820616802 -0.0034180245426134685
Ni 9.230795139732047 4.779040504875661 7.9418169121427695 -1.1844128669183924 -1.9109708819638445 -0.11126191820148582
Ni 6.5836717303705585 2.7262371425747247 12.730183443357397 1.354615011099512 -0.0628218204222273 -1.039974461964938
Ni 6.493100781311308 8.153328721235736 7.013844135485492 0.7836231354895601 1.8848461598523343 0.5780415833678819
Ni 0.5971907980084643 9.012362030230495 10.525127129034578 -0.14480247316109257 1.2724872912598215 -1.1822490264978542
Ni 8.329266980324498 2.2888459546783557 4.585294748328484 0.3210153423126665 0.014096073081749916 -2.3562820928438195
Ni -0.01796130413416223 3.0757927456451757 12.719493418893997 -0.056882572119656874 0.06434571326592144 -0.3466759803035642
Ni 7.842740546014552 6.317309881911885 0.33889044555462694 2.3192960025377736 -0.8511891554649922 -2.4160291309954647
Ni 3.7002662691364767 0.4282134422447984 9.943274632690063 1.0059178866008613 0.8003661592758539 0.38216388879752894
Ni 2.2129649246499676 1.151726491941983 13.131300201727147 -0.7582018672029781 0.08077737645938346 1.0730560750102551
Ni 8.535865264776106 7.58094684792535 11.853744192057668 -0.8267171384655568 -1.2070989956619986 -0.5580746533276517
Ni 7.705659195008055 3.009922964511175 9.150396614227397 -0.6372918843887669 1.1606831274016203 0.06365048697110974
Ni 8.635038335700452 1.0065864079248246 8.459114812580625 -0.15861263957130747 -1.1834751855954713 -0.12655278292228528
Ni 4.187796591330035 2.9639191114960273 3.7329165713034436 0.7373309372912399 -1.1019617023010118 -0.896042821444573
Ni 0.6171838238593716 3.968175394333198 1.307825531855583 -2.1310136038161747 -0.5781745094013204 0.7388687140920049
Ni 2.0975730779178794 5.124534506508738 8.57109067751425 1.7218464469569248 -0.3740625998466332 1.9166224238226672
Ni 5.352343376244408 7.677412184558114 9.340999925399444 -0.18393080662112196 0.9098591585023749 -0.6377305145880824
Ni 4.748490999279816 0.10120387164303234 12.653981906004699 -2.095059297208753 0.8468401344676771 1.3880660916691063
Ni 8.354833886424606 0.8146458075720361 12.45719132987658 0.10533115453934762 0.35610704380947705 -0.028782214339014945
Ni 0.6601741712275607 6.2086229010446665 5.200375012622558 0.8262324855196544 0.8481778794424941 -0.9367999487572769
Ni 4.152623675481217 6.150618443329072 10.542368212687101 -0.19408563566693673 -1.212357930068093 -0.6635035097871284
Ni 2.319257310565446 4.243157784618133 12.581380550062136 -0.6943099536450237 0.028092387360841943 -0.4914614841837923
Ni 1.7738698903456303 0.6553113014794131 8.032279183431134 0.201306321785092 0.4957161456950882 1.5460230999342859
Ni 4.975001261753196 4.473241519557956 12.251450494617306 0.042688540007461966 0.7972759503863044 -0.4921878208268556
Ni 3.6260246156519718 6.861205285277156 12.78607052653682 1.2802592218957562 -0.665050542559274 -0.8541765202280902
P 6.710437903123409 4.35650501566066 7.51502088590979 0.7139410976123898 0.8107418460832231 0.5654017831166843
P 3.8557675813102 5.048552166693931 0.4407795397530801 -0.688326225257763 0.5245952906232836 1.560277810081087
P 6.660050099350462 2.0299349805118245 3.321057291580967 -1.85477350883667 -2.0683511917899478 0.04471919728424557
P 1.0643606161258294 2.6047482886962845 7.597180359702027 0.7784138233744787 1.6630538022987487 0.8318624301119222
P 7.485632758865538 4.174368439639127 0.7198769493627742 0.3729451984127384 -0.08647545528542527 -1.1312167425113873
P 2.484696191788888 8.879010721360363 11.497165057794152 0.8391247681012903 -0.23791445992642898 0.9770847644192528
P 5.768837118196559 1.8928628394859115 10.956398284833135 -0.45807185297975306 -0.968763903258383 -0.6510454865294336
P -0.2829158675596601 2.0020839992269788 10.668740198270973 0.22126091053014796 -0.5981854053056084 0.16673655423002254
