# total energy = -340871.86698075564 ev
CRYSTAL
PRIMVEC
9.21807633272114 0.00000000000000 0.00000000000000

0.00000000000000 9.21807633272114 0.00000000000000

0.00000000000000 0.00000000000000 13.49158649037093

PRIMCOORD
 96 1
Ni 8.916414913382877 9.637775487208083 5.345461143632041 0.6191933750158434 -2.394756594769934 0.43765163745218816
Ni 8.213674854018432 4.446523544771133 10.6369154208667 0.4972881181678984 -0.7310001099772055 -0.8198312099790009
Ni 5.027557340558629 8.039361028051596 8.550036933406808 0.9243810062676338 -0.5735524372482768 0.9736582552362069
Ni 6.713985993809845 6.407558695936258 10.128808593422486 0.3685151876658428 -1.1687450784741487 -0.7636472065882655
Ni 4.521199182219961 7.633977679318466 3.616527939797373 -1.1330170289449195 0.7326466444416931 -1.8978451432151637
Ni 6.79149158073365 8.369322075142176 4.304382649284967 0.03119519465588176 -0.4022100088151267 0.8969331944693262
Ni 8.781987704283228 7.356485923470786 3.1939980470303495 -1.6673364888345026 0.7487209242957363 0.7587299717923062
Ni 3.02393467612186 3.8038023812750152 12.735221557721148 1.3236213909314754 0.1480448913577902 -0.2791019899083322
Ni 8.625538510506965 1.773843672375674 7.155573337862105 1.2632806850598888 -0.024213364021409913 0.528262969282858
Ni 6.432143305870343 7.541796914661229 6.643284269125391 -0.32861603747805984 -0.18498238781408788 0.0839981973895263
Ni 4.7699397575710485 4.498402879120226 6.80351010882966 0.3117745404406889 0.7469792590142813 -0.9608590465890096
Ni 0.6893618649897402 8.37976615577784 13.344366799498514 3.3661355670536612 -2.7462845038491603 -1.911108435982973
Ni 4.971004441441414 1.0002534772956768 1.532549459193598 -1.283315492223577 -0.31765002538485937 -0.8936663507925964
Ni 2.9724609371372592 1.3514898448691464 8.372312419147656 -0.04986860269566895 0.20576924265245208 -1.264344607548029
Ni 1.7866844528924273 3.3432396268180624 4.75357214099851 0.28883155849127035 0.5742715748024884 -0.9770621387114334
Ni 4.4173759869865155 7.928578185086529 0.6097269024023534 -0.4778348945392932 -0.09931657291415154 0.22886366257807036
Ni 2.3204110802578284 4.984822338063533 2.615478942502704 -0.3915216758633451 -0.6651479873690866 1.1468035412060509
Ni 5.705611391147865 6.212089384480588 4.897163039912734 0.9544330884580078 -2.677854850321853 -0.48319487329962596
Ni 7.6097986647488725 2.0854699653759288 9.351032469819403 -0.5580576840467872 0.11638792657414149 0.24414270022432794
Ni 6.775783978436056 9.001838827990738 2.007817811036319 0.0016028257107456268 -0.45256840666302056 -0.954722851784285
Ni 4.9788398064372785 1.1863572230621724 9.854821550247072 0.9976530754889077 0.3723415033904684 0.9509358739380267
Ni 8.099638030060964 7.986652066820588 11.76826561623496 0.5541953728779037 0.7787583511980911 -0.1908984961882067
Ni 4.0641761691258464 0.873973204176435 12.755363976606402 2.7070813512871377 2.027665541145127 -0.4851653667624354
Ni 3.20468271946177 3.9181157475264548 8.50713324011239 -0.6454811050677787 -1.3476077265437436 -0.9705096823048963
P 3.2329453419056784 -0.003871592115603947 4.824415824060536 1.366729792085175 -1.1059654241437662 -0.7671827305453497
P 8.243670474837897 7.191039887063977 5.46518552076886 1.082059564060446 -0.0019974900460030115 -0.3421760355506817
P 6.361542058219365 5.621330518021754 7.883552490589702 0.11489797229217631 0.01663812277731328 0.6967432456768646
P 3.149798292184851 5.839752839877077 4.404867979030175 1.1353968420310059 -2.233262519885773 0.5730562143381486
P 4.1764523404783604 6.058082980967742 12.19665083117301 -0.41786031375787397 0.47370184620752614 0.676315573950132
P 4.088198476395522 3.3234391985696883 1.5501559852431301 0.9826506885428045 1.1332031768137967 -0.7001481575933556
P 2.9695203707446933 2.9412577483007842 6.56568097059105 -0.4323582502637328 1.0311193255671534 1.1839824642491932
P 3.542064318107257 8.791934008789744 9.961188934585058 0.2502696390576722 0.1993679671117986 0.4546013779326494
Ni 5.838075149960315 8.301384851589791 11.003954336925359 -1.6673316037384962 1.5021189423521677 0.07092079538027786
Ni -0.022790772253855236 9.323899983550191 1.6173041414500477 0.2483693367111658 0.9580424030758209 3.5813924374815738
Ni 1.9547392049390357 5.058696002859843 6.370430127547617 0.9181118854294703 0.4120665898942323 0.4570071591606645
Ni 0.37648375720544014 5.431530323592503 4.1946423707681735 0.8091827291262192 0.20619681710817392 0.22781182427478833
Ni 2.626506527378649 1.8352084074079966 10.737400750611908 2.5988587341326084 0.3985762687172813 2.74860235334906
Ni 4.975714878515398 0.007782821960010506 6.50116365340745 -0.9549403671117296 1.3509889843111507 -1.0977481784402965
Ni 1.1605466089581462 5.954075424204981 8.871716460600583 0.2619997830104069 -0.7131875072758169 -2.7538620590861025
Ni 4.669978936376741 5.542912341527842 1.7859755828122132 -0.16978665391025596 -0.2532048104265962 0.37442101162731645
Ni 3.988569505953981 5.141280749916262 10.161728188096877 0.7012136227433924 1.4110970053466407 1.6540166317971448
Ni 8.49235574173019 3.506694558708275 4.774483347461004 -0.5778580066021661 -1.324196546708655 0.2070216270023144
Ni 7.124651300357836 4.99446444604668 3.2365505316114236 0.7604559533444775 -0.6237316292058291 0.7026603824922478
Ni 1.7199271431276564 6.4627288835836145 11.063046816108882 0.5763847644907493 0.6658771522256274 2.0076021947363487
Ni 4.205277265586679 3.9264581067279343 3.8658252869669902 0.11929481580829134 0.6403543253641746 -0.07937586812616652
Ni 0.6966893139723439 3.0480030737738644 12.27751917239151 0.27416572894897945 -0.5732449333101869 -1.4567495130784331
Ni 6.057428497538675 2.7127324146390284 0.19824395247185356 -1.8820243741328233 -0.4715783721066201 0.21065819531363722
Ni 2.8911206304037136 8.173917290221764 7.604195917873006 -1.1192140616235564 1.2030798472002764 1.5356988351901424
Ni 4.674154725015714 2.2289677617178496 5.583291203678299 -0.8866760355176924 1.0843434749986163 -0.7152569882103359
Ni 6.106164467812957 6.84665255030454 12.912514666001705 0.3414820948074506 -0.8244705085232252 -0.0996904113138025
Ni 0.9132246955751331 1.5480376712713069 3.4198612002088047 0.040070899878956796 -0.1897255589260281 -0.039234777130906624
Ni 5.0800635041073905 0.7842822419725901 3.9560573502593734 -0.6011462877061453 -1.181546858224507 -1.0762941223315785
Ni 2.6183761839358812 5.968391096956251 0.6611536291969792 -0.05506145975051807 1.5120310592595572 -2.4005246076019624
Ni 1.7037125466244483 3.033816454093116 1.1999501986185286 -0.23607714960737405 -0.43820442463186465 -0.8939784827163765
Ni 1.7060908103526051 4.273011691456817 10.283489760132621 0.2028240439811991 -0.5194530843007118 1.6468576521548606
Ni 3.8897701623943544 7.092618484639446 5.937498557296671 -0.5380930679994024 -0.4077450797007429 0.5720385717069116
P 6.360140910596575 6.7965983950956605 2.3851505530842525 -0.0025443636884085216 0.8005484504899891 -0.30336574755170337
P 2.123642020020491 1.1714055030347685 -0.0068388909299204005 -1.386616246596457 -0.4380409024708069 0.3935482193750706
P 6.12480341842665 -0.12062774863046012 13.07740853962822 -0.4308708670849289 -0.44618821416828963 1.5336563508388168
P 0.41132071178470303 3.5796740700874095 2.8458211590358538 0.07096270436180681 0.5538523877161882 1.5785539826824557
P 7.85037202435133 3.428654323349458 12.868612655026052 -0.2129577899810913 0.3342981754645017 -0.268908337204782
P 8.969123874613883 6.719857908518511 10.203849266699354 -1.4959356963595913 -0.07399557765085965 0.4714945541435621
P 3.422598047111478 6.142741795228948 8.175361762803945 -0.10186736436046327 -0.5309667413672663 -0.29041767203146757
P 1.2011245815602616 7.270204727751612 1.9453386105592907 0.54710607013129 -0.5077154841488094 -1.3792418085092568
Ni 8.615841094065024 5.254322021615431 6.362686021508762 0.2949461560294404 -0.30342436870378064 0.49774037521396863
Ni 6.931873667230155 1.7382711152944463 5.09720267368011 0.506300606079154 -0.40098333549687715 0.7914850547361402
Ni 1.3996266401731554 9.361878458588974 9.747887254206447 -0.6605683384182043 -2.9589219343763555 -0.21733432178223216
Ni 6.837904595738569 4.879524250595572 0.9531444975175961 0.18648056962616916 0.1589841639781133 -0.9365770341131935
Ni 5.9178576017711535 3.818892372449405 9.117978295190037 -0.542161324531505 1.2844400927463233 2.076016678755005
Ni 8.055170029190313 2.647652794791019 1.6949341724061397 1.3225759803860964 -0.2805289521628459 -0.8282837116217283
Ni 8.153554559308981 7.382637606404044 0.7808162452214781 -1.7201171229706438 -0.9487100699313017 0.7546771418791712
Ni 3.1931324696502186 1.8900559623790527 2.7342861210311837 -0.15620942944645355 -0.45330477060841284 1.6031969780421162
Ni 0.8850044762829665 2.2888576045156563 9.637525677335862 -3.4172868931164957 1.5677067555553066 -2.315860237383347
Ni 5.300532238938104 2.1176779245471673 7.738571505744446 0.18887760910343598 -1.031490335753327 0.19248589527998464
Ni 8.380180969218797 5.739911853676824 12.699063652784348 -0.28920436844965675 -0.5820373347908363 -1.2535310618722928
Ni 1.8909316796432964 1.2048118121465512 5.858437880873099 -0.1925188054004491 0.12263107927037589 0.299036266938414
Ni 2.6390984198308276 8.870822307183406 1.9987241786028829 0.02896836220789205 0.5250562894201022 -0.3103010412189559
Ni 8.12290445506045 6.928730303155344 7.9444397292610995 0.6750073966616698 -0.8068602516406297 1.7575642120735087
Ni 5.985250958812059 4.4983567887378975 11.76334131978697 -0.4185781657605049 -0.18639932276627252 -0.013430414473293
Ni 0.8628893890340488 7.222491963965027 6.788642273298094 -0.20213755943713574 1.1171499800056761 -1.2720851707253962
Ni 9.07255991063577 1.1190099564035951 -0.3306312012496374 -1.320727357213132 1.9115056714213916 -1.463097566783648
Ni 7.132025761530414 3.553457860618891 7.141218027382034 -0.277098072104426 0.4196886252158643 -0.8572916688183042
Ni 1.924872637190091 7.4212613467954265 4.085185087198877 -0.5910544506877821 1.8609711530069497 0.12212791438171224
Ni 2.6831147349546587 8.63654489380704 11.961910670358064 -1.0497986471442113 -1.7743044076463248 -0.7794453499627867
Ni -0.0027617357091308157 5.189860012890625 1.4797575352743984 0.7266449183323034 0.48642932107652354 0.3204633264639384
Ni 8.003908305964423 8.809190247933579 9.307036434463797 -0.09754302595349652 -0.31029487057136884 0.7476881121558477
Ni 6.1375981085610745 2.5779549186336825 2.822587919111644 -0.779449977948477 1.0123464158350244 0.6011802262678743
Ni 6.983227571220702 1.3374322782589179 11.808119969834516 -1.472301344770103 0.9240390495471829 -0.32461951472415707
P 0.9984190800789979 0.14164311935701698 7.526619351760415 -0.7715980860042261 -0.21552940736300943 0.32079294188921526
P 8.779305244031702 0.8927965163194428 10.881410150197675 1.719444779493968 0.2749365456767329 -0.011545024525122053
P 6.183688490889693 3.830414968031559 4.971784290710414 0.4194623681376711 0.2497528473222537 0.009680717622873649
P 8.129357108586456 0.6778742980981555 3.4580959377733334 -0.8594601372245327 1.0369883827534205 -1.204220645672939
P 1.0825801182110553 4.931661691085705 13.00945103630761 1.1634326651222995 1.0624060514955767 -0.22455757900354872
P 9.267300994050647 3.8475144998754764 8.045963936223993 -0.009189636919068045 -0.08369814965060424 0.6839818322461382
P 4.480565901159051 2.904145772449781 11.170696434883249 0.7912264017581148 0.4673784750926596 -0.41447699910793784
P 6.882649138903191 0.527544985287487 7.721828713459752 -1.1037650740583378 0.1593006667772676 -0.6439896081239167
