# total energy = -381177.67001938866 ev
CRYSTAL
PRIMVEC
9.16413991195489 0.00000000000000 0.00000000000000
0.00000000000000 9.16413991195489 0.00000000000000
0.00000000000000 0.00000000000000 13.41264508661181
PRIMCOORD
 96 1
Ni 8.247735235026102 1.190999137056178 3.5854551431916035 -0.0484552672879101 -0.16394176509370476 0.07524564800787688
Ni 3.7580030710785866 2.626955738417671 8.845250914371519 1.1253618263925071 -0.5751192675147643 2.3458812092254697
Ni 0.9054133741256786 8.439201613691681 3.8064419662929 1.0841035910736685 0.01397883077759528 -3.2577108611906547
Ni 3.3958270910258235 2.526113540990971 6.6369387543439275 -1.3348468273336496 -0.25579853929570134 -0.6170297917056212
Ni 2.4615063534356976 2.944053313423002 1.9677690619982158 1.3051493002692167 -0.06503348336156542 1.8416693673545446
Ni 6.372449758288747 1.7444490488328666 2.2140388311628096 -1.5756427225729315 1.2528808298828036 -0.33498774533235853
Ni 1.0406797473442408 6.456173342048319 4.887862731185294 -0.2710526372412944 -1.426385556074595 1.548928960727171
Ni 9.119171643395761 7.355542049378046 1.1830968990662614 0.09771760385814783 0.5708188403671975 -1.1043978225463302
Ni 3.065129932143609 0.9626470945735803 10.585447802207838 0.473431623265275 -0.07868089894167095 0.952843632483701
Ni 6.385691940702558 7.0512559422028245 12.562203219967289 1.008148832813909 0.4648102001448511 -1.8816009134421594
Ni 1.590674778311236 6.379258714367268 2.526244588194097 -1.0875308715876626 -0.6123472986282873 -0.5024424086753282
Ni 5.276592723530279 8.815875263349046 9.447103064802205 -0.1456375674678782 -0.8884768361718569 0.6268058972557786
Ni 1.4821896880588483 3.9440534429576175 5.957990526258629 -0.13274631332750686 0.6774247478539108 -0.8360340449911084
Ni 5.183008525045959 4.904336189390878 12.975017488853268 0.8700911345758177 -0.6439055330505427 -0.138171083887504
Ni 4.8658834576203915 0.4511808577397254 6.16741587023656 0.8468493904390577 0.6103438950450134 -1.2064235668615289
Ni 6.686339884266512 6.817588698474545 1.342216612495834 -1.1256611028004808 -0.6463401106339642 0.08228918511821957
Ni 4.704961157837326 6.633756048494574 10.806259590233632 -1.5416817922464547 0.44592416187362555 0.11823937796058348
Ni 3.0817720105266413 7.196690845252781 4.026570109468817 0.40808317976645203 0.6642982377742818 -0.493058396357267
Ni 3.436552529535843 0.5424648570642762 7.903991089913753 -1.5965445057226053 -2.090025848549904 0.8726144152183035
Ni 2.701698464900056 4.720888433294215 3.760744981790152 -0.1997240648996367 -0.8557482355905843 0.2654933979859621
Ni 1.8154528061631163 2.510012146872586 13.377571586507067 -1.9079675763611461 -0.28498235994850923 -2.0819968075978403
Ni 4.048093925271806 6.945162692510993 13.107225788527547 0.23876703773471136 1.5023356863486643 0.061040560152088426
Ni 6.252353702556567 6.2132411527004106 9.212501995199899 0.8509536424154184 0.6051289265029772 -0.9619725913681627
Ni 7.598639193247372 0.37212273769425136 11.837893414906127 -0.6784814712531992 -0.6848927740961817 -0.017572461666124577
P 7.53194258175414 7.690857934859957 10.513368174832342 -1.4356366423592177 0.5160921382482789 0.35027629606031285
Ni 6.207458580310711 1.8645267762848883 4.859133152038374 0.5773954651434507 0.547843976738579 0.13531098873088954
P 5.490282141886857 1.3001257171140788 8.004680246201138 1.3270548420930566 0.9040032139422302 1.3222283672386905
Ni 8.481613253976192 7.382154712166772 6.648285792589451 0.07737940652142802 0.341124968578348 -0.6055577865102797
P 1.1944265254456352 1.7997271417879603 6.585957726671766 0.8100003399315081 -0.05173496648044639 0.91294036853086
P 6.918201792399275 8.219445534602963 5.225312028477541 0.6004209795043466 0.2959036348467033 -0.12244261740865363
P 4.445469367367094 8.848838675212354 11.747519414691396 0.15871085571206858 -0.45713160055367086 0.8247458736717989
Ni 3.5426824357879885 5.232595687012141 1.3948884240125279 0.1346694984921487 -0.4585953295833909 0.2644428452342607
Ni 7.858167640277919 5.098469332819377 13.396898757933174 -0.7429950775555526 -0.7304146697873808 0.821902490685733
Ni 7.672529654702433 0.8533271511600177 9.336703585687365 -0.371886675241237 -0.5049114390411111 -0.7520265916302016
Ni 3.837437837281297 2.8440175603232336 12.30907959043779 0.20007347781925544 0.24081260740983043 -0.07162964852184438
Ni 6.575023074729787 3.4078870993694745 6.829450761392494 -0.5436595063435863 -0.7597203607300335 -0.12618177273611172
Ni 0.7888088557635078 5.41399983987124 9.729332003221854 -0.23554621680456855 -0.28239531594762335 1.492127635467411
Ni 8.998113352955311 6.720164725297224 11.918369227421785 -0.06660262762089819 1.1355138272248446 0.218763598029591
Ni 7.492032751711131 5.113489358408468 11.023598169169572 -0.5844816825662709 0.4914386013656568 -0.8732242808881605
Ni 7.772886152704957 8.054527669745557 2.954148530133767 0.0700615327037761 -0.032655324141176015 1.2158852264950606
Ni 8.44283977730295 4.992486052808491 6.679175359552935 0.6718817065484944 -0.14730981296397855 0.008413420874675833
Ni 5.335673934618059 5.462175724265292 4.134152531923446 -0.6800452161958933 -0.006305887613369786 -0.7491053042183486
Ni 0.927585094632236 9.043613308446366 7.7323091732642135 -0.16215073463155302 -1.0581593604040809 -0.7636834591428396
Ni 4.739839874977095 4.537477333757867 8.144332576861396 -0.6046383600198039 0.935432121875473 -0.3666465098882202
Ni 0.3251537705485712 8.752716009926218 10.5230784976598 0.6502564149692349 2.0484881343174335 0.6602209823811146
Ni 1.3616079329024948 6.223954032452483 7.526988447627561 0.8197929005418979 0.8913503010649101 -1.0123106775010824
Ni 8.305396004401674 2.7751857041916503 10.665896122303261 1.6278636275508611 -0.6610640471077002 0.034790625316623955
Ni 5.790435221886557 1.6905639051697445 13.004632323931798 0.5609362911461631 0.22988619030531376 1.2686411780408537
Ni 8.637825185758775 2.792615898621456 1.9133542310385414 0.29347599924181716 1.4041090040645816 0.28557885588192755
Ni 4.801377075605983 7.474281812378568 5.418869663909094 1.0320634346479773 0.07208910465676617 -0.0693069139259387
Ni 5.496788681342777 1.6640703762020428 10.706121198764981 -0.40240309866253926 -0.49546212070275314 0.1580292562640117
Ni 1.5191578291365755 1.9550593161229806 4.102310810805778 -0.9167355739072341 1.4323032071106105 -0.9213437621032069
Ni 0.4306696794154397 4.455962307757276 11.970570918552438 0.6734331101960144 -1.0581709303683067 0.006893127575407484
Ni 6.319371058952556 7.96610288212558 7.404732404078818 0.9544184331699885 0.4543003017524627 0.6010118190108101
Ni 5.602964408295317 8.848252170247314 0.6513834111423892 -0.7607115209987092 -0.5652714281864072 0.4947553244437156
Ni 4.386663080481677 6.9580016527613395 7.82280505654199 -2.4691440085425733 -0.11967096820078743 1.0502725014568364
P 4.70241352689543 3.6551539269746374 5.587077455054775 2.0680249187987805 1.4419227324782455 -1.4943390412964328
Ni 7.728788310645954 6.11151919782615 4.727260259890978 -0.13397504352828538 0.25770501228979487 -1.0710495861031875
P 6.704292434680807 3.3986129896097674 12.031880848507372 -0.18269333466959503 -0.10095128030409711 0.44730304449902325
Ni 5.664437459943654 -0.026358816108543855 3.598344506212382 -0.44702845068139785 -0.2619730435375295 0.2272865478989376
P 1.5134485698675064 6.400748622851965 13.323679111531883 0.7359782799180874 2.3593818148150656 0.056804667693869916
P 1.1120500702776412 1.635304140494808 11.3857933939165 -0.8519242338588037 0.24771499095661853 0.21566619005118984
P 4.505054606159206 2.899469771939824 1.089758299536052 -0.5247115044861738 -0.038617712372198 0.0162884527473784
Ni 8.729897301130098 3.0131142730565545 8.091660765344702 0.08797440842845494 -0.4855559173326347 0.4485194334046275
Ni 3.2809271027183025 0.4450500480270334 2.9557046011191406 -0.43807921190791 0.46432683275052933 0.16233354006632042
Ni 3.516720426944855 5.496587070261045 5.946952319533761 -0.4257574571177635 -0.42843603239119116 0.41384682172310655
Ni 4.998314445898584 4.178536295152907 10.589874081865881 -1.5568219903220026 0.9215872455725805 0.9088741688812862
Ni 8.494168125884098 2.216246472507783 13.03875408310106 0.2759431325643764 1.2333196199214242 -0.49183300859059803
Ni 6.958010816901418 3.742790598547841 3.816273255769396 1.8356151907406646 -0.07619669906723651 0.8802305370026647
Ni 3.239660979943636 0.6543535089419159 0.16505899261461834 0.7089508434866499 -0.2635961809632492 -0.519309359633996
Ni 1.1888913848380627 4.663300977039272 0.7903915027551099 -1.1859002500971965 -1.7023592847665907 1.4807831569888692
Ni 8.941808876311397 7.27258825338509 8.925779878899634 -1.514601905310527 -0.06921898219782273 -0.595843130325677
Ni 2.202491098249561 3.530796546105834 10.546778796731495 0.05452178519696417 -0.7503695156427529 0.2663716868258574
Ni 7.3095197379025025 0.7751918600204749 6.637837756485654 0.12024535264701873 0.6923374032996851 0.6742777175844967
Ni 0.6483794060245709 9.108156347021088 13.068905936788205 0.06739812693900005 1.0039075410390517 -0.2512852248063801
Ni 7.909092766695601 0.5382099468257068 1.0358933169811033 0.07238452440999793 -1.248256700847231 0.4546635986291525
Ni 4.1471857719434615 2.3528838010821285 3.8779983212698994 -0.2219671925685532 0.957472903725596 0.05611689759822593
Ni 1.07733630765929 0.9646815336710656 1.8887017778126631 -0.17837773801337667 -0.7001993225462652 -0.3818769536847294
Ni 1.9267879439799989 4.089360048046472 8.246456837485114 0.9179015691908772 -0.8621687944049474 -0.49118586192490243
Ni 5.954455001016243 4.246231797914724 1.8918267495795211 0.03605406541007985 0.9015524384088925 -0.9097624850235106
Ni 6.480009270393179 3.182806654894995 9.342926953214853 1.1070236902049515 -0.0992684932850355 -2.6041683192709795
Ni 2.6826095611159944 0.5085318791806352 5.288418129887913 0.2563577542332811 -1.9194604074920942 1.1381821180856269
Ni 2.127986639409224 7.824507753768625 11.809807158392736 1.2324837542836902 0.07969571335943049 0.30082266941487545
Ni 8.638924882568226 2.6393181633839213 5.6903820569206385 -1.0883500250548483 0.368361692807114 -1.5278978510884849
Ni 3.1475797004322335 7.8955390035191115 1.575918679956413 -0.21198796986865429 -1.0895391602669429 0.03145924695054582
Ni 2.808909739681495 5.2457462280251645 12.093189862048302 0.5581638706073484 -0.8024086436271793 -0.7835555154764182
Ni 6.124367322216575 5.74768450841913 6.504180606264923 -0.05591198067627145 -0.3389865820791065 0.11790076367424211
Ni 2.2899903077215833 8.11819095087272 9.489929840632286 1.1282556030005344 -1.5835583778755824 -1.147320075831153
P 3.04616932632065 5.707389784492813 9.456182894792244 0.2634686542464495 -0.17482524477542793 0.07702048052011251
Ni 0.13550372444660222 0.20732309024386195 5.492719803147807 -0.6271432259905392 0.816714004506258 1.5242404568415555
P 2.6864126792486807 7.622731717514438 6.455894752189924 0.012942676203597065 0.66135561020619 -0.406055607813462
Ni 8.171874483454108 5.4962938177785245 2.343189057292806 1.3728780710747581 -1.5233089461662217 1.374083404236769
P 5.047324267039804 7.265586850364915 2.659875162408601 -1.032604137642796 -0.123041170224601 0.07975227762897877
P 7.931407447787387 4.9436595144688456 8.80215562923713 0.5834573550668144 -0.47012389904828067 -0.2722649123818408
P 0.10044355733327362 4.459068951243977 4.136848621934618 -0.012293729765688504 -0.22571843208086934 0.07587171162764997
Ni 1.4596459034650933 1.6733444859617503 8.999791307003735 -0.7318292907467203 0.8427999029600325 0.4676229870032979
