# total energy = -340859.26743477536 ev
CRYSTAL
PRIMVEC
9.33961532962710 0.00000000000000 0.00000000000000

0.00000000000000 9.33961532962710 0.00000000000000

0.00000000000000 0.00000000000000 13.66947109769557

PRIMCOORD
 96 1
Ni 5.625717240447843 2.3002351584882845 7.776097338431919 0.6450717854445019 -0.5769604344885612 0.05102894155235728
Ni 2.5905570982563946 6.4586801653363315 7.048361990541318 1.3837312117391782 -1.9435673278426269 -0.9254217888273223
Ni 4.434552052219275 4.3546049457558675 7.723907568464919 -0.30026371158761195 0.7756478305935675 -0.6405772400082581
Ni 7.106345123842342 8.754889949655722 8.902311106428112 -0.9417459799086427 -2.0607127014080833 0.9546385196005948
Ni 9.367073709860975 0.8790483223339373 3.9438337240700028 0.35486160143815015 -2.8660467462121737 0.7435473505145969
Ni 8.103517163899014 1.004839864169574 12.025033877350522 0.6991318005136992 -0.31637707220970673 2.303214266484562
Ni 8.854963926963597 3.653003709232779 8.934789618428871 1.1057250259981861 0.086017027591768 0.9213977552695938
Ni 7.298059405895423 6.327832155809189 1.4329024495127234 0.0217733871213496 0.29310164662153393 0.039052743027087576
Ni 6.448294513188281 0.9451223643182857 0.4550120451212056 -1.730968463862851 1.8491831592330865 -0.8111971884530867
Ni 6.210937531452179 3.838282996384774 9.920823233349063 -0.14146415281647895 2.2696197183585687 -1.5176736022573152
Ni 5.104716143840982 8.893564556754866 3.683976675256681 1.9476119302256456 -2.197629858283828 0.21471282499898509
Ni 8.391298728321557 3.2550894018877465 11.484775428078136 -0.7395899085287457 -0.1897232449331829 -0.16189593830826957
Ni 6.522516435508924 6.564871590627096 9.736614266103693 -1.298581417243712 1.1941807449384336 0.2243074106659556
Ni 3.84161723902583 0.35984883750707575 7.637283571065683 1.6081720626592046 0.34421954834327173 0.3693333126917639
Ni 3.774390688520736 4.669209885150714 11.309587595194097 0.061865884266861196 0.6836303624439903 -0.07093082268260686
Ni 5.276985346962191 3.9309133003455305 1.1791684524514352 -0.26100168076319563 0.7997501229584097 -0.4158520250785935
Ni 3.8974681381673224 9.226110897027775 11.90433242582126 -0.8850708958141016 1.2153746054072294 0.66588229443195
Ni 0.25234986608256393 0.33944738197452107 0.6214337151399921 0.3630806469138328 0.6506639348202987 -0.12894802262733923
Ni 5.88725448604303 7.34746597052059 5.730023931382963 -1.2499973376874214 -0.28838110121741306 -1.3927215881632466
Ni 4.370846536660058 7.820312010944585 10.102299429174902 -0.39809984330149506 -0.2595155831359724 -0.9810707456501944
Ni 3.9448666855156627 7.127564729670014 12.993338100658624 1.1949219939798323 -0.5035317850847651 -2.842647650561943
Ni 1.7157340178575096 0.866203549492918 12.097290744624447 -1.2695307797346587 -2.6448454852753676 1.9224853103613473
Ni 1.8848557706424842 1.0149173090146695 6.523563406377446 -0.34588922273621076 -0.44517545663305913 0.062446696470995676
Ni 6.099646676239799 9.132499933466708 11.40964756307911 1.9646709425904616 -2.2171972388927945 0.5240458458777167
P 1.5120650282958823 8.994395042897267 2.9423402440412976 0.1298941885906924 -0.7113710228923684 -0.4490434242288976
P 4.6366052883442 8.923115099377556 0.3965619310581281 1.1303829337561822 -0.06383457795745781 -2.521116802065439
P 7.599131242805984 3.5162343836428094 7.338209477855183 -2.7320454774316434 -0.871663364158944 0.8713309205201896
P 5.770864200909036 3.9135696348428968 12.113174628264904 0.9622286732430266 1.0016141170191848 0.9221174070444377
P 5.19478739322569 0.743179335653205 9.763488074998296 -0.8520273350955714 0.26739318611183627 -1.4918517560982048
P 2.8359368094845614 6.058757840714472 0.7377016513143279 -0.7109570752834014 0.09090906557674666 -0.698259682321391
P 4.772982350094046 9.449355720134646 5.571594170125944 -1.0958946701713255 -0.6074082094554571 1.9114804746104113
P 2.4999628304181876 8.138531381437717 8.151502239084492 -0.7364919863297122 1.3693271204987063 0.7321702190259068
Ni 2.503988204587081 4.058473765307823 13.308268992625381 0.04518276718422541 1.0091577336943975 0.8833441429309818
Ni 4.139728417904978 2.5960301127876515 12.37446624197925 -0.668657800294558 -1.6448745602865606 0.3746328705278064
Ni 0.8266792317543089 6.488622971799145 9.918171716582126 -0.5419355816739441 1.8818749930391523 -1.0320153550188613
Ni 7.986968105305921 6.66316170142393 5.343847652472884 -0.7465843375687078 -1.3717447288012632 -1.1988195292620256
Ni 7.631633103844846 3.5437302109124675 0.07457962958437479 -1.445128383899737 -0.5438538817425794 0.2865247647349646
Ni 1.7829885872083269 6.2467736351320955 12.140705012110955 0.6481000307478645 -1.6044922998147721 1.1195560183440072
Ni 8.101686599311765 1.199159898874908 7.309257604569444 0.9866652090188363 1.7572245693459028 -3.095318699972256
Ni 5.008882351852544 2.1520154646127847 5.258358418325436 0.4521081791971504 0.4264837937608268 0.24289545808078813
Ni 7.164783096405607 5.71480783023224 7.438639294503742 -0.3443164789324522 -0.6538328194665837 0.1997279215543786
Ni 6.455878280764015 9.269614824820595 6.930791178040855 -2.984551462019002 -0.45317518700908405 -1.70583335935812
Ni 3.851834778099541 2.6553366695683334 9.61172960090796 0.604954348598326 -0.3122224266113849 0.012681452122410418
Ni 1.9675954220629663 2.6857464567931997 11.089741458073442 -0.12633501048452436 3.2911488291341255 -1.0886667849643186
Ni 4.851883419650456 6.490733724843623 1.2324780422858377 0.7142712272582988 0.7172328809897842 3.3291250512675825
Ni 8.75842032421684 5.533880803782575 3.231121147294634 -0.16790846305093665 -0.18426479292177297 -0.07781880805169178
Ni 2.4846178425771384 0.5809791717233742 9.800040527167202 0.2784083062754173 -1.3617351670840612 -0.1343283131026461
Ni 2.3181018424444177 8.41475984180708 0.27228994462221057 -1.7324892713827516 -1.275127814206462 -1.1872629347726777
Ni 5.151106012743289 6.9979775682004135 7.869774613261197 -1.2985945298698345 0.24994182340460824 -0.06972754640312508
Ni 4.624062185075467 1.5730246969742305 2.8295120881602416 0.25054937508162006 1.807569597457358 -1.1442458077812037
Ni 8.886438430325944 9.02752265815728 10.34249938979038 0.9965724408302192 -1.6191817835061468 0.9814679810886129
Ni 0.22226416350656222 8.706109139251707 8.189175445082324 1.1052974515424643 -1.8268564707114279 -0.9309100656354031
Ni 8.49366091136349 5.655809480754512 12.661907844407022 1.6144015885086842 -2.117290340692812 2.793474274161086
Ni 8.464539991041889 3.515944855570337 5.543229758638868 1.1251656512213009 0.5096839207290899 -2.248134037680967
Ni 1.5564375403061217 3.333430094529693 7.387898098860629 -0.03572779241891266 -0.8628311105792946 2.557851181371995
Ni 9.355025606200018 7.846126707470853 12.526416178182027 -1.3382985333276758 1.1890560221173585 1.5259556397604492
P 3.696750467021868 2.5276641292231488 0.8328181608522526 0.17763314653786827 0.8112167288371126 -0.9302472352404237
P 3.4265087000220205 2.659660911424941 6.6960586281874885 0.9973674259276889 -0.8143223643456298 0.23199629466978108
P 4.487264840639774 5.537317782191282 9.502592460970169 0.04112093841002595 0.6770267410845436 -0.163638374920673
P 4.244014561686567 5.900675513144421 5.187988153330204 -0.9359933936955817 -0.3871659699978106 0.6648880488394807
P 6.51671653444423 2.5907532301764564 2.2150690750281767 1.6109449974186516 0.21295521887793004 0.1996379329437336
P 1.5721000750653664 8.085323593409443 11.199903153803179 1.6889802923565234 2.4697201927610175 -0.888417186578515
P 7.740887922934675 8.83988978796454 0.8590456683721756 1.1055255083928701 -2.8689677765137107 1.2676849847751714
P 0.6129430709243515 4.611369647962877 11.123190356097748 3.2055058970523245 -0.1860491385157054 0.2405668099476115
Ni 4.240213338283459 3.9085916199194157 3.980003252014026 -1.0946731390593984 0.9448665278154952 0.1071530382394348
Ni 7.567115041759656 1.5310431264657005 9.393578603953559 -0.8973152603990934 1.7024575009073522 1.2065274394292447
Ni 2.356599736468035 1.0743919788696903 1.3577979335518013 -1.8669420258784042 0.8991649120133225 -0.2916826547868202
Ni 2.5465208123948333 3.065840778258304 2.533171700330797 -0.8448400733185127 1.0659806562207126 1.1873606366928067
Ni 6.058655104946821 4.626322371963802 5.571553075818884 -0.24000065303149634 -0.23458642399446053 2.727753792034825
Ni 0.23735978362067503 7.148195939737498 1.3703503764357756 0.3307580235217271 0.6318128635520667 -0.14308394780808908
Ni 0.6015702214453221 2.751544046166413 13.357383227293502 -0.45299289579494895 -0.5409264236831394 0.633829122651147
Ni 7.814670883338989 8.244134410968297 3.378984067867926 0.7282153481432168 -1.5677075268862548 -1.1813612245762621
Ni 7.103253711197554 1.0285251284208825 3.621165894837556 -1.33207672078768 1.4831166902180524 0.0731900510304288
Ni 2.314225902119381 6.946422892069804 3.2700794843496355 0.27126475325210053 1.0442705182371306 0.8759576206589237
Ni 0.5558985689550523 5.353756984243641 7.268412665235751 -1.7529092298000004 0.32433952158989304 0.3356806576343251
Ni 0.43679605955505724 7.532212899603844 6.1963714675222334 1.604487671829082 1.0832425286249536 -0.35144254845427214
Ni 8.888558522985663 2.3657899178652304 2.0893102218458837 -0.2363016069133543 0.9144305799231411 -0.24479756019950744
Ni 0.6580945068456947 1.3556451522387387 8.379427143388655 1.373449627307512 3.8210143670174133 1.440364129741874
Ni 1.5794316730295925 5.212747473334233 2.0857835831308624 -0.5716343942899574 -2.054675236964752 0.3097415691710601
Ni 6.345297236309956 4.700637690436855 3.4772947258182905 1.2388719171982212 -0.018732800522812898 -2.7531226098169164
Ni 1.9098859394885044 3.718175544384842 5.3081152185221425 1.8880641525689996 1.66385598648507 -1.2175623570871674
Ni 2.1435444335891503 4.803364118473189 9.311862574363495 1.2460308968405058 -1.2968001569735732 -0.10545996680772807
Ni 2.8367680352410147 8.293260787136232 5.39514922503046 0.6741558472946518 0.14202362486437475 -0.16264052978377794
Ni 6.194154242864008 2.079325239191675 11.227952820256633 -0.6732695880349566 -1.2771821256323295 1.1096865817490955
Ni 3.6756522761923307 8.83820865722115 2.1148316544535835 -1.0447826819868586 -2.041119352657188 1.9239415831918993
Ni 6.033858426481827 5.819075294783348 13.071801142260227 -0.060420152959270126 -0.6270622362409587 -0.6625768842078008
Ni 2.6644614736588412 1.4220498166026205 4.420748100893 -0.12305222596819453 -0.3517377110971878 -1.105783132929631
Ni 8.158658252282185 5.3886684660146935 10.46473160425765 -0.6795135120621395 0.032587961238350324 -1.4498054776604323
P 7.962021992997071 9.145248508270743 5.390049795108847 0.8465184894622002 -0.6601340790942631 0.4004284914346717
P 0.6219931580929311 5.493925929781353 5.041163797971717 0.2571627666330797 1.335221951284881 -0.11321672793501146
P 8.619063925205099 6.9200104601681085 8.335205933145321 -0.9015192711781119 -0.9622572124881169 0.8658303024169346
P 6.152471540043191 6.855922020384008 3.3502236566946295 0.02172222216844001 0.041178016900206504 -0.5666202289048177
P 0.6719012600565423 2.717220960155546 4.13330649846523 0.06991652248547958 0.816104395946717 -2.2286121655979554
P 0.1285682094468016 1.7296593841819186 10.357849981400573 1.0958504471969515 0.3651411289872873 1.3117362094581153
P 7.309547132641917 7.112817477204392 11.915732360184487 -1.3933455949004907 2.155491020132249 -1.7762774722122956
P 9.123860789368733 4.744253693612569 1.0447564457483074 -0.6466183039960155 0.11762411297408776 0.4442547445910026
