# total energy = -381169.79324350436 ev
CRYSTAL
PRIMVEC
9.22508410341979 0.00000000000000 0.00000000000000
0.00000000000000 9.22508410341979 0.00000000000000
0.00000000000000 0.00000000000000 13.50184307114263
PRIMCOORD
 96 1
Ni 0.20823412726820678 4.789709650119582 7.065082111917494 -0.028907941283601826 -0.8773331608502116 0.3168516978532801
Ni 4.238759968521578 0.14916038045239072 1.877377437631708 3.086320096018072 0.10585206003982416 -0.40642276134489363
Ni 2.677193128228549 5.486840010092785 1.0596189589849012 -1.668940600096829 -0.71490140464313 -2.2259451602887537
Ni 5.002762961180746 5.5132698752666425 6.711955127976802 1.1108757169611898 -0.8301932699396154 0.43600381743612004
Ni 2.7143425408132345 2.71973921485397 1.7889670017271018 1.0105872670520724 -0.3432625837466411 1.7043650023427097
Ni 8.175361541264964 0.9627205234480205 4.147050642639251 -0.7490651950090326 0.6042112997847142 0.5970641472169718
Ni 3.8205131178226797 0.0347186029953969 4.804873842919857 -0.8889429771749982 1.3242204579680548 -1.1253646546059846
Ni 0.4909571164326887 5.658555720510301 13.104159625310997 -0.024646852014402712 -0.008457900959366079 0.430990937602561
Ni 7.42406148904014 3.687837962175065 10.76832688659757 -2.0653034061025592 -0.4566873139274006 -0.45165643637171254
Ni 0.5977346942434555 3.78848362676382 1.3964147770207844 -0.5448643252849649 0.6182801191729544 -0.3097438831639052
Ni 2.0610128788663755 1.9982915339040521 11.188166909273967 -0.08959420342006505 -0.2982500235916928 -0.5254301278197531
Ni 6.946469674060815 9.051384726875668 7.4924156701892555 1.4648487451467997 0.030997219712462748 -0.096538238838066
Ni 8.835683816755202 5.8481680935586295 10.699832484174236 -0.18262982842151126 -2.2085657884700414 0.6446444680990963
Ni 9.171716720358319 8.33487246577497 2.840680063869421 0.02662891544143801 0.957284441863874 1.220174597899034
Ni 7.4387754977494955 4.5946360274437055 5.269012718149432 -0.06296168843420125 -0.2131681062196845 2.2066976249130508
Ni 1.6201368975317099 0.21106253797058183 4.526316901613146 -1.6691560585417449 1.134172996926234 -1.8363793226001988
Ni 2.324416697473408 3.4103197653076474 13.15788282350523 -0.13674206475046127 0.37062349225809715 -0.4162518316201734
Ni 5.498887969575179 5.430373271967417 4.402262586804962 -0.5031000968639852 1.8330096347970173 -1.4877397908123604
Ni 8.892288931138026 -0.31311226031831124 5.8748950064318235 0.3190867578313859 -0.13533078622523145 0.470962335789176
Ni 5.1089990265706735 6.411746914920338 12.12018543122631 -1.0647794368237598 -1.0777077148496537 -1.4590840747488807
Ni 6.926460467232857 8.958174479854147 9.819565760001586 0.004408156370024666 1.6870483654411332 -0.19541618155290216
Ni 7.515048490858555 2.772322192686775 0.9579742178173226 -1.2530173554606678 3.6828021454793283 -1.9907761243179456
Ni 4.9389622814102765 3.2551538552817205 0.8501597405840283 -0.8114589267549057 0.18682046946409114 -1.5117680354061576
Ni 2.223485055285913 0.14345282108657378 2.103992544431821 -2.877552432858928 -0.7157524397895156 0.06159643265555844
P 1.0032924421337535 1.6408379856469406 0.6709717122639567 -0.7436031434531968 0.4726029567163926 -0.6393765348319376
Ni 1.9085130180674101 0.26412614267094653 12.833690314998323 -1.365917580596525 -0.8956592128529091 0.0527441244712511
P 6.436433239250266 2.4520918576849913 4.707215260475358 1.2876573141320404 0.5511879535101475 -0.2843650380794845
Ni 3.7730223862642096 4.7784734980142565 2.8543433355305035 0.7376225003897298 -1.1306747539649882 0.141002382688712
P 1.4132736177206882 9.143165085903489 10.651968136720638 0.3698606459501437 -0.5629962589989852 -0.5387384148928851
P 5.85489317967093 2.191759991993454 10.454976619116438 0.2625775098907478 -0.1343026020710332 0.04395840785882107
P 4.911969686122769 8.763183882932744 7.267893734910241 -2.3286360489917763 -1.083004701582535 2.0359462930966807
Ni 6.02267900437673 0.12844545471141458 3.405934160454715 0.4850401540384808 1.6422666903500682 0.3115652526433602
Ni 6.369080902205123 6.517678552543864 8.341627072155527 -1.7431709194663139 2.0797023551367086 -0.9180519787258126
Ni 3.1696373281746846 1.7196847771446573 6.872654243284153 -1.1620172728320115 0.11249990437364496 -1.7856941375405053
Ni 0.036217679117823365 3.3573862342892906 9.670667371929978 1.5896842882676623 -0.5011496580058337 -1.165324997049006
Ni 2.8024420913927592 4.739266891735411 7.051580279223443 -1.023770598511566 -0.04244839897219787 1.0741197403880791
Ni -0.3396602065651967 3.3797847378292993 12.489177714338382 0.4115500552691299 -0.1566503736386141 0.5230947948183572
Ni 6.18664564437678 8.373802319538905 12.003907862087082 0.31445774369980684 2.4044535103427234 1.5565373692020483
Ni 8.480416613365875 0.9439290276856653 12.802110085522001 0.2623425110618063 -0.384873317308892 1.6855494122981034
Ni 4.715558426291497 6.195723126865811 0.9765756768527731 -1.261379097161802 -0.2281578947602974 -2.2072563256299986
Ni 3.725181101520187 6.921995526658985 8.0962453773194 -0.12961188146358324 0.44399737716455795 0.008916585763339483
Ni 9.358109539149869 5.3525965901940165 4.2516898460181505 -0.4211209867870167 0.051606411322382084 0.8713514893454799
Ni 5.414063323755417 1.2986242758775124 6.129472264830009 0.3469431179220218 0.802142020229354 -0.3794410905497272
Ni 7.914835948812989 3.4143234516900054 3.3298917944414144 0.44659624823998567 -0.41274201869470206 -0.6269334239725783
Ni 8.357307869650299 7.208572755847773 9.021297115963089 1.2776567512759027 0.8439005922233788 -1.0686103805340756
Ni 0.6686875815075703 1.6666220949526755 2.7679181376661814 -0.5964617377462824 0.899537721971709 0.8947724393725817
Ni 2.0272213967959254 8.947916186634835 6.645715336041596 0.38007898124404216 -0.8848240699106181 0.5166498105239619
Ni 1.3075818322767498 6.401479396617195 2.532014293957323 -0.748430132528195 0.21281432242469156 -0.08333073900885649
Ni 5.577817786827368 8.16944826252973 5.407636207850835 3.166208385004283 -2.1627227619939977 -0.789387548777163
Ni 0.34180042601383015 9.17930896435067 8.300581906669299 -0.5499854485616141 -0.03699997426311692 1.0388483187802946
Ni 3.7379301673736847 1.6008472472425175 13.34353394555682 0.2717748601192997 -1.0477757031769117 -0.12706057579663924
Ni 4.527117638889617 3.6203933742916194 5.359124259512349 -0.06323268270740076 -1.4030263125233642 0.1222587835326217
Ni 5.335696236616876 2.800892277309266 2.9953432068265964 -0.48726801492773497 -0.4330429350355833 0.34339268156660213
Ni 6.115695524637815 1.6723231967598113 12.763129493796999 0.27677719842989756 -0.07253159151082347 -0.37618890216101664
Ni 8.538018036802372 7.904485404755374 11.551947020021908 0.7067569211591248 1.202369451396813 0.32201061634640027
Ni 3.3223585909855777 5.767402484624207 10.429336421118457 -0.7275651161537277 0.637663665905889 -0.5499502244483045
P 6.6734440930187615 6.869458674245331 10.506135244005842 1.1314447993617933 -1.1973498866950347 0.1876987583039864
Ni 8.183378139113508 6.812290829748859 6.662659970021122 -0.9049180124470158 -0.5847722172234961 -0.8303956157584086
P 7.2512479936468175 6.795003022650845 4.60767937347139 0.37438655884495525 -0.23447226701409943 -0.6576038564732416
Ni 1.5754321412899952 7.152917825099472 9.567958978596762 0.0641150853123541 1.48895849371081 0.09415893997261203
P 6.135427978950862 9.054502805210314 0.8563774470856617 0.2681925420846801 -0.6080031627269787 -0.6423728984561001
P 2.0789279916648504 7.6646516753348 0.7934789805137964 0.2576523046749885 -0.6377924781742693 -0.3872217629364106
P 1.15961148763847 5.1016927601770625 9.146877259636808 0.618415102088922 -0.021894228969930037 -1.2183174900856373
Ni 7.735813972001862 2.2940477215040054 6.422718307119733 0.2575530600929629 -0.42115518245906175 -0.04902168131434138
Ni 3.3118696706705077 7.1952978602159465 3.3862220013260944 0.9558176275103603 0.6622215577509112 -1.1300497187864795
Ni 0.5493039266426758 3.0228754695181768 5.518769870246277 0.2976147040005391 0.21179616557282233 -0.9383588086039645
Ni 4.920576689336455 1.4810041832028733 8.468949834164793 1.4956251070977082 0.1371459850570993 1.8748381407970292
Ni 6.825667201302817 6.765224452046582 13.549504237253068 2.0131984578772038 0.12457303348809512 1.457434712070916
Ni 1.4393068042898418 4.3913151798235255 11.258619796994477 1.1307248904766334 0.56282990862445 -0.5810065795334768
Ni 6.215833809615901 4.4991564097999275 12.513007950888856 0.4485225187284211 -1.0989583966983136 1.350337466770081
Ni 8.926541667399992 1.1788550125085107 10.637656341666284 -0.21686201013150394 0.16128967218283832 -0.9021126817877367
Ni 9.16712262861082 7.8918839402431615 0.46390732562543413 -0.27447914642434024 0.32809333220537046 0.03998322526115695
Ni 8.011164274169156 6.3306215277165325 2.3566251551585755 0.04102169382800032 0.04141712949420609 0.4559494073201116
Ni 5.656000372289302 7.31652468683014 2.456079861424837 1.4589130963886552 0.5362760693953216 1.565272177971885
Ni 4.000051699328303 3.5733269965893437 10.696835254437765 -0.24633148034553062 -2.2943642722931 2.1889007059409464
Ni 7.435721995001661 4.593999496659413 8.421315191298568 0.6437810916575364 -1.187781012059677 -0.15712217106871004
Ni 1.2991501056558403 6.774062082356026 7.288375266030311 0.3325007172444467 0.5454523365779509 -0.20074684973719623
Ni 2.7530233173137524 2.7422576444837725 8.923043515611536 -1.079364019506154 0.34899280136219896 0.14696502803005013
Ni 1.4310134539263872 7.207797848806026 4.82189965763709 -1.2381226977370225 0.5671221082419008 0.5737483553091667
Ni 3.572247661781197 7.095242600992332 5.652532663277486 -0.06639076872040824 0.296510929413399 1.9179449992888324
Ni 5.309801426305177 4.980908737586727 9.706946859109461 1.9347121914448422 0.6650400010363128 -0.8115743692868473
Ni 3.151408562525979 -0.04406453542389075 8.794843448130006 -0.8393029455503676 0.03472480507569504 0.8061290299015601
Ni 2.7279126391276303 2.396741354703091 4.442929523854147 0.045542721626805435 0.2750653579451134 -0.862601768177308
Ni 7.7634246479060005 0.9680249466504527 1.769713329264848 0.49425575909947783 -4.062156332742204 1.2854559356053474
Ni 6.173213922319839 4.825014045938205 1.8720305790436564 1.3955050644456546 -0.2843084738099361 1.0522118845713944
Ni 3.8350241746877676 8.196939012344075 12.847584213755164 0.8547416487029409 0.3036675950628383 1.3077304307328315
Ni 4.424516256528835 0.6365584595433432 11.20288368550847 -0.45527989205691266 1.273754330897703 -0.8884845494813407
Ni 7.576100095647591 2.0547398218617596 8.716290014298094 -0.8514642635032497 -0.6146970298073865 0.7492755112476257
P 8.050952060729312 4.892264907061213 0.6283564375098087 -1.34458153812291 0.029552773956452328 -0.22603956286571394
Ni 2.694241083146974 5.230557956202756 4.829001127169668 -0.9678786724399524 -1.3920140205732605 -1.1587614848988754
P 4.40661036881419 3.3845910065048943 7.54901524952178 0.6469306930301116 0.9782268484434958 0.28685232327771243
Ni 4.779340655894306 7.78260359718923 10.104104245663875 -1.081573368452647 -0.24435584467639856 -0.5346200218491374
P 1.2528309597438203 3.782487322274114 3.4237293471633956 1.2718753687074353 -0.4380663563921036 0.9801029824202862
P 3.442699809552059 5.123344031926815 12.51194153119807 -0.2409907848589076 -0.08189632055517508 -0.46414839819113607
P 0.8800776099541284 1.7161700202053067 7.202625344302367 0.25867354685065125 -0.010934130414000525 0.0005016222267668781
Ni 1.9471845694840977 7.084947407437699 11.937640394900386 -0.5266835406108801 0.4033873169526795 0.2652257461468722
