# total energy = -340889.31344564137 ev
CRYSTAL
PRIMVEC
9.07837278171329 0.00000000000000 0.00000000000000
0.00000000000000 9.07837278171329 0.00000000000000
0.00000000000000 0.00000000000000 13.28711622202688
PRIMCOORD
 96 1
Ni 6.909885304190489 2.3321703785907233 11.321473273462495 -1.4092882342726762 -0.1590343004897584 1.0533064031871537
Ni 4.772881780278342 0.6231394969363403 5.831302917272322 0.08675082043399898 -0.4143019069826543 0.2473792048837546
Ni 2.883981101817436 1.757645567057852 4.826584893537767 -0.18965665336130563 -0.40858737309638016 -0.3926305926568077
Ni 3.6317575765136687 4.471597827993576 4.506126510433082 0.7693519702825267 1.4415247257088788 -0.1901269081295048
Ni 3.688806070085172 2.883182205026492 2.587665742869985 0.2895370691987272 -0.7137166403064096 -0.45919953882629305
Ni 5.217903606324661 4.555009915666233 2.49110817163725 1.1437022765729077 1.310292535033053 -0.0017612056654808378
Ni 5.449783399896165 3.1180033913282896 0.4204666437719404 0.2380291311274223 -0.8261790065738998 -0.31553015082837915
Ni 6.086876355556153 8.069493074618368 12.26889768756469 -0.7880989118727265 0.37203399945237864 0.9262077750637274
Ni 2.230229332391741 6.678450350877579 0.37689862571035543 0.11283671888777341 0.6425559610011836 -1.9441463402745487
Ni 0.6607984022567267 0.2517741393405346 0.111854629104788 -0.5794376923844601 -0.3059797881357827 0.1736260822610042
Ni 8.379328853915284 8.732532019238787 7.1484812778294975 -0.05923898816697539 2.9576055295577772 0.05354476599567552
Ni 8.74834654435043 2.4321141828123456 1.3580628116709985 1.361392953253294 1.2694423337859104 0.010266414923014576
Ni 6.942640072619194 0.9646043264565408 4.762275517541298 0.441710123792278 0.415685160483426 0.7211206460799645
Ni 0.7121211662140433 7.606314503323319 2.0088123632698167 -0.5078975182526285 1.2438032930615677 0.4090393730321342
Ni 7.739131094817764 4.187272275771122 3.492691433304612 1.014557050333098 0.6570209873865781 0.5566931995990929
Ni 8.142319779811015 4.248578526103452 12.36972027825635 -0.011217723092690358 -1.5140794571481537 -0.04090059486910375
Ni 8.682909634474015 7.208509293296317 9.214295834970434 -0.7857136994700017 -0.048865615352451326 -0.1170489571969081
Ni 7.098497573834274 1.2067245243483269 0.2571930199600175 -0.7576850754675596 -1.0899759906940454 -0.24100081216123656
Ni 2.0424159595389 6.596263843509213 9.127597376407756 1.0011801148055597 0.680608544898531 -0.2928802746393472
Ni 0.09494616009191018 5.176342816450324 1.1324153209061207 0.6465730525803768 -0.7910489956399861 -0.06037207333015409
Ni 6.290004943026296 2.5299608829577402 6.761162496020897 1.0295182996286203 0.24720771230289684 0.5679721149470217
Ni 3.743003954652625 4.728996927012167 0.4500984520178642 -1.044584964153756 -1.38571816026222 0.5962393373228312
Ni 6.228843946655957 5.933624347284265 4.646252099727402 -0.33889556502719703 0.30083192538625614 -0.0959635972815186
Ni 5.388831206096185 2.9464947757088065 9.612564042001278 -1.1173669811124887 -0.6118258789071785 -1.602518721028169
P 0.508883638272408 5.876948066990361 12.315282724651615 0.8072477168870356 -0.07333506124872533 -0.8730291341582191
P 4.323520492117576 6.381378763490519 12.633868239483894 -0.4723432752971026 1.3724638663554751 -0.9956923522181109
P 2.4456500363952722 8.760484328549204 1.1114951190305364 1.1340858365290662 -0.09440705142767611 0.4110165513631631
P 6.570390481529776 7.990674643493639 5.623213907000227 0.2937174258286619 0.3223957675999609 2.0759755411044245
P 4.999922801241059 1.2731691335860464 12.353935711774369 0.9331052735145092 -0.3619401055514863 1.3977054145310832
P 4.137059796785765 6.550999077604135 7.952524598214275 0.1773449258734881 0.472112133122903 0.961539617595802
P 4.771347535304824 1.2800596184079385 3.676850761176147 0.676763460120828 -0.030445203863734664 -0.3014271357680938
P 0.2664284484307829 5.950083436852237 3.282289253687829 -2.3626697415377182 -0.8281947514523479 0.5227654365033965
Ni 0.6449593655389989 0.5118540817950998 4.469892001777458 0.578107917829443 -0.2715012947429389 0.7286246677664936
Ni 1.9298350606241625 6.802170413002412 4.263635914938222 0.655896901084464 0.44589845084201274 2.590740475900848
Ni 6.040485871445654 5.693238118563733 8.754987373925152 0.7319259642255845 0.5359865631793609 0.3924344174856016
Ni 8.846629006381793 2.6174763950566087 10.10370944800294 1.1810843167657918 0.09726226148828411 -0.5276459045241494
Ni 2.653099929234613 5.491952440736336 6.719945776469022 -2.409791120505553 0.07102775327178736 0.007328415340613185
Ni 0.6210886925604965 0.22817127835445086 9.569753160216566 0.18906478541357763 0.04987657311546895 -1.8792817783906797
Ni 1.8902442776093116 1.0222701493665005 11.297330249305261 -0.1328869526704292 2.318871513405845 0.2977594571085194
Ni 4.6564879648613715 6.988458619254359 1.5613157728460951 -0.06447606819619864 0.2900492329484553 -0.4124280869987091
Ni 6.051960934442849 8.221728305156326 7.828144538399652 -0.7577213280221338 -0.6797533959870873 0.08125328765453747
Ni 5.6630525295877225 3.309883875116846 4.654357270806434 -0.187953811737586 -0.4476478294329516 -0.35349017501192026
Ni 1.0655739867847163 7.339038134889422 6.763009037012693 0.7005885875648838 1.0253250874828792 -0.7517170308095827
Ni 4.859798119784002 4.979941303094834 6.773546304117792 2.8123050337143436 -0.8895351022330423 -1.6812767530646788
Ni 1.2848439207809783 7.71135127458721 11.365759390798667 -0.8284099527869475 -0.698393636796094 0.021402634045492173
Ni 4.946414872993059 0.3128162090294953 10.394430713739261 -0.011474319188186692 0.27387982227744445 -0.7069800929135244
Ni 8.368779784925774 7.701937002175745 4.390913791294541 0.4139324394583775 -1.0184147335162912 0.1350317669275739
Ni 7.753411374955888 6.594266601531853 6.891708586521988 -0.8356483795169156 -2.503265375706315 -0.5418458501736153
Ni 2.0932457678627134 5.626693647227145 2.357944786308555 2.919080891120018 -2.1882355615531215 -0.45345749413619324
Ni 2.6689689245820007 5.43972456302837 11.304306070829822 -0.8161902707923041 -0.4416304195942782 0.22632675508882955
Ni 1.6398899957472273 3.5526032456018397 3.6442439702212193 -2.434912083942897 -0.32207180860163886 -0.24776692724047653
Ni 1.7311457973673336 1.2387711797123313 2.4258682624467833 -1.3335836443505098 1.2352047527592793 -0.208262441387951
Ni 1.4270566279416395 3.3684575352892416 7.979298534758049 -0.3405829800319489 1.4292916739777966 0.7110969432953754
Ni 3.830501310006244 2.9078572218195133 7.0683473905115 0.01727087126530574 -0.32923747311214263 -0.44490394813922735
Ni 4.191148740881726 7.291612716299745 5.665786027584918 0.4018156015901854 -0.29427381255276414 0.046525654365365036
Ni 8.198006517488864 7.174783138996805 0.1678972389895114 0.26296780335063097 1.2514669802544125 -0.72331122597338
P 0.4497616443935003 5.613829593218421 7.824384276458641 0.6336702284757797 -0.5973102017895068 0.8287794203112243
P 8.932701057233388 1.6672612892096847 8.070833042417723 0.05392297527070068 -0.013304173308073862 -0.704266036416471
P 2.045021452482092 3.3224937346920873 10.351965717951535 0.41988428616643814 0.3748701833495931 -1.4480046770062676
P 4.281042786608177 6.433715581669977 3.606561461132009 -0.7963405830562285 -0.629236361074142 -0.2625548841829285
P 6.926099277697603 4.27164667094196 10.154837934786096 2.01242635559787 0.18754834876905122 0.4527542974215816
P 6.73767765387893 8.005345293654612 10.079938637123307 0.12874593391886216 -0.40402649319857514 -0.08753320712597827
P 2.425532362659682 8.5953396521394 5.4652302509165205 -0.10045814271776247 1.4553091810874808 1.2619920481554523
P 7.279338756511605 4.167790088119237 1.3091485399709255 -1.7191686430144455 -0.7855779452230858 -0.07428174143271077
Ni 2.763583724073122 1.9164263042579772 0.3225046482942165 2.207116971838657 -2.7771243720481524 -0.31302049703264795
Ni 1.9821174085678746 1.2747124569321884 7.17813850551877 -1.421700749004416 -1.516537431770343 -1.6504191442538738
Ni 7.02041449089212 0.9980581295773218 9.130148399115203 0.7540202250214627 0.19231774513323652 -0.11281743561406378
Ni 3.2065719946515845 1.704092246946729 9.115825450625744 -0.02928795033083988 0.033859628861922335 1.1979674656743755
Ni 6.596400019098578 2.2191537177900167 2.611196884712336 -1.411281610553621 0.28303963439984153 -0.8578966493921547
Ni 4.511896724073128 6.8124289740679425 10.407983816230173 0.0055507546149001176 1.0313520104032496 -0.38735417474921674
Ni 7.396177412187168 6.214245923475978 11.278914770436739 -0.0020828506709577033 0.40336289147264726 -1.4882236724273143
Ni 7.976929987340353 3.967875244558119 8.008383824971988 -0.02062101868446126 0.09026988933085099 0.06312315371273
Ni 3.3298018246547003 8.648402740128807 12.395417519806875 1.913779555057233 -0.4817910509735638 0.49840192005736744
Ni 0.3487647489474516 4.951934523548672 10.095470824846332 0.01782982909256929 0.14902396744160787 0.2672461190110107
Ni 9.022631416450336 2.468563848899167 5.944058120941446 -0.04984623409816577 0.608188025044275 -0.03571056602773205
Ni 3.7975558957524274 2.8584890314882223 11.592729600454915 -0.5714359051259061 -0.2730141318430395 -0.17546570657290425
Ni 1.5489973290320957 3.4680382046058895 12.538918448042933 -1.3651781313273392 1.5293620943388373 -0.9480966047170187
Ni 3.5075472822671214 8.66685907167414 7.865547433612032 0.13608926165781077 -0.9624991532955939 -0.1830823425778976
Ni 6.022211107352809 8.158915044968351 3.635355335584704 -1.964656030192126 0.19180995225888256 -2.0954681026113975
Ni 3.0121132530377084 8.62806718545023 3.2596214650820547 2.0342393377079033 -0.47273768252204396 0.21372089339936093
Ni 3.6271457632204918 4.577506123029406 8.894568260862009 -0.3053994901522805 -0.3739070481053754 1.1807454453691344
Ni 5.1408191443711875 4.65558920597156 11.442359067654 0.7792589449835934 0.15025218342175414 -0.8032727913996875
Ni 8.095983765936262 0.2976235524426223 2.5338663988607415 0.9365505517506323 -0.4444632610573829 -0.22789024292120752
Ni 4.926651255789818 0.41979575203499986 1.4744711524841674 -1.0075078567958005 0.7902000173761294 -0.27114056896941047
Ni 6.251730524041978 5.595799945186435 0.0046989656703707704 -0.060038601250135305 0.26617679720623194 1.0910345138655468
Ni 8.171007437304004 0.2032620395477211 11.428806873000351 -0.32484448625076956 -1.5023536840707934 -0.39127690684239064
Ni 0.3515191272016836 5.14712861334512 5.310926967094732 -0.4246300283815396 -0.5461370213498014 0.9894972791509926
Ni 7.161174658432883 6.332773156459675 2.1908464441099875 0.37030030459072355 -0.4663921999199903 1.2744834957542437
P 8.483857236312211 2.1289691641395856 3.710905552564661 0.8650026643093167 0.23982144714115472 0.1305179382176204
P 1.83916935322464 3.3557841271056295 1.4253889308905436 -0.32577831091894865 1.744024525715861 1.2700678831850516
P 5.149280187657095 1.190310826643477 7.9570429042694215 -0.8170464481450123 0.414089533861532 1.0176696278201505
P 9.044628313319171 1.9427081930055106 12.245605306922359 -1.0426589507756365 0.6894397700369158 0.6989307402464866
P 6.702290157389159 8.256144415775289 1.3891943670744673 -0.36044012396719216 0.2761789027242663 -1.1301451067137633
P 2.1383017311974317 3.6226701255166804 5.7432227303962184 -1.0673137732098392 -0.9007060312481973 1.4298537171288537
P 7.087894034609017 4.512205388742356 5.970286447290496 0.29944198701726493 -0.9079933089382297 0.5155550347978863
P 2.8778985921591125 8.570927908152486 10.017355967599991 -0.8238336462701746 -0.03351510103831002 0.19925432435206974
