# total energy = -340898.5212224211 ev
CRYSTAL
PRIMVEC
8.98561852512956 0.00000000000000 0.00000000000000
0.00000000000000 8.98561852512956 0.00000000000000
0.00000000000000 0.00000000000000 13.15136099177118
PRIMCOORD
 96 1
Ni 6.3300087685556505 1.9957417987270876 11.307079924961402 0.6678975250897659 -0.026688050814147588 -0.32201473011145837
Ni 4.628519016990775 0.5317814793393513 6.025427752992884 0.14694317365317922 -1.0770410277999323 -0.21474239268533982
Ni 2.756428313661714 1.520249827563843 4.78232135507524 -0.736485558571809 0.2925030938055866 1.027523637796095
Ni 3.2161595100754394 4.409000358421354 4.795932769893127 0.397835791006831 -0.5751272379345643 0.17014249458777794
Ni 5.011719701123053 4.5582964088565125 2.7174792519574567 -0.10835939984271016 -0.14998401736203198 -0.40813845848441965
Ni 7.173210217654951 6.064968966952554 2.5735898481396218 0.16187254126950187 -0.47210519114436755 -0.22911151692281834
Ni 4.942179999990479 4.599809966064483 11.16504515279026 -0.22674764467633207 -0.3391038243832612 0.4282210881669077
Ni 5.602434257584524 7.732771634973559 12.252149533228522 -0.3580978489872607 0.64158459822685 0.9956686980690271
Ni 1.8585044482428152 6.458395284873289 0.4401380553981449 0.795195670818508 0.12997337856806004 -0.799480671347107
Ni 2.848297276625847 1.6694380505776827 0.3776125280223995 -0.34788131346557505 -0.6386265440397905 0.8027693694007076
Ni 0.5569475009134559 0.03693358748742908 4.789002162387821 0.23816102871959632 0.18720819182081305 -0.4195289597095485
Ni 8.402613547446586 2.352785347570966 1.3259466114699645 1.1208922206569276 0.5207365789988257 0.13633865866445552
Ni 7.074664940187459 0.5711259082551133 4.811872358449667 -1.3539593797933844 0.9358697236335238 -0.47926314234538747
Ni 0.8244960871859174 7.303636469359215 2.4716533982716338 -0.1778879428611517 0.12864771777810102 0.4923063486825908
Ni 7.43431431837989 3.86685306964583 3.7651951739495844 0.7923062650858548 -0.5872998687413563 -0.0889218599433888
Ni 7.534530920877833 3.854030592127264 12.531510613506523 0.5210412547234382 -0.4958246462484945 0.009309450326383967
Ni 7.771805161491184 8.860475735224108 6.9910007454238885 0.6237732810770418 -0.4751159529462334 -0.11420068911483558
Ni 6.81774813765709 0.7800433341851486 0.37677327125979676 0.05006374942561056 -1.1181249423244357 -1.069674817242848
Ni 1.9213318923982552 6.469600351072064 9.136250655181398 -0.4508233989474558 0.14021074002535205 0.6272656105010164
Ni 0.16063769803427175 4.930175213750252 1.265659401648441 -0.4665001862527643 -1.0322338987875705 0.803199514959591
Ni 6.397984972079092 2.0249001305755434 7.0106612785777935 0.254076157287956 0.6555626576734968 -0.21069753319200488
Ni 3.3232411250640514 4.282455893884589 0.42617260721359335 0.5721702121887695 -0.6839586923176866 0.020833648915899602
Ni 5.8592971464042325 5.651271093823771 4.7789939805656925 0.7854607029189312 0.5514486633707019 -0.02062101868446126
Ni 5.240188035661984 3.0031104967851823 9.13068765880316 0.06239398885618932 -0.9501020651828217 -0.11685715290107618
P 0.1703466587622398 5.494229440290502 12.311146408241589 -0.11832036771016395 -0.5506611344724001 0.19305565174052558
P 3.9221056374535817 6.018962600522941 12.486269821768278 -0.1586324370656494 1.3113425735641222 0.38400145622689996
P 2.3931128031444233 8.408840581027782 1.3721344873921313 0.6853416887081423 0.6627136668959812 0.5142867096084239
P 6.214193132440167 7.793855869151002 5.7746049968907505 0.3393205683797575 -1.1921945677463401 -0.07797256002073669
P 4.7705816445790905 1.0763692620840706 12.439056686781733 -0.2094554332547877 -0.9155803772568684 0.6718122867631398
P 4.035234573654524 6.063387498106536 8.129908114749524 -0.5820152233036493 0.5049209521228079 0.15323517730947803
P 4.735079466109677 1.025681388445507 3.79967838328753 0.010937472848110195 0.5285725301034767 -0.402940459223248
P 0.11190239928343382 5.497742817101826 3.5419375995459124 0.7328219936772927 0.18916994353287422 0.516300140494027
Ni 1.4382291024135492 1.2024464744617842 2.581059592751523 0.11368441160004937 -0.6152665291576114 -0.28385698809481436
Ni 1.7665725859495796 6.526820769318894 4.760713638404677 -0.016937913405919214 -0.12410714959527012 -0.460083226982827
Ni 5.935207651013093 5.442184738267002 9.012627415200543 0.0734690157234283 1.526624126582384 0.09261936339963404
Ni 8.609642196379843 2.3465852708451007 10.169697415085588 -0.05016042290447491 0.09429186600605052 -0.0074389727765484795
Ni 2.299311932214985 5.3336654243274655 6.9916054775451215 -0.4420279121430129 -0.8004278657517246 -0.3173471494324599
Ni 0.5394264435108971 9.113304081362784 9.209687419032822 0.2538686692628402 0.337913917840218 0.316681490824003
Ni 1.6403516036767731 1.0089142244303395 11.523406891859768 -0.922403827936605 0.4936384372304531 -1.229343923103128
Ni 4.1216941943158 6.876828578921681 1.68253279233508 -0.2531323053174479 -0.785138286582506 -0.348472924302987
Ni 5.590321643922978 7.816230059074778 7.839341968272748 -0.42951332461577 -0.11667049081156682 0.985282983959329
Ni 5.25172556974316 2.9852740441752643 4.858283976271073 0.005096954906933157 -0.6286234100804916 -0.16425543967938164
Ni 0.6553049789554839 7.360802973895386 6.898190988208745 0.305876429788699 0.27748708001272854 -0.16563020853972119
Ni 4.901295436073538 4.643084704487337 6.737086936577266 0.5483348003320686 -0.9444098998940509 0.7619623626866748
Ni 8.229945903440447 7.244043847843357 8.998187526362187 -0.9312167982425446 -0.7523199545009044 0.7079853942495872
Ni 4.570930188387769 0.2644269824252647 10.418442696203636 0.4332301113457248 -0.21991596646647932 -0.7504409923106367
Ni 8.08924908985551 7.2290198938061865 4.663499131028633 -0.14061825987641588 -0.9240537048352021 -0.028143038093119275
Ni 7.303133274726391 6.158653024842231 6.94272191608997 0.02946227112517507 -0.677203375871724 -0.4256111613478864
Ni 2.4140043660250585 5.1815299184642285 2.4922879724647906 -0.6900092693871407 -0.15764281945887043 0.8213255351363402
Ni 2.2821494009883128 5.077467471272559 11.377084182567492 0.27023399799474107 0.229160882103515 -0.5716860734634993
Ni 1.0692885947507629 3.3792664560579255 3.859450717172253 -0.11917885905571735 -0.03955153704037704 -0.8279270996132579
Ni 3.4970050145202722 2.7207014947312183 2.8719024962763533 0.382883797682689 0.01850294390019394 -0.9013729754082347
Ni 1.1604836363316495 3.278762313769797 8.161905902026058 -0.6064826123173941 -0.00150923755567482 -0.255143936430838
Ni 3.6311423266416116 2.55736990828765 7.153906413553245 0.03372567438721934 0.35494310540836294 -0.25606876223795255
Ni 3.9723442301699814 6.7958861279845815 5.969547090455946 0.4376508661212399 1.3857924651435811 -0.2006182945791319
Ni 0.9041329277632081 7.233935027094663 11.416248899114388 0.15660152267854965 1.1693395175250376 -0.7981215862160512
P 0.2953096544529865 5.540945670577134 8.018529577021335 -0.512846891838104 -0.4615626397418309 -0.3632282282352906
P 8.469951772060556 1.7426169271797851 7.888475329920623 -0.375709648531753 -0.161782809769173 0.7912109751391471
P 1.7931969733970292 3.0437075209119384 10.32366059574019 -0.44800289877952515 0.5898717432335905 0.20022028780976486
P 3.95261181206853 6.188952530232982 3.8334373517789464 -0.5385687220842402 0.4420317687977549 -0.8541032437879935
P 6.796892517250229 3.944192287587173 10.355973778224081 1.4199297731469225 0.04480841456394219 -0.1089633519752962
P 6.224993845808993 7.64679723770822 10.110595408336735 0.5791630985668348 -0.6678854409049078 -0.16885205791112853
P 2.348705876797715 8.44544799056572 5.821976278761898 0.6248230624977948 -0.16052991119867838 -0.3857066118434648
P 6.815564632375373 3.978948659725795 1.6260339192492448 0.3873791144498812 -0.5722131496115628 -0.582810208401119
Ni 5.205773117024208 2.6437846008567094 0.6959622067258098 -0.5233310791988793 1.3762199909637978 -0.5740887693677209
Ni 1.4025112691014965 0.907080210612605 7.105443379041239 0.04392601195898886 1.2648991944999182 -0.6262325412508118
Ni 6.942387651083879 0.5528284934190547 9.162500342339762 -1.0002632594182452 0.8268166401578987 0.06908785593659715
Ni 2.800592628310454 1.4564788934718584 9.23817362662172 0.07966100346675313 -0.16751919803231796 -0.5550289245227924
Ni 6.343738793536987 1.8034136215670429 2.5146325098477043 0.368117695117108 -0.026052217002361582 1.89645803305965
Ni 4.03648357461814 6.735296102821519 10.33564112081062 0.4278115114333148 0.6303123677471403 -0.2439886911449669
Ni 8.203285573519224 7.199798662628628 0.24115782490453716 -0.9990399285341053 -0.3570655510680044 0.5611134401539756
Ni 7.649753506176061 3.9081959001033786 8.190759621409287 0.4714328476676913 -0.3331188104444199 -0.34426042888353614
Ni 3.1988711801905616 8.3270714531939 12.349351460738742 -0.02390586008332012 -0.6175861784297235 0.5309855104203436
Ni 0.12174704284989547 4.853240348638858 10.14727470282222 -0.5455819201772797 -0.3669555564882067 0.04173671761715393
Ni 8.6162556115541 2.335847456805377 5.654467278304047 0.08876605109181487 0.10101118700775508 0.5594581639387397
Ni 3.5921537282162035 2.6796641753007417 11.46163435930957 0.4244757621918625 0.1764339840234445 -0.3744546930787293
Ni 1.1069293504096784 3.321533857559827 12.462374366642052 -0.7753881491742775 -0.30176703560601575 0.5809340744243284
Ni 3.0656683723873237 8.217087483448108 7.880347838038673 0.667266062153354 0.14816316210320934 0.661651287069738
Ni 5.671848160058891 7.900587045020326 3.6266063864514417 -0.7032118841203437 0.20083041058993797 -0.5091930971356005
Ni 3.1400513218608266 8.370957213670899 3.6849589926221262 0.026263561682219282 -0.5262806487455065 -0.6796760057819327
Ni 3.1962833220788958 4.246594290677443 9.104135156303256 0.6903823364558432 0.08742830611699781 0.28929718527377923
Ni 7.095924913424268 6.081960771428803 11.46442259671252 0.8436432247969341 -0.8933261938443583 -1.3636053875235807
Ni 0.6026780088568598 9.060468644916273 0.3646175266297225 -0.1140937312233261 0.13468081134605836 0.31292562332599655
Ni 4.568396243986763 0.21960492050647681 1.4022767444601267 0.03582266612556411 0.2502940645377044 0.550716927411
Ni 5.840741844318852 5.4134667017222675 0.3253656495839263 -0.4286658890138101 0.7985933836461472 0.4044142155552971
Ni 7.935945453594647 8.604394595208966 11.174488139212306 0.07926839601402477 0.7661972267036289 0.9776532353282131
Ni 0.20625229149975724 4.74406508455296 5.720525950851692 -0.5483186023821525 0.5880292907082131 0.5751696611367256
Ni 7.862955274979853 8.657292930984578 2.373860217067844 0.07633116776257177 0.4085236097379803 0.3628397345476203
P 8.472225133526706 1.5460924662067268 3.511886995786039 -0.018669551385045263 0.7235179426675474 -0.3131562512795639
P 1.7466514698608195 3.1557941253734594 1.552044539863558 -0.4029800542119317 0.5517715939277594 0.22469821834647108
P 4.8376862431135335 0.9591069413992178 8.226807226918208 -0.20098621944151193 0.5359086587535739 0.1117555700084527
P 8.54877361704504 1.5918382497014845 12.277847503414467 -0.8834536719256528 -0.24962352083324105 0.3001115022804638
P 6.207732472779446 7.564444044675525 1.363006896177444 0.49199653075165584 0.7908067977221929 -0.9080573294069457
P 1.8774641031581438 3.1968943441330393 6.043142001191974 -0.39325768471784533 -0.3279928020717641 -0.4471104688722428
P 6.994198727027853 4.086910865321848 5.944467330818897 -0.7175378138247126 -0.3252129253337818 0.5294752444234042
P 2.399474621002269 8.410323208070924 10.153731768235563 0.22157818466025067 -0.12222330230899597 0.2042039550478612
