# total energy = -340859.3533518627 ev
CRYSTAL
PRIMVEC
9.40209840864090 0.00000000000000 0.00000000000000
0.00000000000000 9.40209840864090 0.00000000000000
0.00000000000000 0.00000000000000 13.76092139971979
PRIMCOORD
 96 1
Ni 0.641569105993001 3.3446084528420186 13.028826185611244 0.3980329946193016 0.87227528671133 0.37029439105345263
Ni 2.4213035887990872 2.403007105372807 10.947087841300945 -0.20269163216839287 0.12867368592003 0.4822898449868533
Ni 7.018798061914673 3.294767929387388 1.139514577929052 -0.5244806194222903 0.5641941359618283 1.3094512700786802
Ni 9.124275764397126 6.89139022691492 12.546864280902671 0.2883754447904582 0.15544272648375812 -0.350722382458796
Ni 0.4827056106895674 5.390147778221422 0.9390232920964022 -0.505333099959562 -0.042597008734920186 -0.50291780564985
Ni 4.23089725560578 -0.18162221461569122 10.385835220416192 -0.12127533657342984 -0.3532806301042754 -0.20477371150840215
Ni 9.323572043527061 3.5455030886947028 10.959170477915082 -1.4979419281563429 1.093940374658432 -0.6992580416789183
Ni 0.8812351748903672 5.972128265170704 5.851983551161085 0.9951200246544086 -0.044354357745659094 -1.4463411732609155
Ni 7.596989503221205 3.343837480775752 12.862085612294171 0.48784934135250174 0.46230620277607476 -2.520889773656297
Ni 1.9257942005504718 4.484424838128719 7.355886793693039 1.845113874259719 0.09852801557458514 -1.2860727432537398
Ni 5.410822992535086 7.56991145991818 0.8830300354690294 -0.8536615282648846 0.22027694935032383 1.195592794794612
Ni 7.762062144287597 4.741891899868313 8.906316320004516 0.7054631420483658 1.4863346829347177 0.6360667537324143
Ni 0.2741473244562248 1.2238993510016138 3.0124304370418358 -1.2536092234083958 -1.227180596903222 -0.41295079227139847
Ni 8.768067865585182 0.3693210054073356 8.29139558141907 0.5315676081760587 -1.2766794749642982 -0.3632889062698969
Ni 1.1171009156269407 3.2498917138716465 9.04830116831573 -0.8385673529359234 -2.2489210523586367 -0.0671988664440004
Ni 5.41509154519466 8.94348281485759 12.692496203171263 -1.2144001573091021 0.014985674775554837 -0.3411177694894964
Ni 3.0015352854517157 6.510661655556348 7.987485914575441 -0.9593081571621221 -0.10233093426044311 -1.1776567791414816
Ni 7.369280082819831 8.125603679827442 13.622527328387452 0.07892746773483826 -0.6622524109888466 -0.7990965485348108
Ni 6.03305386260251 7.61806900776474 10.829734610297113 0.5429658227106713 0.11765162377791351 -0.03780138711848974
Ni 5.544690069114414 1.5655998120300272 8.965447056857657 0.9630884501401608 0.41458678521292475 1.2582001852131879
Ni 3.941190398558522 6.706648396060359 12.33172546602079 0.3876202839264099 -0.21239368994750518 0.7735541812893324
Ni 5.939540592223383 1.0602558288873267 0.8583043971779548 2.3787051977340257 -1.501895513487452 0.11233483955069039
Ni 5.27703113274271 3.80746435345473 12.29651178699898 -0.71288180310994 1.1116329068421889 0.38872071607944025
Ni 5.016621214213586 7.520315391021147 8.47726378365825 1.0858712244970525 1.791210182262728 -0.6196975683457714
P 2.7715599593433873 6.021978190723703 4.67212174850069 0.2645361762790154 0.06538366761213255 0.18057911654006964
P 7.922189281611837 5.294425014725555 3.4163821913720986 2.503877298258701 1.5830351583822608 -1.4158131798753877
P 8.467210119872165 5.893648950083778 6.877543756646738 -5.074241267385726 -1.927797980823512 -0.19311375867197064
P 3.057393151862574 4.427777195454856 11.441820616224273 2.270264808141735 -0.3688841409694873 -0.8315343573485422
P 8.929266842123502 6.041299502872215 10.465607324028872 -0.42955729047982794 -0.8534280720978398 -0.5911727214332012
P 0.4785762090858561 -0.10815233753982441 11.861900730096899 -0.4505009826110306 -0.06845947832397888 0.8302225805156541
P 8.139866663053377 0.1592047914742322 1.1888389261832182 -0.11148277596304025 0.27199880320464764 1.0450212803602261
P 6.329436209491833 2.500337627689791 3.0845520532115724 -2.2679114774182105 -0.12894776551702308 -1.0374159572091424
Ni 3.67812908828931 9.333839134946126 1.1079291686678778 -0.20936030243782008 0.014022025310704882 -0.7516424688179055
Ni 6.824917391445341 5.39426589730709 11.172601871733134 0.6084788168118166 0.13414396500598186 0.473191996450643
Ni 2.1823586608466314 0.711345838829483 6.732379118667091 1.9591217306374582 0.9967593600300446 -0.2963553776721412
Ni 0.41022389415229354 6.6539496347015215 7.9885314279140855 3.044457908566647 0.06737678678276139 4.054289014178985
Ni 3.2001546134990764 3.536533486850576 13.591428007611961 -0.25379899236716935 0.1310414148212582 -2.541580469236429
Ni 4.837031733265295 6.263743748186891 6.270741730003016 -0.47070831079684095 -0.6931704407239417 0.15655164327722068
Ni 4.184986809269437 4.038173043235849 3.557679746292532 -0.3586156691639437 0.5297356971736426 0.028689654625208658
Ni 0.5617481114688032 7.887862220466232 9.963485439997264 -0.020366993692126217 1.2683627275684866 1.1902616123896854
Ni 7.500599190741132 7.354763242937932 8.740111666294483 0.2929687205880954 -0.04141070173630288 0.6808180898061759
Ni 2.080035624295653 0.6106399631979904 9.201817690276652 0.5541876595684196 -0.6558341661673286 -0.3862912807023412
Ni 4.5391356485385455 8.685103749576193 5.765372361194719 -2.1552750474667013 1.4836591929850835 0.9175858377226712
Ni 1.9326107218680735 1.494613969343278 13.223887759635733 0.21021365157705083 -1.3342485316280184 -0.9783898563839214
Ni 0.43011967451115846 1.1638857571116112 5.37681842336354 -1.8062832745457664 -0.5819530026071462 0.7325741393325448
Ni 2.439496649143307 7.737155985707836 2.4753007799426987 1.4677780029784528 -1.8247959886379734 0.08027292601913917
Ni 0.8446215234213952 5.738871606731557 3.4678069684019226 -0.33558835503083495 -0.09030048545847029 -0.8172012285553215
Ni 1.0120606726472903 8.832998756922226 0.6270231196061574 -1.2960535086155358 0.7427279399370951 0.4376130709047689
Ni 3.423501460257185 2.7715129488515413 8.809204866579531 -0.46133406867079263 -0.5570955772438342 -1.462084295027785
Ni 6.499538973185696 9.063839076080514 2.961749365993007 0.5382434775343375 -1.3402037207701885 -2.1233404035416337
Ni 8.287441999054861 9.054220729448918 4.315934534305158 0.8630308852949267 -0.8288904919677917 0.3245328685476217
Ni 2.36628250914308 2.0371244473390537 1.6496038001186402 -0.5531682171649699 -0.043412305547363944 0.10276287959153914
Ni 0.8998522698710336 3.406812735652023 5.060454737020194 1.6723262287396101 1.3293680636072653 -2.2107152307128763
Ni 6.408094164447773 1.1114784608022152 4.758168812564908 0.7616299190479205 -0.895923008037257 -0.1404259413599517
Ni 8.360947604104531 7.981563532812742 6.491191790253604 0.5102253950548568 0.5068191975867853 0.00588396958460277
Ni 1.8645677359708543 8.14308218069561 5.098682728779141 -0.522202879131707 -0.08647776927827042 -0.10940661016030191
P 7.32387734979542 2.083693040561235 6.295140175270846 -0.0031817401620912946 0.9561737252981983 0.7924636165993255
P 4.213766632377269 0.8538675469575738 7.53710471807886 -0.505809268265032 -0.7317333885988042 0.79924670095943
P 3.3131960421908357 3.5268963360222423 5.4642964867995385 -2.2393444644137954 0.693481029985825 -0.0932953064207361
P 7.511966327669381 5.595546019192907 13.407899047447016 -0.6049535772673775 -0.27154526060699685 0.5543244422566002
P 6.36963958211813 7.910305029273288 5.681403160870072 1.8843463373977805 -0.49284422346393186 -0.39885446207933245
P 4.435026213297437 4.812652092194204 8.11147138576884 -0.3934214639892192 0.8831587663930531 -1.469399854852592
P 0.6269563647077366 2.79466091503628 6.973333275041024 0.033772211354438614 -1.2747269792236178 1.1334602871299253
P 3.408458102866616 9.157869461869941 3.9606818886875153 -0.7541852898444172 0.047856457361646614 -0.22876930309205118
Ni 6.579541428208417 9.463588092439787 7.3538361960387375 -0.8198034420648591 -0.10577981204099203 -0.48869754828540996
Ni 6.493521630229468 6.050137475339175 4.509467327134832 -1.8145144042063073 2.1032670298305263 0.5615106755923942
Ni 4.596667088459104 2.775198571412231 1.5692130384332745 0.36431863308599194 1.8658490499245415 -0.020563683083964585
Ni 5.509356983443315 1.6329000321560867 11.614768454884626 -1.449013577886756 -1.4635768204129118 0.6223167511361734
Ni 8.225397551917132 2.64576928526312 8.130847230087893 -0.6178533160481812 -0.5997568635577865 0.6542889331673958
Ni 9.217807838972991 2.0881966456800365 0.9267676568722728 -1.2308739865944092 -0.5893400390998367 -0.8495801591066595
Ni 5.031542344325357 3.9457316120708 9.903239614277545 1.6755971861813979 -2.123410851768253 1.0350844808624884
Ni 8.189716588606375 3.3077616293334926 3.2418942889988847 2.600832312919211 -1.3024275304626796 0.7452915868992132
Ni 4.608015421190615 2.0210938696197283 5.79468246265057 0.27938429703544143 -0.6071063619443221 0.39476100873624914
Ni 6.057941216985532 3.870242164265249 4.850283990916549 0.11001519027857828 -1.5879943021597491 -0.40249385860413267
Ni 8.54108240675823 7.342813175910798 1.8546560438701432 -0.20087540489526048 -0.44255498829107653 0.5825659536007968
Ni 4.520566504259562 6.054424832195487 10.076833377095856 -1.7158930575869673 0.46511076210440544 0.7096234440736423
Ni 1.7468722685863876 5.283678416289668 9.76597461934762 -0.14627905770661903 1.3331848662501942 1.242326194295409
Ni 7.236080555224708 0.31365212117369684 10.603353706395293 -0.4358845182494364 -0.594363460456357 -2.561108769077344
Ni 2.760813360907499 4.489389146067607 1.7665029097712437 -0.8134235066804443 1.458136880344263 0.8883603651986507
Ni 2.5341663776218337 8.652591293415824 12.37580250317516 0.20191695878589744 0.8723609044466009 -1.2229375053561518
Ni 0.1163960973898564 1.2577092967369183 10.285600389912993 -0.26538232632939457 0.5090853679131425 0.8883261695266056
Ni 8.251234518235435 4.304600304721201 5.603296168878561 -0.07372226938481496 -0.376553484589287 -0.45120649331848744
Ni 2.207622099164419 1.6592447117863212 3.892166917452167 2.803441412676127 0.5138650486899731 1.626032230769077
Ni 4.721686790473104 1.0660945319745414 3.066909955831782 -1.3029260673656529 0.03781912773030261 0.22674558779380305
Ni 7.847555424757875 0.8772731306376259 12.579298699646577 1.3151418927055545 0.24433604718205665 1.8763563772137688
Ni 1.6805968771825606 5.414536821390882 12.561065210279368 -0.4123542963379802 1.1392699518331668 0.8844350620023155
Ni 6.35270640295537 4.168326290959381 7.093699878572155 -0.8091331068352066 -0.0936981982861096 1.1399587503700754
Ni 5.238623560904912 5.339686716274431 0.39935600864744414 0.46902526666746325 -0.9630154308103801 0.27973036752095054
P 2.4016720074043945 7.299619936003126 0.21306565219149187 0.6019387017004536 -1.6896732046584901 -0.02054260003804204
P 4.322389074835549 6.011212788091077 2.369933343939804 0.6297739787451669 0.22745521226631793 -0.5722679141088983
P 2.7503582275210534 7.6029034230953725 9.774203335840262 0.9340244428946689 1.0353104808303653 1.044889382768052
P 6.832871566665605 2.7480641155189915 10.561878229859657 2.4459922530164584 1.3947193353195657 -0.6158054323802169
P 4.267189355310529 1.5953480512698779 13.481657568942813 -1.3230917436802505 -0.03601215642855088 -1.2143423074879731
P 0.5715225329333257 8.277438166390132 3.1702277343902128 -1.327822059276384 0.6865899592929466 0.4751648039062978
P 1.0757034765077675 8.481915001721447 7.277669797150612 -0.3817391425552845 0.7364102252491833 -0.07447457416980723
P 0.7874520642880471 3.514071873846782 2.1980178556803773 0.5425197363121883 0.4793191923943036 0.47598884246948997
