# total energy = -381168.36220390187 ev
CRYSTAL
PRIMVEC
9.22980861603739 0.00000000000000 0.00000000000000

0.00000000000000 9.22980861603739 0.00000000000000

0.00000000000000 0.00000000000000 13.50875787292048

PRIMCOORD
 96 1
Ni 3.9654025504260986 8.806852357965743 4.436829778289827 -0.6746952647378897 0.8725236552767102 1.0337611340653743
Ni 6.253370506161441 5.669068260374893 1.089337974702034 -0.06500391567521063 -1.3005855921579343 0.38662192456888256
Ni 2.303880145286665 8.224377614227434 10.54623281122593 0.957862682964847 -0.4114649517544914 0.5179243063610113
Ni 7.179378715735143 1.9241289115861981 2.8726643143373436 1.05539799560886 0.8836537037516008 0.38820161035117656
Ni 4.597099861958609 2.6941902797102824 9.64533429519885 0.5739584144374438 -0.46437902614470344 1.3525624994458578
Ni 8.966112700603833 3.7229262559349228 7.326434482825834 0.398061790974708 0.40843824911302556 -1.4474773437478878
Ni 8.655105079303743 0.8991596201387592 7.315491622076387 0.5658401562056836 1.5707054331723143 -1.1438233755318041
Ni 1.714086163547079 0.4936544522706277 5.231414747131929 0.15287753685974317 -0.9446173879191667 -0.08166492127065936
Ni 6.18095343004794 8.525075539629132 2.9922438650270315 -0.18147128933703585 -0.5523632047651713 0.5851506836088375
Ni 1.8236624479747463 3.0210547117117486 10.912144870324743 0.3827501003183021 -0.8852264475553594 0.6484373594826253
Ni 0.8201579987666084 1.9411394483281281 3.407503094332423 0.03394987458288347 0.21664449480405917 -1.3651886728503004
Ni 3.2964629623045014 8.292816642953104 8.008437018669001 3.240530492756626 4.4493744961341894 -1.8793802516417568
Ni 8.011178271741358 0.47788347878666926 12.841681526608227 0.059472958554652414 -1.3016271460485713 0.32830519110586037
Ni 8.291625997679251 0.9227833145451452 4.715271866878821 0.8249641603301923 -1.5343834588128284 0.3848990283405048
Ni 6.3316946596025785 4.3604014274785285 3.8171699827740415 -1.5472741987325676 -0.2629423494293342 -0.7558451940453434
Ni 0.15083075869538481 1.7255126662527271 9.40570170465243 0.5862667994911517 -0.8526775670850606 -0.24281883920658182
Ni 8.943915011583572 7.0545270985305395 10.800454036809949 0.4823176129009951 -0.9040361240626946 0.8554613004777848
Ni 2.5772670678563667 7.434499847630792 5.954309025775665 1.1549315696298237 -1.131826351070928 -0.1532277211103103
Ni 5.06670327969743 9.064391699642394 13.460477412064845 0.02346645855305636 -0.22381658707246616 -0.257129342291983
Ni 6.976941329755356 7.750953055842298 0.8930799453954553 0.0277278049325716 0.8120713635279241 -1.5268760946921898
Ni 3.6853240168211827 2.162424102906406 1.0198467478273787 -0.8802801592936775 -0.21112639319930737 -0.2984397710049957
Ni 7.195835463977607 2.876248248909721 8.377280464891655 -0.5050685334442657 -0.8565013117065249 1.4058846079077658
Ni 1.146859063160732 0.6943584802470857 11.653586448796426 -1.0954418989046228 0.795033948429663 0.14653539669179924
Ni 2.9381618031500167 2.678102723800796 4.889899840377091 0.8519841405624616 -0.21495579424772657 -1.0487627496805292
P 8.366064401815802 8.991910014870623 10.843642155921636 -0.23911156555832366 2.405126625150348 -0.24298056159542666
Ni 2.1687649812252916 3.9944302976064403 2.3610606538181913 -0.31452639215421313 -2.309821487388435 -0.5597980637766616
P 6.2862932324546925 3.6331017613215417 11.172755892211766 -1.0728431876685007 0.978147144245496 -1.3316442612359518
Ni 5.280345652983078 6.928410997585488 4.826895322792848 0.9468424205949435 -0.8103572090502946 -0.2790274279166549
P 8.24623380033969 7.874364822948291 4.7016283642136445 -1.424623836188482 0.6906924114970944 -0.5928112854778887
P 5.243463338918644 2.9037253882915577 5.349764887352802 0.1851443673132489 -0.3299751226091156 -0.33922183801836414
P 2.790918670950339 1.1420041839820805 3.1745445781854023 0.6956289295667633 0.5786383364116164 0.014382236863601036
Ni 8.266271714212035 2.6401589817790523 11.207608571425656 0.4511514717108359 -0.2666251975975602 0.3450582421944831
Ni 4.045923398248451 8.95738130192892 2.167682324708836 -0.5519981081162687 0.2237757065322017 -1.4123473328139742
Ni 6.7532569250127255 0.19536458386077346 9.301306111637269 1.2117184967118808 1.9268240469460172 -1.2489213310144232
Ni 8.57907914813539 2.217323002820133 0.6064334801868732 -4.481309654279889 3.3774358225578283 -0.17717986105053357
Ni 3.679647684701657 4.603819162418796 10.816205627696425 0.7246381723149198 0.4604724920014457 0.3526465960647024
Ni 2.9774715568037764 6.789714667894235 3.4508388903773004 1.1578027205300319 -0.1457473535728651 1.0129483110850814
Ni 4.809237776487375 6.160343268059482 7.2456385867154145 0.9539530634977959 1.0503807448999263 0.2071578954698626
Ni 6.093934797165187 3.010745015813357 0.9186862026299295 -1.4188200850225112 -0.7203331171816627 1.0789457010218129
Ni 4.673236550826856 9.101800112781321 9.983687992602569 -3.067119354719905 -0.24108874388935253 -1.8361252976078635
Ni 8.480800149096828 6.20650153948997 13.28640322706604 1.7955283500221078 0.9054880260178728 1.0614696557242362
Ni 7.241098444000626 7.754626519555423 7.226725786477819 -1.870634901348959 -0.413409734185688 -1.3164361860369456
Ni 0.6803347094789424 5.640621991118991 6.331568211228533 0.07125992388725147 -1.461460031180225 1.680401549548577
Ni 8.647278201844625 3.9233884629332803 4.150160238560433 0.44886524677982054 -0.7853195493553765 -1.45577943585568
Ni 6.1804734800150705 8.84696510494373 11.387949796276748 1.658925639062988 -1.759624179926331 2.6595102863763938
Ni 0.8726534565926529 1.117305216905898 1.111431366888229 4.415215333753976 -3.542230936790764 1.1339079161903054
Ni 2.8014221928235434 0.21784655097742706 13.334453609203038 -1.6828135014241792 -1.9025991129603816 1.6823509599654638
Ni 6.078364110521869 1.8072056997322825 12.149492974298214 -0.5709887902861586 0.09134281068005559 0.7820647898635048
Ni 0.8267416210444264 4.710146554316263 12.01553984310489 -2.132378602484502 -0.9187577465435854 1.9299798189661796
Ni 0.6636379862200432 2.493063526512566 5.587411223147803 -1.219684545636493 1.2520405933696954 0.46398821846418803
Ni 1.6996230539026929 7.052967260923711 12.734071191353662 0.8842265455359353 -0.851526998420385 -0.868348440853098
Ni 3.813322998664418 6.845259654390672 0.8860865196280325 0.41853599966865984 0.11282849135765731 -0.4702943631878739
Ni 7.885025251563009 5.021495678524357 10.57462831653605 0.12032968483070888 -0.5979972005542024 0.05325525977971473
Ni 7.953196615847271 6.3730534307043625 2.7859917992667564 0.40729436531656954 -0.012762441871990925 0.10979124719323026
Ni 6.436665269676354 7.108650694545013 9.673283077786063 0.3088591665661068 -0.5218264696288948 -0.2412509804988297
Ni 4.865853420749446 3.4302674935838047 7.519987255312523 -0.4005349351055489 0.10249857018655896 -1.3444151877483748
P 7.072515994954859 5.208030104761146 7.269035227837018 -0.08930546853505264 -0.26163648613371715 -0.3394632646052089
Ni 1.6271782883642192 7.271916773995907 8.52289084399874 -2.726752347353504 -3.120219319868678 0.7133811113438617
P 1.5046248934323994 0.34814098615094874 7.452052174121366 1.0987280258550627 0.06167922217735184 0.8288660664877595
Ni 1.610970744946515 5.729468126049982 10.475014687213775 2.1952068506646327 2.174839085641558 -2.7444726474514027
P 6.485417117246008 0.8761543228901103 1.1576164047628585 0.057926182892822815 -0.9298659406416051 -0.28894417280973467
P 7.750168522134722 4.028229855690514 2.0506972731391464 0.6702991925527231 0.4487857996921368 -0.43126116054481206
P 1.6686939662075184 2.601476855091354 13.350758988588982 1.2338454105179075 0.6847127968748917 -1.5139668428296893
Ni 2.2007370372611272 2.404992695480827 7.2288200299866325 0.3309709108634816 0.0072780217186519825 1.2809950716205163
Ni 4.99915954237923 4.63435136835602 12.763263229122181 0.450849624199701 -0.47563660133639374 0.4821042113386084
Ni 2.5189162196293022 4.299807735828627 8.765346832911602 2.0592505150402602 -0.22060219390022653 -0.26966732685799366
Ni 3.9307077009345552 6.7261120587305685 9.308196163551457 0.3741968114316523 -1.7040011912453878 2.9536192912165196
Ni 1.450732042626036 6.049585568166288 2.0649896313295306 -1.6296744555073548 1.6766022304071448 -1.370260430946253
Ni 4.234220717875206 1.2853061880272252 6.4317494737627605 -1.154335845027354 -0.9024764928850586 0.3228994467092568
Ni 0.49671782565350703 4.2909840390704685 0.6512165101770214 -0.9935161705023987 -0.13624172807527504 1.8264700339062867
Ni 5.995295835601973 0.8211335895065011 4.775818486506267 -0.0262753887567612 0.3588424404627691 0.2872739841961633
Ni 1.4491445155942333 8.612278768678374 2.689701823922111 0.24176288713824165 -0.4322353515326234 0.16900940942459924
Ni 2.8241736703432703 4.792402606103609 0.06328141183397672 -0.8703544155395332 -0.7314281986535596 -0.3744423517835551
Ni 4.3206763324501685 4.824411581372742 5.463792708335344 -1.2993267800501687 -0.2723762411487245 -1.534580662425299
Ni 1.6052759532103398 4.56070672773537 4.384240176418873 0.383863645097455 0.663996904483779 1.1595459284733836
Ni 4.93178194161087 2.3318095452763985 3.224756581431982 -1.4913586185118703 -0.5795207390165698 -0.11853274083128618
Ni 8.320469148693105 9.08016544206885 2.21884038330867 1.2479885347875086 0.03236478948395072 0.2538779252342208
Ni 7.648243748808009 5.664361058129432 5.1284110092120905 -0.04524601632199304 1.9959756662410142 2.1536467678346587
Ni 6.578001324548394 6.2828320543330305 12.131756051641153 -1.4328084288818033 1.0286127570952157 -0.6822170270362315
Ni 3.6723561361253547 1.1808801366445916 11.6521945937011 0.9685399601730352 1.1051861227755804 -0.7064643296193704
Ni 6.459988995312195 0.9318229888180949 7.083465316570133 -0.8923054658893277 -0.12568889226009322 0.5780269280798624
Ni 0.3382374018188322 7.918455617314105 6.600041183846307 -0.7133101488966103 0.8297448695482871 -0.8655611079159481
Ni 8.564966771207331 6.254081201402422 8.415185441718435 0.34903265346119894 -2.4939119595158727 0.30134228936377133
Ni 7.468087120123404 4.024962503543664 13.058902296581259 0.9679563197554234 1.776566207097308 -1.4505392705026632
Ni 8.786491400802044 8.376983265063608 8.799361445529634 1.2110939757540047 1.8279720723731099 1.7006232759120905
Ni 2.670497361741463 1.2799990482406762 9.59348769289801 -0.8188464774682284 -0.5062101032478766 -1.595768289678213
Ni 5.9643759777151235 4.799057297905525 9.11978900920564 -0.8521551189226874 0.2587360246574705 0.6906764706574944
Ni 7.412108332635719 2.883632095569267 5.970708549206517 -1.437228155216054 -0.3400744158266466 -0.9192400854966427
P 2.689427698614875 5.281434770365361 6.925804499714668 0.7805308697174815 0.33562692157825424 -0.713859336531861
Ni 0.793399861453245 6.824751020293783 4.517342319284688 0.3481705625712197 0.49275577751518357 -2.7081635286077232
P 5.243564866810212 8.403943535179277 6.436639426213045 -1.1818728741053581 0.5185094894405199 0.2634545131790624
Ni 4.310191270193614 4.276040979393211 2.026583475910733 1.020814086986403 0.9985241652399514 -0.4186578699585048
P 4.451776529890413 7.189300759683908 11.973014424230897 -0.1498058399129549 -0.05351365564742397 0.03431291434925703
P 0.588614412235723 8.084269123862542 0.582413827003369 -0.9132221614373369 0.7350951059821856 1.5621575436023032
P 4.9232166794857966 6.220844661626139 2.7429393583374395 0.8403586405083914 0.7048766734172763 0.3427807590142161
Ni 0.4206143640952282 4.109765982428553 9.247960588464544 -0.94534372456223 0.04821126959790407 2.4566106519622535
