# total energy = -340885.1205010536 ev
CRYSTAL
PRIMVEC
9.15524348501819 0.00000000000000 0.00000000000000

0.00000000000000 9.15524348501819 0.00000000000000

0.00000000000000 0.00000000000000 13.39962426652310

PRIMCOORD
 96 1
Ni 6.799809956327034 2.1789937414831853 11.46246746525011 0.7145699894456403 -0.31414149801096863 1.2329792058628701
Ni 4.868685278758119 0.8888752722237317 5.833593017628642 0.07640804374709421 -0.5094741187111289 0.82378813774422
Ni 2.7859497679757768 1.810952950711462 4.655766357101836 1.668404267977385 0.6164201831460803 0.3578014007927644
Ni 3.7823973208813393 4.461606529482648 4.859922795154944 -1.068562815125592 0.15497170038461053 0.20583557711401326
Ni 4.084520358082008 2.41300176666043 2.0440994674705073 -1.1431276350163604 0.5737555543980183 1.9788778302184626
Ni 5.219871266151465 4.82271680088586 2.843734918700003 0.030968423357056338 -1.9082321428764424 -1.0186571885444007
Ni 5.464554305309801 2.98834473716957 0.3034066023465938 0.46384655068000114 0.9159601291937902 -1.6464835566448934
Ni 6.096311886583502 8.167832224015214 12.496195169897526 -1.9047508691960617 -0.07059632216132357 -0.5318573715023356
Ni 2.11635356510358 6.6448391487301945 0.3440778562999347 0.9942443069176748 0.7146959735005434 -1.0692163895491908
Ni 1.0329861299197403 0.324373025603965 0.3018035192007199 -0.8819462341421908 -0.9941170373111909 -0.9247167923404978
Ni 7.954505894020887 -0.17048253674620634 7.094122655253888 -0.4321584755481009 1.2095304879216267 -0.24178165619131906
Ni 9.020048070009887 2.497898340113818 1.1387832088769283 1.565919838858213 -0.2221854792269464 1.6090827473989322
Ni 7.2607306929290845 1.0139249128454435 4.58862088537052 -0.6950054370501514 -0.7631209017711503 -0.11856745072396355
Ni 1.1980643263974753 7.591894162675223 2.3105371963560013 -0.6261993740200312 0.2757040199703768 0.27109120378871376
Ni 7.9519149600958015 4.08596688656315 3.9258755512479366 0.42370880211885087 0.04663492624971968 -1.1597194779367703
Ni 7.8399371762169725 3.7655791384771686 13.122909127498685 -0.7357818476365652 1.1309195229859426 -2.280135273177912
Ni 8.828108388951946 7.5025756065864435 9.224636635558626 -1.9732573987078919 -1.499556323831314 0.4358688345201526
Ni 7.298267191490379 0.7395358549354413 0.2595108716144021 0.5354854551732262 1.3590463073979886 -0.9485383202401276
Ni 2.2176746454884224 6.677477591991418 8.869371987163072 0.256299647301836 0.7970818320976273 1.1887395193182044
Ni 0.43691660353427947 5.114164824105438 1.0928696624659782 -0.3653815271328675 -0.5742116680988305 1.5079126662158093
Ni 6.813515355923682 2.2047474415936543 7.080482257886455 0.21922331127482889 0.14912629734742705 -1.398500913849185
Ni 3.6101047924849943 4.615139963841897 0.4827495838019761 1.1906097397577238 1.209439213759401 -0.9035332162843471
Ni 5.958406452966724 5.8881948901699985 5.169883636360082 0.4602822303675105 -0.5059733046467221 -0.9283765005802721
Ni 5.846300495678173 3.243721100796099 9.634852886799209 -0.6847567627389497 0.5932272899693848 -0.5595062435678557
P 0.3519641830952273 5.877162821690399 12.512702989545298 0.5214603445387277 -1.2616066397915755 -0.7344469308752254
P 4.36734414187604 6.569180216020305 12.603083553886057 -0.1481096831574546 0.4502220179180311 0.39472115663724927
P 2.743707474228992 8.90277855535827 1.3427492178641651 2.0197884523898955 -1.1334430607387447 -0.14510457778254363
P 6.63169221899019 7.956190458834369 5.518219596435835 -0.9449799134649081 1.315560725410528 1.0436876491504672
P 5.033479662685756 1.2514302410593752 12.46465260928942 0.9756282344783842 -1.0736307165668024 -0.2976938939779067
P 4.3083752181606 6.399991315187932 7.959604449154736 0.012812578383635998 0.47838793882928576 -0.34454196467969694
P 5.027565375351465 1.3881271825273505 3.7330679531013113 -0.6755910370792817 -1.9315726173745957 -0.3663073813812466
P 0.1961776432979456 5.954021091305538 3.5642058944637265 0.374558051425813 -0.522690360291087 -0.9064416481803936
Ni 0.9216034368717605 0.42561445536990905 4.68402584737236 -0.8414858121342992 -1.6407458828301678 -0.4994457879408496
Ni 1.9288267114374802 6.895042799750106 4.5627994364577695 0.4742646606895316 0.03514466622193302 0.5129656768041553
Ni 6.195023722556157 5.754647352483752 8.93158644471753 -0.5060440099836575 1.3613911534810812 1.1183820526405641
Ni 8.957966363486925 2.5913001348265827 10.20570337929761 0.5892230539059982 0.6072896815997219 0.40716555304818913
Ni 2.5545967634284765 5.65535873616735 6.698552962647052 0.3832643209505593 -0.5180536328500239 0.46269752467722247
Ni 0.7358993921967714 0.18466584005624498 9.150134925633653 -0.9843008225517177 1.262509097001187 -1.1952554660598513
Ni 1.766037325847629 1.2068625154505008 11.066012460591843 -1.5680566826955573 1.3199526838306364 3.99205880459417
Ni 4.292362697188964 6.950038347764179 1.6434769959475797 -0.1165211097178961 1.2615192222840919 -0.15953617982684137
Ni 5.595877118813025 8.595235613975092 8.060302972978073 0.9388714865743251 -0.34646617828560333 -0.19245889869679111
Ni 5.654296727915372 3.1527637561115944 4.612847490856592 1.044541255400014 0.4320265779559269 0.9460039838540482
Ni 0.897577331219466 8.042442008333383 6.701138403426006 -0.05920607804651094 -1.206382172100632 0.8189331236447639
Ni 5.430606662220707 4.193138167577424 7.0680338732294326 0.133328411083222 0.9921241752508785 0.42833781625043005
Ni 1.1548058006164705 7.56945466073041 11.564974149674876 -0.14782763314066155 0.5386276003466337 -1.0654162990768101
Ni 5.165470808968242 0.4601480340463006 10.414750548455949 -0.5981596942739957 1.012131728721057 -0.13359452026041507
Ni 8.513488444303432 7.718511180992958 4.609376738026206 0.2751563749970229 -0.19319320575965437 -0.5118577884519572
Ni 7.520565660165211 6.623937727702039 7.097097193883782 0.6155172117158367 -1.0518125922504467 -0.44324172994545596
Ni 2.51370944572732 5.453806049380298 2.6111578580898627 -0.12984688029252475 -0.19048223458639452 -0.36700157923479376
Ni 2.916338746636744 5.68624852791023 11.302355072874729 -1.5850609305630379 -0.20919832293865906 0.5852951796065017
Ni 1.4553266701956202 3.5219123313530534 3.484371255169983 -1.2480646394410828 -0.18976618235597642 -0.7129131705685077
Ni 1.7076177167452815 1.1190179535735185 2.600049801088785 -0.056772528904353844 0.9896913974396698 -0.9456926232612165
Ni 1.4624036734609571 3.6744203784345304 8.1292978039068 -1.934326268860333 1.5896583201257333 0.4948612538939607
Ni 3.4103007572162856 3.0299736295984014 7.108915697784458 1.2672728369384174 -0.14615693030645793 -0.6745070599864836
Ni 4.193019149411254 7.384784243052389 5.859400733676065 0.7265091640853875 0.07857085572636792 0.28266836710335186
Ni 8.251730875921483 7.339191130165743 0.023024522007756402 1.3255965123799751 0.7158714818658832 0.8896528587578291
P 0.38908503359928276 5.992747771528533 7.9300320969589215 0.19218379065853355 -0.9532382968189583 -0.6770262268639113
P 8.871550019603982 1.8889190047963373 8.003770259571699 -0.17019057421689401 0.49903466854535994 -0.16126653225438678
P 2.1633565854971626 3.7109406449616054 10.32694352307753 -0.23387268575688755 -0.6901563364879663 -0.14582705777086497
P 4.186775273309107 6.32198864012885 3.76534842633967 -1.1341418865779822 2.262191287104981 1.1927931205622875
P 7.377890344658083 4.358390313682638 10.729976570227574 0.1791560109402979 -0.19107667363728384 -0.18558196907129973
P 6.771950550199712 8.112699347347867 9.957716212741527 -1.0645889180795085 -0.5227009018140482 -0.7318421462625266
P 2.6169989034757424 8.881501769344501 5.844581140939194 0.5073617003538166 0.9959916286260846 -0.6003068225239855
P 6.910707421466782 4.218562278920038 1.5710526107844485 0.40133686218155395 -0.5445539931333976 0.1726935431444058
Ni 3.1096242484967593 1.830398688014923 -0.17897310961590027 -1.0624281629827639 -1.119523365333859 0.4732873843779269
Ni 1.6105172036376971 1.5273418159719978 6.960140243498943 -0.4032250803432023 -1.3087246763253009 -0.7082437901172963
Ni 7.132291781144595 1.2033835229009173 9.180618224562846 0.6359109448808403 -1.2369045090592052 0.46337346769832455
Ni 2.4860422997145797 1.7339024209817397 9.068222961578066 2.640081488227821 1.3055758462836742 -0.18170757371755802
Ni 6.420517371230473 2.055874026202137 2.2163919958668523 2.3781179577719884 0.6215603325861231 1.3642221951719729
Ni 4.432749201808209 7.341708822142415 10.16977911912574 0.10269500246808119 -0.3782776663692453 -0.3631220416747295
Ni 7.515777467787759 6.458996859877577 11.362935319455238 -0.2169658826992199 -1.2155846645355066 -0.6575352080188354
Ni 7.761687309581999 4.176713660645969 8.392104563199755 1.6016121500534999 -0.5055593570377551 -0.6665099007136198
Ni 3.245808496325849 8.642165392420262 12.092531326466776 1.3478054443768466 -0.30149938376692587 1.2681765796996096
Ni 0.4659433032144225 5.264374905055479 10.08936769948825 -0.13757921593977596 -0.7461991863151471 0.9667157624801028
Ni 9.058756439745778 2.2177112664626284 5.543746246506227 -0.9868037914792296 2.4965447691530294 0.23067243365203502
Ni 4.025597210584325 2.9379725871490225 11.343076680667602 -1.0562289761505874 -0.934632765902629 -0.926328874022624
Ni 1.147939367952819 3.6829988416423194 12.467251782933701 0.6508991907595565 -0.05831621924238989 -0.4288075567979969
Ni 3.289726199642564 8.825316039668728 7.891614863967969 -0.3491684077081148 -0.18747070145358036 0.32735439715681686
Ni 5.894978925641687 8.349032804387202 3.3001531065234078 0.18804997099581808 0.010085409260460051 0.8250901443850951
Ni 3.3824505063325145 8.65687786880758 3.796501889096835 0.6730474447218214 0.14059254884480302 -1.2011574333665829
Ni 3.9553856477876006 4.749923459407601 9.375998446147452 -0.5737303575870377 -0.4717457509224199 -0.7561431849017365
Ni 5.213013988731365 4.767959289204126 11.652434191322694 2.0164971832331338 1.1941725174083175 -0.03410414077256062
Ni 8.519045677139214 9.243866309114273 2.3597008542277464 -0.550677075312 -0.13120005188630954 0.3478196069897042
Ni 5.029588684176354 0.40547200403217604 1.1776298227904483 -1.2272099074792608 -1.233834868994946 -0.25413066467497525
Ni 6.141904999470148 5.909444210453112 0.39445000632048255 0.1876085125830253 0.21134750807117791 -0.5308590121448084
Ni 8.21433170601346 -0.3553140867107341 11.302690154788715 0.8700769935084305 2.023778033165263 0.5071094751336943
Ni 0.3988307903598922 5.414099758097288 5.779941459367934 -1.4506184604800307 -0.9797594830379386 -0.298908226000982
Ni 7.22886129012619 6.063389630772181 2.6543715231774647 1.1606509886121041 1.626091880362419 0.07661604599284225
P 8.752797355497016 2.1116935461358484 3.245027554050903 -0.11356974039905601 -1.293075399823818 1.0229858978267417
P 2.319252072692708 3.229017779652333 1.2158245833630987 -3.1707448394220554 0.5034073436917588 1.2037920427759525
P 4.910634604711254 1.9042631929887106 8.322855216500296 -0.2785124359534494 -1.53836146962397 -0.9775586187318778
P 8.985496180846392 1.6982976788098185 12.514726298370187 -0.5579239866824004 0.3076448345430315 -2.049020866892452
P 6.766530646017203 8.099470020415898 1.2945267190295178 -0.7558197401240466 -0.9624909257654778 1.2285473953437618
P 1.8528290347161847 3.6242130227979104 5.623138687536431 0.30792379923603097 0.0429739324583647 1.1307737414366978
P 7.337534031082915 4.25870802189352 5.919431665643483 -0.3990439523823192 -0.24218171984321515 1.7287578293647774
P 2.540287117757427 8.755232650281725 10.045041672309138 1.6295466716802385 -1.7043076667422132 -0.5591519455522306
