# total energy = -381161.36294956814 ev
CRYSTAL
PRIMVEC
9.32307849899743 0.00000000000000 0.00000000000000

0.00000000000000 9.32307849899743 0.00000000000000

0.00000000000000 0.00000000000000 13.64526777450779

PRIMCOORD
 96 1
Ni 2.8016037213709226 8.634429263338879 5.839737672333225 1.6650443503662162 1.6501530350766807 -0.9483981951178375
Ni 8.928740203952374 5.070132462939559 3.4853284612842512 1.280260507447337 0.10625803722899119 0.8356170120583479
Ni 5.79193451987182 4.490544644733803 0.23991357476207933 0.7328479618192217 0.7197427918958313 -0.5082680142181699
Ni 0.7926099054771624 2.085311603804557 9.292591054441127 -0.9581395907753176 0.6014111113317577 1.9679033334848304
Ni 6.744240368483253 1.8216456220670276 6.308398570793877 -0.8208007729811219 -1.4139280470375328 0.9073183943583921
Ni 0.3791761268502718 0.3502969590333569 1.4892312598149284 -0.5422042619542985 -0.6107136196796064 1.665039208159894
Ni 9.176603567711576 5.427672521623278 5.8749155119531835 -0.9121911490696611 1.2549981333361224 -0.8996356810021539
Ni 0.664741087566737 0.18967989574790084 5.536867213391761 -2.1504403450822194 1.708406519401935 -2.646422085733868
Ni 3.2997358031302735 3.0090795092704656 4.6614142973943435 0.7111671344116784 -3.0690358550163275 -2.2249853674786455
Ni 3.292305309603 1.338784742814168 1.5225249052794771 0.658620213552898 -0.7177951812511574 -0.836099093901089
Ni 5.9799437199608905 8.031123533547948 12.605539524355406 -0.03454662762661792 -0.8690526660089742 -0.545812291020531
Ni 0.6258843611891098 4.900666865894085 11.23764253676299 0.5987127385639882 1.1602558100562146 1.249072768990623
Ni 1.3879173662630129 4.208446936894116 5.049294450288608 1.1186198796829832 0.27536566279435154 0.1737744349134104
Ni 0.862126507656283 8.98600255181249 9.74179282355407 -0.7959739437454292 -0.08935791903954288 0.7671305371511756
Ni 2.5795000233781655 3.398784188618039 2.1936401815847293 -1.276521352119879 0.058590041729066844 1.4595062498879638
Ni 1.3930264132554164 1.3932221979029353 -0.12469058046569828 0.5732703872314837 2.5448038612697337 -0.6498890043274872
Ni 7.312146369387034 2.168296325117302 10.531172282347166 -0.4381157215728004 1.5596700012937592 -2.214873218745308
Ni 4.791838571108816 6.585328496246903 0.5552172911288529 -0.31021156682894313 1.0951210252300947 0.16855098173094196
Ni 9.303966142461988 2.590575840580675 1.7229198150937455 -0.27676614268630395 -0.2054637955968913 0.8520880131301778
Ni 7.630464237017757 3.0075225551687663 13.124836858819418 1.604923730925236 -0.10024911203074993 0.7394155877344104
Ni -0.05107648530635603 3.2811176154590505 7.382322113212803 -0.2568143821547254 -0.835534993867503 -0.5410207831691586
Ni 6.205571541608992 9.104676017444435 4.677174961519632 0.42685300417478744 1.8372013042808617 1.1091111688615996
Ni 8.578052607931825 0.5988912521432957 11.417445563197473 1.074013296717202 0.028842635263305168 -0.3813969287245173
Ni 7.660400641931275 4.485044028446361 11.370819915544718 -1.1539344958238773 1.1110358966881384 -0.4707854438916795
P 8.470781267248256 5.433564707205758 12.967834353050302 0.00033115808717362326 0.891470114472226 1.4090208395439023
Ni 5.926606388129612 4.874301200028176 9.591135604980265 0.6683646945341716 0.14475953573829908 0.2579089007704849
P 7.435341528068825 0.5255997354984373 1.5446038196725613 -0.3900489479725605 1.1361985119966949 0.3385965457295394
Ni 3.749574338501575 8.10574545348809 8.163977401507347 -1.7468990190501787 -0.6612494236456289 -0.30958061811316356
P 2.3693391888840747 2.7281285400805344 8.07996341233336 0.00757729812662566 -0.915433824376675 0.6480437235886324
P 8.87563594908243 7.797841464489695 8.42596616143113 1.6725442582876873 0.27121487385077164 -0.12372611210676757
P 8.875020625904511 7.863457290643958 4.701327328560728 -0.04325983912989969 -1.8501372956162394 -0.048050575650323696
Ni 5.238106367432507 7.238335557272328 5.081538317119316 -2.4807769647958113 -1.892030850526232 0.16828358700216825
Ni 1.0920774407831755 6.591034220260318 9.466199827551245 -0.5718922759370344 -0.3439171866115045 -0.02934759992418172
Ni 6.445678104095054 1.104933965970264 12.408105624257901 -0.430723028653155 0.15805650995752135 1.7513657965722804
Ni 4.4468380529447735 0.4039633955340372 11.210570181550322 0.6642776689489915 -1.1527854698210986 -0.29252032019676716
Ni 7.42980361946757 6.850038662771201 0.7508648893947054 -1.1117406360646467 -0.6926143111101556 -0.41906873224367824
Ni 8.881919703959946 7.422009525880618 11.557500576954196 -0.3869463977878368 -1.496428833945926 0.0001411535635545956
Ni 8.297138931055708 8.915240386352009 13.49830819396412 -0.8669564456015778 -0.5857605492786944 -0.582726390438061
Ni 2.1586003235258793 1.7347079154900868 6.14436832848667 1.3781853422202845 2.1906567694001047 -1.427117034923981
Ni 2.1628330011436736 0.35880520042983044 3.269938312085709 -2.4965905347893003 1.397757093704625 1.0395741412027257
Ni 5.0890862814351 1.136884155829693 3.079573170071491 -0.1599259590660923 0.6360880938886528 -0.01318770233486761
Ni 6.167123166067619 7.735013238792966 2.6572656853727583 0.9139127597464582 -0.8148299001096676 0.8391821037017869
Ni 2.0822536340718774 8.237667013602163 1.2897509439969281 1.7839894961445726 -0.5187504018067324 -0.20128909539391138
Ni 2.402715809746857 0.9989865024270623 11.393662390063126 -1.657123552857243 1.6567517713401207 -0.3805618344177317
Ni 7.049776295554513 2.4845537924098475 3.037327504676093 0.5584392357559221 -0.5026804928280634 -0.6142473438644777
Ni 0.9255859057643006 2.3301356439879846 3.9617125979356094 -0.7469764308008039 -0.9743113154391736 -0.3609980533531912
Ni 5.631297878121612 4.304362768021577 7.240315779135807 0.2860681368135203 -0.37261069789145507 -0.19605021559247526
Ni 3.5194434699605344 5.600895319285429 8.50957086746102 -0.14639347179729625 1.4476989728403906 -0.8266238074208022
Ni 4.492791506641046 3.0200527726099895 8.920484617981986 -0.49796200430647136 -0.21951615992489934 0.33660085545574936
Ni 5.605939104728659 6.68304368151585 7.626544814835994 -1.4977138713059368 -0.9360664130253621 0.20684370666355345
Ni 5.200301284304411 5.702619428289289 12.06169359201603 -0.3895262426998711 -0.33137611672170025 -0.29694390318575953
Ni 4.398096998790967 6.1017777091885 2.8152638959206846 0.21707129792883262 -0.14623946271793525 -0.06080813242630817
Ni 2.341696261270066 3.542247719857285 11.962301184933338 2.2442179904560122 0.036864734236833285 0.44309517706526275
Ni 3.2159213278351855 4.076292299818713 6.848422973275246 0.5953075695371812 0.17950799496307795 -1.251095970068239
Ni 8.152752415049585 0.8346075769857033 8.382819886657146 0.09607852559282808 0.268038533005319 0.17865438871353104
Ni 8.247512184448839 0.12830327336634864 3.468750163178609 0.07922031638490873 1.629843376985051 0.6576627347356351
P 3.8456113696489282 4.930472747709256 10.367769483219867 0.23695903799169515 -0.9329252962932192 2.997286650197483
Ni 4.277456363605379 2.126044133566986 12.92316002571782 -3.239928340396253 -0.7211430146774677 -0.874578738033526
P 6.431068840158747 9.141362331158135 10.789285438557915 1.5569744567394668 -1.296971906664747 -1.6478493266441685
Ni 3.1943756935296292 4.65505968712058 0.4574676104696303 0.5240597298347878 0.8107930110361327 -0.6601549050298695
P 1.539566560384248 5.360509064445768 2.0494783517693325 -0.6400769033330718 0.7991574836797334 -0.09349739512921318
P 3.1344376221534196 6.6724992797851765 6.359772462302892 0.7319449903889782 -1.9967811928614452 0.3022797135763761
P 8.253031446893186 2.2807140051070878 4.828146367837313 1.0767209254563521 -1.5718398038870736 -0.9338195259727143
Ni 2.9918597833672367 0.8678657947521291 9.130390000126457 1.1330543099407582 0.05316758516191489 0.6943552050606623
Ni 5.75720605263331 2.2146227019517064 0.754928819292495 2.2754304115030743 -1.0877771832705136 1.8375550880758547
Ni 5.746801497079437 3.8087385943661616 4.620546582994341 -1.0754423158542445 0.14785514394448732 -1.202411617488658
Ni 7.736523577502399 5.5911899946155525 7.758412301095036 0.4340940020079169 -0.42391243348922475 0.6336247199498248
Ni 0.4374090071773742 6.871481743213772 0.3316377498169398 1.0275493488277077 -0.7801521462218242 -0.8538337921766908
Ni 3.7109395013911364 5.01161149948825 4.7223956212494755 0.1538923512775027 4.0841991714748564 0.5678659283864608
Ni 1.1019505808652108 8.813357785014443 12.366583429750477 0.8890141967325657 -1.569585203524942 1.6482324210152002
Ni 1.206574167268045 5.221017164627624 7.557813215862641 1.0027209769301182 0.33648027071748504 0.987950503489163
Ni 7.535312898323467 3.905819810300283 5.853300886867073 0.812039224738408 1.7742750970702863 0.6092925709623636
Ni 9.108666295022443 7.360868777383935 2.5087639625373543 0.07938769520070844 -0.05061499394339025 0.5519852526004623
Ni 7.290647350473746 6.71539476374877 5.85538925644061 0.2946095986256281 -0.5631991190384107 -3.064130190184594
Ni 5.640844710457782 9.094299431125922 8.749591657625311 0.3946021145608817 1.0912556287374173 1.6021554241514793
Ni 2.6880579488882885 6.418091114951766 12.384213371105652 0.11111279421813122 -1.4900298723981178 1.333232174548362
Ni 7.150996958321896 8.196477652995522 7.392323911777495 0.7308967516301219 2.1078258528458025 -0.5924451603877215
Ni 0.6395193634270482 4.038589770553604 0.12550914675389727 0.7136361647774613 0.9021165384424786 -0.11915829023042702
Ni 8.727259155498299 4.3980783526340606 9.453550274705817 0.028739276916221475 -0.8773007649503793 -1.9777663423218392
Ni 4.4620719631374515 1.0730210684246482 7.156342811507013 -0.26066383780780267 0.03890516170562977 -0.32928812384442
Ni 0.8767478915945797 7.501843046676151 6.4182151118951944 -0.2504442169623235 -1.8483825177086621 1.9158307811593072
Ni 5.008618791304744 3.736382182490168 2.128470930888378 -1.2054622313895238 0.45556991249350576 2.7498783918480063
Ni 4.7653330590661085 7.072533930058997 10.32306811895987 0.08092290089831224 1.096697111467963 -1.2110541236550045
Ni 5.704698474784374 3.4273128086851106 11.798175847225908 -1.2781028376743857 -0.21095798594224316 -1.2757317663390482
Ni 7.681302983823555 4.416892324952802 1.747399422188552 -0.8984504024448011 0.132944545381242 -1.4881581092967016
Ni 2.5216409984970403 7.833436978024361 10.8229212410017 1.0629362129674338 1.3579970401978678 -1.6938777296581409
Ni 3.809484440642425 8.41377064250638 3.3003129016865316 2.2578808326550854 -1.4511779325279266 -0.002624582107040641
Ni 7.430101957978076 6.949366740612566 9.762383774626008 -1.0679992293126381 0.10531315681721862 0.41145081068710426
P 4.1042988274924 1.0334632465473335 5.01665528493148 0.6642964380020687 -0.8833899085672527 -0.22249812537135874
Ni 1.8008831263515481 7.126812892814058 3.9668020664632615 -0.04302201208748074 -0.8014961591152391 -0.19927412184641166
P 7.06512208268863 2.8344675729187743 8.33871892864954 0.1240737252541734 0.6484178190985994 -0.09172256261697752
Ni 5.4636129890607155 9.162721503894625 1.0125963323531768 -0.24103552205391393 -0.3562194010176252 -0.34453527981147763
P 3.6769755265857964 9.136635530382316 -0.13475111442464485 -1.2848514692521291 0.13816388479865238 -1.0777869048270212
P 0.5260602955740299 2.632902616758618 11.40317286239333 -0.7108357192141888 -0.6421083319408037 0.4173347802717071
P 6.691201375162478 5.519700629035715 3.424771337498743 -0.8957432879262832 0.08722287497441109 -0.04127083372432892
Ni 1.309146676411155 0.5394137408426789 7.660903155859908 -1.3672941492290775 -2.0512842090053316 0.8691853349320965
