# total energy = -381178.47229166684 ev
CRYSTAL
PRIMVEC
9.14153403677674 0.00000000000000 0.00000000000000
0.00000000000000 9.14153403677674 0.00000000000000
0.00000000000000 0.00000000000000 13.37955910325296
PRIMCOORD
 96 1
Ni 7.080739829382828 5.266922329502902 10.510767770178363 0.1521098054557832 -0.4105583807798219 -0.16412225653562704
Ni 3.5213646651777664 2.3486978049751763 12.391532381308046 0.27553844092679 -0.647049220885847 0.6094620066606924
Ni 6.944156167534148 3.4280113183603698 1.9210906607590972 -1.2613963235529826 -0.6646795323731004 0.5924762707359732
Ni 7.720254134445952 2.7452301321293304 10.268329713551768 0.7005019413883484 -0.4354008937447985 0.6400699613545363
Ni 0.6403297299099826 6.569801202246327 2.1784732974265326 -1.3378074526238701 1.8537972609663298 3.0602241702619684
Ni 8.7023657151334 7.282813441936544 6.728941599628882 -1.7045426655711549 0.6716994153343594 -2.7497441802629865
Ni 7.628272017752195 5.906902852808065 3.3641028530645976 0.8539119537127939 0.674022149930265 -0.0600321734922321
Ni 3.394461888001983 6.178424700357058 1.8246109092598015 -0.07284449476555198 0.736239503999274 0.3154270495916116
Ni 1.795305893210788 6.685569590818155 6.2291611290851465 2.24169316715163 0.004751141531740204 -2.2973182127151013
Ni 7.489924039811098 4.498174156053807 8.32072129050831 0.8279998618327225 -0.8580686561936447 0.12483425756928179
Ni 5.938559985595829 4.441258964388598 4.130309680017882 -0.06376001596578051 0.3252273235114851 0.8831898767413047
Ni 4.99040920430386 2.2403340590710026 3.7150884004319327 1.68728902069703 -1.8259678974588873 -0.14805491866011922
Ni 2.7881039273284682 0.8205377069121395 4.340342826362619 0.37082043876025167 1.4008257053276196 2.5738745533834444
Ni 8.736353939131352 8.28190999308881 4.094172281339478 -1.1808138367132244 -0.12409043742472178 0.3903770207359406
Ni 6.74018111587565 1.8916393801635618 7.969280494739928 1.879124169766893 -1.6883007497909954 -0.9715334955837205
Ni 6.337359413221067 6.208125544835097 12.57092584761676 -0.7162841439232697 0.3526975039072958 -2.195488129350477
Ni 3.890618654405646 6.862869645804781 7.407513109380346 -0.2178104900877023 1.6277605263140933 0.8788560252526412
Ni 1.1878875145749916 7.656327386081866 8.100466994821963 2.569933823568142 1.1459033979892845 2.55583852181734
Ni 8.437279507631356 1.788175496567861 0.8207452197375169 -0.47153466335287825 0.39647824853767205 0.1421346965209423
Ni 2.4710389566063187 0.10893509178902365 11.31458469696284 -0.81893338075508 1.012627694520869 0.12231251958869256
Ni 7.793276709296849 1.4400384512440336 3.0042600732519653 -0.488943602857945 -0.8105870656729136 0.8184898654597581
Ni 5.08386310799699 4.999111944821895 8.586412667571587 -1.0427885343749654 0.6126296057553966 1.8552913290133533
Ni 2.5057585033368777 5.619940954066887 9.228644750739766 0.20306727034025673 -0.7313978596362565 0.0988594307720749
Ni 7.650623068767524 7.499458659937473 11.249733739495419 1.877399473766302 0.19489861848653528 0.4751483488460656
P 8.406554811327666 1.6854520772389256 12.122763963847321 0.11248884863005143 -0.5252113269407277 -1.4213194544055974
Ni 8.75242475618041 4.61536862395422 1.334137434641917 0.5320363202823611 -0.13853335232292915 0.10459453348363922
P 0.5355796324583076 6.376540028620536 4.518170347870138 -0.7222640156557885 -1.1646745079492007 -0.4627769717649062
Ni 0.42671950124937624 4.526896856376982 10.192227355843178 -0.5356962856324516 0.5874816457348592 -0.9673299990253341
P 5.2668583387638 3.3651998371635097 0.35624284366136993 -0.972696662653886 -0.4712592982043045 -0.19971609447983668
P 4.8619706493896 6.046430088655493 5.732071012043992 1.5768082036359423 -1.68052419116937 -0.46940141905995925
P 8.701067617283021 5.646186298633353 12.117465530649577 0.4429823056364823 1.0035691838630265 -0.5024786612299024
Ni 3.2717550750045366 4.569130744185087 7.11974492732647 -0.2782368136945595 -0.00650000590204687 -1.4313832663995025
Ni 2.4969003567381645 0.684181669263983 8.565647672732602 0.5474598539262829 -0.42714173905979985 -0.20989946277074176
Ni 5.22383827901814 9.112646909660581 8.427530061452277 -0.8240763584086 -0.14501021829652444 -0.7703022500109379
Ni 6.589144688523805 7.6297803708881995 5.36860178563104 -0.23889996376814984 -2.5592444621750956 0.5085809174728984
Ni 2.6299919525386426 3.325744975739314 9.010316576300424 -1.0381404940799928 -0.07777638484953056 -0.1020645679729339
Ni 8.424755605835447 3.1091728900116458 6.3904918380518625 0.13485487503007745 -0.6433296059424145 0.5395308288871933
Ni 1.4663752111520751 5.85134060819818 13.708161035577914 0.07806717661707199 0.006066775019370197 -2.907341491195903
Ni 7.603873263085565 5.326570839881233 6.0940008041048035 0.025563193181085003 0.3335276158470643 -1.4796577851351744
Ni 0.4945405431646002 8.443358627846159 12.974546520356716 0.2082549851887833 -1.0290202769462793 -0.2721255585904991
Ni 7.725967593294451 0.3397542585013093 6.068646759118704 0.5235226263843952 1.23708217228765 0.43848133244233517
Ni 0.2604935007412665 0.8371030809591239 8.158132706441508 -1.7773578497606681 0.8696956989096118 -1.57550799676728
Ni 0.858294985443269 0.44688572560103873 2.6826151939168588 0.8292756432213525 0.6187858551647795 -1.7767230443901463
Ni 1.1463483833628638 8.992847104525254 6.051200141178928 0.9554707856939028 0.8524045159293319 -0.301783490666248
Ni 5.308598583727394 7.422313253181499 0.4841210225317694 -1.4348221168777224 3.3135667918180096 2.4126139346663287
Ni 7.142381194207514 4.295414928438269 12.944522979722917 0.5195937236436342 -3.0708759935488597 0.22164529045276024
Ni 4.834555188450961 8.77606476351196 11.563404458584852 -0.07500165031787083 0.24088999761498514 0.4203995352399599
Ni 0.343611985915816 8.841783252570936 10.093137696341886 -0.31510000526949605 -0.5681333231152346 1.2596268903573855
Ni 3.87218018000977 1.6753232573923065 10.130882176725196 1.4040200438952013 0.16418139190833658 0.7460539189865344
Ni 2.043973905365785 2.3091423866752474 6.65792284906533 -0.27062789099905005 0.05580296590223292 -0.03201897610875776
Ni 3.1297047757296124 5.675411783335195 4.360545616850912 0.8702299741465269 -0.6045082621998427 -0.06679366058578175
Ni 0.47467781774697 1.822703071081111 4.655551151497361 0.9526816529845398 -1.3711706014653482 0.7265114780782326
Ni 5.791216738043655 1.7143393251769372 12.092940622811572 0.3617408450564867 1.56713005711623 -0.25557691020319856
Ni 1.2813139936656495 4.380888272811816 5.463087768530563 0.2266561134037903 -0.7098952096777903 -1.6947246510394682
Ni 2.928910977957959 1.8456483218166833 2.282967431921795 -0.9119795472794875 1.4559923231974343 -1.0200335000666367
Ni 2.314444476486654 4.092043218034173 11.453170354792034 2.6501699828120744 1.3007560562975276 -0.6537803689620934
P 5.859193186039558 3.11349683566819 9.285681524809272 -1.6615815886285963 0.8307735679231175 1.2994581634217106
Ni 5.813138136953577 3.8686606893590945 6.749559415767931 -0.08516162157000817 -0.05883866740476318 -2.1187856942914154
P 4.077151658891445 6.211023411163055 11.03246324055811 -0.9273051218929642 -0.6489834617940823 -0.1923354857450494
Ni 7.998997793979449 7.046404227086888 0.7639973181473922 -0.8598609722073771 -0.25995447044560394 -0.0398469567936088
P 3.1850384819855564 3.0279046513505943 4.153777826507269 -2.5883447219751616 1.8016072092263358 1.1912306611711743
P 0.5998555874272149 2.689859859736756 2.2598210674347556 0.45002301453334753 -0.040471734861801265 0.410788494512757
P 3.58404816489642 0.12092604214354573 6.733343248325767 -0.7178751425594733 0.07287149134874546 0.15040233584637325
Ni 6.801557376209766 0.21456826144032268 10.227134304023968 0.5977290344944803 1.1773027382361723 -0.25778188827431736
Ni 5.076458465329336 3.941052498353118 11.1693897099377 -0.37941100864274013 0.5097183735114512 -0.07045182616365932
Ni 5.283367949452423 6.834137803947448 3.2851903877559594 0.41455284665119574 -0.12919124898639686 -0.1692060988164376
Ni 4.266719652717567 3.9247348598818044 2.420402170600548 -0.5224530474693002 1.1062932397968301 -1.4881054016818953
Ni 6.078745411902603 9.248124445876194 3.956362739760264 0.4362958947552421 0.08358862065593346 -0.8099358052421599
Ni 1.3474255686934022 1.3946233095490839 -0.2522176698683925 0.5668570275059721 1.4491981830937364 -0.23944169520423275
Ni 6.362754595110876 6.865392709232277 7.804109427273604 -0.4048307342674254 -1.0675469722665678 -1.3026219058616728
Ni 4.080278063573345 8.97484742376894 2.7371234196383725 0.029412905944478377 -1.1863309098767116 -1.0464004200959398
Ni 8.484385833145462 3.567483705002851 3.917736101330747 -0.9247340187316784 2.177093171783057 -0.18833922010146273
Ni 4.172305887937889 7.931871508660202 4.9632277666396565 -0.7246924225916229 1.3586341595612343 1.3565361393816249
Ni 3.0679080048242455 7.7148514877588115 9.627488971882377 1.1891316125503002 1.5010367650315826 0.5115513129551319
Ni 5.600414637106257 7.2360819193229 9.982475768750493 -0.018477232868581082 -0.5770411671278256 -0.028572669431370146
Ni 3.1344949396281936 7.528199643328964 12.680129700510019 -0.5335887523711456 -0.7303833023288131 0.08535496852773687
Ni 8.523648722352348 6.573092154543063 8.876266947720229 -0.4865905292447361 -0.9004520062558621 3.205402024484609
Ni 6.987231076484751 9.28213095294246 13.096193829545296 1.1015909492251545 -1.6553415212561557 0.06606346728797655
Ni 0.7089241456149394 5.290736025983447 7.476685270044063 -0.7129098281343981 -2.799550562262153 1.808727622321201
Ni 1.3376167025422991 6.817225965755891 11.072815800636581 -0.8246371160080767 -0.39573262862089914 0.47344113634697166
Ni 2.038955203113263 7.915453313313155 3.8466497034144287 -0.23038061344322905 -1.6012683935608358 -0.5894302848207978
Ni 1.160892564207603 2.142035142274345 10.435440614566335 -0.6968502035683741 -0.8155742344748599 0.5409565055901264
Ni 2.4597583034558417 3.7673542078245865 0.6118026584177805 0.24563702538166726 -0.86918842025589 0.3105383540407426
Ni 5.363466071741301 1.259273754811679 5.923224147893042 -1.3003565068662637 -1.217091588098336 1.2471575542457811
Ni 1.676785902857522 4.648113599306739 2.6720585502716645 0.07149158028208333 -1.8937856284338095 1.1797686832781618
Ni 4.016077069184529 5.4186535134507245 13.060737475161634 0.86894802211031 -1.669888308722079 -0.13663176442484212
Ni 5.7171063206280035 1.2929420251141148 1.4912584671290585 -0.2510674523686192 -0.12316509739697497 -0.3644369038314111
Ni 0.49977132900957816 3.7226338227256144 12.555859685171622 -1.8595205366033523 -0.9766890716427308 0.4864935986555557
P 6.7957890681563216 8.26717384002676 2.1540818559872283 -0.19179915362560515 0.13062001101312345 -0.30536143782549346
Ni 4.3562244136546155 2.3176897211126017 7.763529242994609 -0.6835809972632938 -0.31550803934119215 0.5253848764041145
P 0.3618100379633475 2.976620644726466 8.453619999938063 0.12132470175412653 0.896328728116108 0.09258722461011797
Ni 3.3228928170821432 0.3429638511440422 0.5455832132869678 0.5472035149411026 -0.24664104116614943 -0.7267426202524322
P 2.052420682927406 7.900305791214015 1.4199188487165748 0.6095514810507051 1.4920363613051855 -0.6372556318341929
P 7.670633887038507 8.397952627685367 8.31313473131092 -0.2627194347852508 3.0553791834648414 0.5729256022975552
P 6.805424245158431 2.280492818625333 4.928708419507148 2.354242950926604 1.3948324638586624 -0.4254548382756802
Ni 5.878847484478395 5.439935004969614 1.567776764641822 0.42582867667533114 -0.08627748034200625 -0.7335020504634528
