# total energy = -340859.0539002433 ev
CRYSTAL
PRIMVEC
9.33982145691546 0.00000000000000 0.00000000000000

0.00000000000000 9.33982145691546 0.00000000000000

0.00000000000000 0.00000000000000 13.66977278581520

PRIMCOORD
 96 1
Ni 3.5718933609504844 8.915093231986603 13.022221882559476 -0.786078024787956 -0.06735390396462593 -0.606730209551826
Ni 8.1622475704717 7.306168860589131 12.248690384120234 -0.5046157621775632 -1.7467756060984367 2.114542345634029
Ni 0.6023297661951569 7.648417284038404 2.3912259623380465 0.16790306373429792 0.13063055253608472 -1.2954696110876076
Ni 1.2765481394007123 3.9986391505973766 7.122922494383685 -1.4128857218159474 -1.7337840789347752 2.084164247562804
Ni 6.28671799092666 8.695654123020862 11.861576259554182 -2.5185079036876816 0.7917118260349656 1.0264054650312517
Ni 8.226001192850937 2.966196589061258 10.36939779044443 -0.37736672451920167 -1.1766993003242188 -0.8862998831251963
Ni 4.55394758484582 4.566061333487172 8.69337427256338 1.9179419139650389 0.03215035948029946 1.24944686450059
Ni 2.5822832213644356 8.387822942241892 9.581389568493938 -0.22219807763243668 -0.19599725086735278 -1.8152908773610157
Ni 0.6927224277994236 0.12207427052202352 12.532981478487745 -1.7213787632918869 -1.40994746512323 0.07378988939795678
Ni 0.4465938445719019 0.6966227373080038 1.666236318805282 -1.0445888208084977 1.000458920368819 -3.315501546946877
Ni 1.5920286340865966 8.700314694009323 5.410906105925009 -0.3122630500413332 0.11275881446198643 -0.2751736013882035
Ni 3.2482311825253367 3.4296198582105326 4.218205281137153 -1.0162537213092304 0.7733029845104746 1.4305913666258265
Ni 6.652838998437071 8.6178534089249 8.31737360174316 1.174856333578209 -0.6274368459715581 -0.4406711410048023
Ni 3.6929094296829432 2.6172048144022275 0.7813592029390996 0.7547229075154421 1.1287734231772173 -0.3308068744817916
Ni 6.555051066073959 1.7245793825199576 4.715388269514671 0.3833800205928172 -1.2033984068819599 -0.23971911723533554
Ni 4.933527275310886 5.19867547128571 5.359248486526047 1.0977839167742383 -0.4209232689539138 -0.8257038667096941
Ni 7.41579034694499 2.011013031967133 2.2803099767056323 2.395523040622313 -3.2230143382497327 1.8099974901725602
Ni 2.267428494727103 3.1775660921471793 9.598600057793412 -1.8902567893449445 -0.376085543813933 -1.356696319108573
Ni 3.95488208630691 7.667311743175994 1.3270905840982274 0.7672547214338656 0.6032965012799287 -0.7056714014044297
Ni 1.9287945822448334 6.441404116599809 0.13637540538681794 0.837242720587229 1.0714663619256322 0.837802449745441
Ni 2.0374353873305755 1.7635264386760396 13.177771007750328 0.06315349273003318 0.644915719482612 0.4434193931739009
Ni 4.688272899387012 6.334276362616534 3.227187630432946 -0.24547350322060948 0.6271355126810554 -0.3803193793896224
Ni 5.535768313200651 9.267634138861297 6.079522454122791 -0.6487546336127279 -0.2925095215634898 1.03136923679443
Ni 8.278827223934583 7.65105111373529 6.376716512058557 0.6099520589232333 1.5417021039614287 1.3109628216272005
P 5.28326623569953 3.3226228617299394 4.337241307686138 0.9956473579127885 0.42383889993881196 -2.381105322535086
P 0.18800593930308201 2.182221302086351 11.880659383088501 1.635681323823067 -2.0693685773108683 -0.46582732855545583
P 9.167464551985043 3.344197849672517 2.1941351785450314 2.4765505854192895 -0.37220317804039127 -1.207418069564314
P 7.716990254373645 8.057230616174582 10.482460067085158 -0.4693466545626239 0.44101592593873085 -4.078975975402704
P 0.13493613887515074 7.721146474994617 0.0901591660637627 1.3656789822231576 1.5552821566387085 1.7195550798195867
P 6.634420870202109 4.648111666420308 13.559471771705333 -0.960171790713998 1.4966314368750355 -0.7190033426266456
P 2.589474884011962 6.190527168060597 2.1008798616141844 -0.007304246970897099 -0.575918109266976 1.3289703139482145
P 1.2849259593939992 2.8538198553274503 5.162608816117285 -0.11551555127151718 0.09585252562495104 0.032584875914556784
Ni 9.148140461052925 1.8222925963101084 8.237227658438375 -0.14038968880537755 -1.1685170216237426 1.5366051490544956
Ni 1.1851860043122728 6.746806943757536 6.897917785714487 1.6591827493791167 1.1475270496356367 1.5902651004717967
Ni 3.201681511570442 5.109956505715775 6.923042839854889 0.05206303924382646 1.1970452109704222 -0.8724192684883619
Ni 4.070630495645597 7.183658420397446 5.750093869829354 0.08800783276955167 1.0726806939487075 -0.934570545206126
Ni 6.44148817499439 7.524720686500959 4.789642653341457 -1.5306954684382799 0.27042040297393427 -0.5468805843840453
Ni 5.161073349442931 0.5269443299701688 0.6656089256360889 2.039054242598043 -0.6671336503405478 0.0011238291917980644
Ni 0.3218493190486736 7.069927412528715 10.354401772851096 -0.2822737027680945 0.5416409332516607 -3.050673550459056
Ni 5.917169268881651 2.9413059644435227 11.84626642395441 1.5459716778710602 0.5432195905926903 1.120835142166747
Ni 8.025605980168708 8.969292216848412 3.350885161952554 0.010805061035303971 -0.037998076510328105 0.12858138331653984
Ni 8.614817966898345 5.853779899545599 0.6293237186417535 -0.2734224230250517 -0.641576884917366 -0.45760854019008934
Ni 6.885419236422384 5.430676640330572 3.758190112897076 -1.6946094656178428 0.497607192070214 -2.288363574624975
Ni 6.736215586040271 5.453054852932483 9.83872313571917 -1.8918555012906317 -0.18423779633857948 -1.0732800180956032
Ni 8.305819308416856 6.070155547019929 8.308843542657465 2.633521061401484 0.5175697512350699 -0.01329388889542872
Ni 0.2867885626687417 5.4815413088739815 2.8942874344432954 -0.22005737714035004 -1.4881300842722436 0.8347286959161236
Ni 1.5264817659562888 4.068090064164912 0.36545321026456906 -0.17767274152655207 -0.3009023736128753 0.43690138954972496
Ni 6.273315346901726 6.661151439679017 7.295953897683158 -2.0629557318059892 -1.3459578496451465 -0.7865943023027421
Ni 0.4998681870933147 5.26900432808554 5.522205958226012 -0.0554178146486723 -1.199059927407606 -3.225554588173084
Ni 1.8963013428282842 2.4558500560922822 2.748431176129849 -0.9730620164131047 -0.958810134479781 -1.122426397913267
Ni 5.363551342346455 3.1840666079948132 6.3403827379917965 0.8133854543536573 -0.9549282829268716 3.061049494376741
Ni 2.67617644811194 5.50365800647053 10.365733778422841 2.0723582560668117 0.82884678321405 -1.1728344180521737
Ni 2.877617720815627 8.157418882694078 3.3628868327344645 -1.1946864809302586 -0.004157216701483163 0.6542231129264668
Ni 3.3927929415622278 2.912427235993977 7.607461232251826 0.11892611961496294 -1.5461961351770401 -0.9545001942505176
Ni 8.388523428863403 5.016875843449226 11.14965489443235 0.7849063730773579 1.3535896551587914 0.13634585775330713
Ni 0.10547553953866888 0.11056854426814407 9.981982923622208 0.9361309477147105 0.6399043823109495 0.35343412496300425
P 4.489586874061272 7.367989139892994 11.683322961986875 -1.1173484691697273 1.4365596683941193 0.024715243358492917
P 0.8765413250701862 4.824335420749555 9.44869778875411 -1.782894463308181 0.3694420703554863 -0.07097273166413584
P 7.3248578436510785 0.8307631233811167 6.740278408445042 1.1576057740278773 0.7451018394859104 0.3096227842050087
P 8.390858384268444 6.782148828768236 4.499022895844124 2.3004588152266123 0.31003673181397573 -2.2761757743095314
P 3.4341590115179326 6.902959421425051 8.0146148780861 0.2099804525203222 -2.244629624072134 1.141839512332556
P 6.5550604058955795 7.81439525405033 2.1718531661058074 -1.9382094059648234 -1.192217707674792 0.5638737765079321
P 0.9952420520230068 0.182067680716982 3.4626351936556485 0.47144184652875576 -0.19772117553699498 3.211854722088488
P 0.5716923493345344 8.23361314747137 8.272467739393413 -0.5046396734369631 0.48101920580454577 -0.16165862548648288
Ni 7.456521309030524 9.092802017953455 0.8171774188524268 1.399248847758803 0.0017694331955969524 -0.43422924203420055
Ni 3.4095299019055614 1.1498814785880545 5.665013698762637 1.705523541427185 0.8244352844099156 -1.8127028049188652
Ni 5.18620680942279 1.0506645535170571 8.375880112336187 -0.9962752213047746 1.1263501584477054 -0.12826565184833394
Ni 2.288667249091355 1.0451914180476414 10.962023481976237 0.2505763716648136 0.4022871419099653 -0.33007282452924447
Ni 7.269089768757082 4.2144077096663946 1.9731904903341186 -0.17285500842293458 1.7603518021209748 -1.1464950088266965
Ni 5.098141631366268 1.7145484140999017 2.6231608186494055 -1.0109035127409107 -0.4466633540324953 1.9629932977777222
Ni 1.03312436851439 5.813730744438339 11.892579797422314 -0.5377207722616482 -2.48928320249461 2.0574360875393403
Ni 3.3634939211397747 8.714856796271917 7.181702661750184 -0.8076272117136414 3.279141263150288 1.293614817267056
Ni 2.154425992944744 7.838622751333035 11.662927593514924 0.1440493970451519 -0.6030584171271937 0.6367126148465292
Ni 8.491037310966318 3.584119187451278 12.908982149307965 -0.5824129729627001 0.7163355659864954 1.9752618307324303
Ni 7.659877245166346 1.1159592464636205 12.587318692709532 0.20709927431778527 1.1133005243525986 -0.38792161721691254
Ni 8.118649283148779 2.9986711488345668 6.756408280383065 -0.6188483329715987 0.02937331095579457 -1.860599628600144
Ni 4.746441308437391 4.050363082729842 2.326937168179975 0.5430596679760583 0.1749316884463052 1.4921541178299722
Ni 7.1767936515066255 0.7176999127582269 9.93967446566503 -0.6750953283897857 1.8889792081841015 0.5908420775666599
Ni 4.911149062708974 7.284201600138507 9.508899476971198 0.48129791338722927 -0.23689887417772107 0.4377560242405364
Ni 1.5455536817046627 1.3812475397627457 6.842103945694551 -0.7316642259237657 -0.1293740544211643 0.574204726120295
Ni 8.203380144886902 3.456649301979286 4.090652271252742 0.4325531398833583 0.630303883106708 0.8288727513559789
Ni 3.6485172575223057 3.27356077875922 11.276975342758421 1.168912457289948 -1.338525304626501 0.6092149236468928
Ni 6.012995838704527 6.924067418286621 0.15715744247384383 0.5289826210577019 -0.23864079656949228 -0.3574193348629974
Ni 5.15937350190806 5.45173793808404 11.72008076395519 0.3040882275400247 -1.3743538842893364 0.36613923123449843
Ni 4.293291843070295 5.016679707195203 0.3797543451293635 0.4494748553393614 1.1805238162766314 0.05031751730762948
Ni 7.631661644051831 5.119641900735885 5.696440330550162 -0.9920516701417302 -0.22296658036734507 2.975527404143521
Ni 6.261416414157638 2.664118738400309 0.6507838267784033 -1.8893522752528042 -0.09973566272944114 -2.4716199808868917
Ni 8.884299840104925 1.411816775925541 4.906532388882128 1.6099774912990596 -1.312258400510172 0.9070453432026637
P 2.439916320408283 6.070603858457697 4.8777984276676944 0.13334795146724776 -0.020198586435061987 -0.0922861484299314
P 4.637529648524663 9.003700119697095 4.132386330180281 0.9285613628975686 0.8581897551525414 0.4702457693381256
P 2.866848906487579 1.1552892353061293 8.752455182186049 0.3897851527882126 -0.6098312170746529 0.23887708095001442
P 5.934008967262805 2.705241972993889 9.792437781716124 -0.12971472559003466 0.05062604968698378 -1.4181122603222094
P 4.708801827308131 1.252824992485497 12.360742092061662 -0.03024671469968339 0.906900075874051 -0.6211016477821496
P 3.1736527068883307 0.7062950565778453 1.4179110095326977 -1.4955078647935534 -1.2709525997828497 0.6513038823971429
P 3.0191907369340663 4.832853338067143 12.435487750505668 -1.6541698695455573 0.23697317905908225 0.47013006969586774
P 7.01142276990001 4.492640995731066 7.686185654706022 -1.7960155740711714 0.41242268768207035 1.206765780692296
