# total energy = -381164.52870564023 ev
CRYSTAL
PRIMVEC
9.27781907383777 0.00000000000000 0.00000000000000

0.00000000000000 9.27781907383777 0.00000000000000

0.00000000000000 0.00000000000000 13.57902603088282

PRIMCOORD
 96 1
Ni 8.425864701078185 6.401064207969489 5.672569861266097 0.5248166626054703 -1.2448433042903075 0.11969333679829063
Ni 2.6798052356317825 4.502711109807564 0.8079041271780348 0.9123114766976094 0.4145752152486989 -0.015244584863896326
Ni 8.29839674604306 6.439372322558617 10.749115930860645 1.621155876513382 -0.8972910920293772 -2.0078472208676197
Ni 6.33768742648285 6.455450782859648 8.787897259038157 0.14637470274421888 1.922551130602276 1.8707619138451266
Ni 5.440707887011583 4.256255126289621 13.20071465291801 -0.1337791254673954 0.33118714063934573 0.06498900327687518
Ni 9.11133780114806 2.5227317602154757 4.073218602225648 -0.019785410157043343 -0.0172803843470025 0.2902775469091775
Ni 6.035137749381506 8.888837146249427 8.42229552411465 1.5819735498869658 0.7348495656302828 2.1493321996197046
Ni 6.467196501694676 2.242068458099782 3.7961792162055006 2.1395321828101475 0.6274808118356161 -0.7336509173364913
Ni 5.355528230910158 8.390766711857873 2.191261265774042 0.25943665026892093 -1.4686148970574515 0.2973740487446427
Ni 0.14493159371061753 4.909840362508 4.010334472927113 -1.320375630300668 0.780931704700326 -0.5555518869057982
Ni 1.594690082782378 7.433982351209198 9.092800718816001 -0.40140371086374743 0.7811685033014804 -0.3897702403898771
Ni 5.847874250987958 1.9447236374490304 9.644910737667674 0.4588313568535969 -0.6012663582237774 -0.5250102666735152
Ni 7.7309746147385185 2.030589852155346 7.427401594203126 -0.4165552217932052 0.4274425581296703 -1.6121696138543717
Ni 7.872016018948719 3.862485932927607 2.263053029080089 -0.33198675372250563 0.2997597753679999 1.0308457601907923
Ni 2.1813544106618425 4.133787915687421 3.5754793859718577 1.1873750348705099 -1.545398064755777 0.997543546494237
Ni 4.174814431239158 7.94612723700102 4.824043731444072 0.31543964799710195 0.32546232234042655 -0.13374724378819547
Ni 2.9843867550908456 8.74667312594204 2.8130170884005294 -0.8402714801112238 -1.21790688491078 0.30397998409693455
Ni 3.8970365308278034 7.266090938856363 9.589019300538146 1.261579386098066 0.048063688276446255 0.12942676203597067
Ni 1.641144122440349 5.5091132463881 7.053421060954251 0.11638869790508988 -1.1489226444315825 1.4226595133732596
Ni 8.246264681166261 1.8333526983529085 9.539536980763465 -0.041481921293870495 0.44193432398794213 -0.3417518035290695
Ni 0.7603868494643811 0.43380019893665894 3.237172066720366 1.9121145086499844 0.8231913847004855 -0.25234040554377185
Ni 4.7581480221030015 0.8338838758998742 3.523730495019139 -0.6129214259642025 0.18603474033800219 -0.46696812702811835
Ni 9.067342383521119 2.0536730657900635 12.748804151322602 -0.2366070539689151 -0.3081839948759531 0.05228981054265188
Ni 0.8394524228546805 9.235326574063803 10.769117980810442 -1.1984086669768523 -1.501025452177673 0.2206901256283425
P 3.0746970450909834 5.4156392201140715 8.884973862424067 0.36544426205000285 0.8725766200018328 -0.6476685996374006
Ni 7.241337717804343 7.968644503677652 4.254064633227259 -1.5871373534760924 0.6615379014203252 -0.272251285535086
P 8.944856617280948 4.357726632528732 6.673059243807483 -0.06872095951548164 0.11852297063927329 1.5109920764720817
Ni 4.629483228418811 7.418952284453473 7.229473242886305 -0.8363680312917597 -1.0112575536462196 0.16160360387883138
P 8.895591398470518 6.503621219029847 0.7039832767268799 -2.6794551049294366 -1.6599517663346575 -0.14994699347650953
P 8.556283002550543 3.819835799053492 10.700367486567682 1.4070876270769315 1.275035511602972 -0.2496608018290797
P 5.113126654288667 5.180854732879278 1.699306769657409 -0.3656599776052348 0.5464301271101879 -1.3295644958887876
Ni 0.24620641018724618 7.746765462651014 4.132056674664817 -0.25799580405733635 -1.2434875615933616 -0.5498175555251822
Ni 5.875828319589809 4.680919456871735 3.596676419006922 -0.3317406991499706 0.3034981593645096 0.3466518119338482
Ni 4.145125410487109 5.465897165555899 5.578698744339511 0.2035408675425656 -0.7146116413168532 0.08964305438012948
Ni 2.489804780637657 6.987821314038803 11.624026322312258 0.3272518101406815 0.664284868037843 -0.6015005857217706
Ni 8.959497015639304 1.7521810600530106 1.6474484004406666 -2.182469605603622 0.24479447487571387 0.7410749777147042
Ni 7.344145229977296 6.224590813055515 2.7716417268549556 1.2619239139216782 -0.1430975746548439 -0.7579853803167979
Ni 7.736587695224452 4.402724054606056 8.892415601031948 0.2983420690848668 -0.20540903109955594 -0.5534320123493178
Ni 5.29812636484987 2.8799277911385603 1.6080009696801791 -0.8070188887056811 0.8737055913999534 0.9065385787695742
Ni 7.8080732905039945 7.640488046177666 12.511035917502227 0.03154049381044246 0.9193879239284166 1.2325786279903417
Ni 4.210923702728837 4.0040747284579234 7.737586916329139 -1.6495930488081525 -1.3143607915651558 -2.8593150839152948
Ni 0.8055828168679839 3.4018143868646487 8.439242388272678 -1.0993450906137712 -0.18272753034164013 -1.0244899931760936
Ni 3.8749645994624524 0.6809278965491171 1.0464006697887334 0.43733436332208553 -0.8377016625015186 -0.6993585718125246
Ni 6.339626490650718 6.700459426615928 0.5766062443178095 0.6559478089270574 -1.6801652651680548 0.527599110446614
Ni 7.650610146690317 0.6467113001323812 11.316638262610228 -0.5035924631193713 -2.4897475437255383 0.8178182933140302
Ni 2.951302052590282 2.3942154116350456 2.224298651397782 -0.5867540235402152 -0.05856407358713785 -0.487613828302928
Ni 0.3104673678231567 3.792141509383222 0.4806717404489556 1.5546031282938129 1.4340595276800852 1.1601383106417438
Ni 1.9874016047801004 4.05094626997022 11.97292612749894 -0.2276285046193886 -0.29082287788968625 1.838295822896621
Ni 2.777138834603577 7.3823605663765735 0.6034803747898045 -0.2233141935147509 0.26498380533939525 0.47827866694493115
Ni 2.257079969217536 9.195413396790268 12.481840476720183 1.7714923921188264 0.598782415459659 1.2482595290607081
Ni 3.877952057175627 6.1356443624461745 3.213734440400421 -0.353491717673817 0.051767876600910846 -0.7267171663311356
Ni 7.044416009847396 2.8038867867373756 11.732984100690377 -2.2829303194245454 -0.3041041683796246 0.25395274433621423
Ni 3.3815052411064506 2.448806098542875 13.102633261736026 -0.45834978923148806 -0.21244125535598896 0.8443585056964038
Ni 7.538496982075393 4.209596974613979 5.0983674998473045 1.653828684156055 -0.6263209871995601 -1.2149771128584945
Ni 0.8805559443039931 0.548515791776879 8.57131214152437 0.8406471182830876 0.9981639536870551 -1.241734326347681
Ni 6.600203314663855 1.1094137607711594 1.0674297743001686 0.7788329131897684 0.1765561114236056 1.4064924166950938
P 2.5016896667574615 1.3976013740837006 10.725067824051488 4.011602788164368 -1.5729608048653942 0.29220998804519993
Ni 4.642481452816817 2.917883348606257 11.228632582845968 -0.39607175712787274 -0.7745885360911176 0.33117531356480384
P 5.477661440028899 1.8639045562705632 7.5959851318522436 0.03970708878163484 0.180237931150567 -0.9776064412506776
Ni 8.712196750593723 6.5266116544747135 8.174574046087152 0.9475556446118844 -1.8547665668581348 -0.779618128095225
P 7.341565996299462 2.962157100802749 0.40727305889470355 0.14595098494323896 0.9550375548112262 -0.5800773828509881
P 2.4032983964213757 3.415285780030891 5.6082059198394525 0.8712028795827577 0.7738750549638608 0.4829773579721811
P 6.697230745609143 8.081230837060811 10.483741546650359 -0.034633788023785514 -0.7121397827375929 -0.3768476187909381
Ni 1.597733207409463 5.853450220197953 2.4376114821555555 -0.7051620658681791 1.567407736257649 -1.165346851425877
Ni 4.510059142443696 1.0246144952481206 5.844793087303035 -1.164907192785297 0.25429830060109104 0.4901607630944978
Ni 2.6323863027993704 3.524114596725118 9.932215102612842 1.8241308442501487 -2.3452780284238317 -1.79898828354625
Ni 6.563398206750299 5.211285979150127 6.961369324330627 -0.34770519289902696 -0.2480708316341405 -0.34451008300049696
Ni 5.408133464555195 4.468921293064138 9.372461088699415 1.4693412337005147 -0.5518497554638625 1.7247764761195263
Ni 8.393726336114092 8.507852787448764 8.99683838149019 -0.7773709839322612 0.673446222822137 0.9743758501285218
Ni 4.300881435607543 3.1430652931915604 3.984493891490049 -1.4637999921673113 -0.23989883734630943 0.6339417369696115
Ni 4.218689237219294 9.345918176365183 10.95159319682582 0.33001291782558645 -0.11255672575350938 -0.3671877271036708
Ni 2.5011608310753157 1.5187511343900288 4.489415995202037 -0.2913065023943241 -0.3580294576431705 -0.11817638593313196
Ni 0.7830933836483073 2.2689370218803857 10.73722083913996 -1.8304660424395574 1.8007690295957568 -0.3285571592156664
Ni 5.672133803773802 8.828410711200023 13.489377290562585 -0.7990163301161788 -3.8296003089142103 -0.7889358059517251
Ni 4.0140298282288445 0.15235013777103565 8.074876458837975 -2.9618540204214856 1.477933860465532 0.37097341939834816
Ni 5.691478056357559 3.3747509888853595 5.80265694460069 -1.333396210930052 -1.7911027101505865 1.7952200747530693
Ni 0.2817089123153052 9.285890687532136 0.06086991479688755 -0.44921285992722637 -0.6938744087695018 -1.0049982030000693
Ni 0.06176893545653552 0.8645479954272479 6.020559512410351 0.149140181304498 -0.5187866543613066 -0.3659050037365053
Ni 0.724262733464326 7.807887734124295 1.6965772353120177 2.269922594310968 1.1792061259064723 1.6823604730471606
Ni 4.383027244900868 6.487106701236519 12.94332383194433 0.3207998838677507 -0.0832752031805727 -0.5056676004808451
Ni 1.0289194032571678 7.892176719603158 6.7215228590576075 -0.3114194710941152 0.7320069539751651 0.3782727812732388
Ni 0.8479008048224352 5.913190096642466 12.73265889072488 -0.21292462275031068 0.19242958812075248 0.020889441854499508
Ni 2.2307216854811083 1.6481581535930205 6.9055316985512105 -0.02382358478215897 0.3862817676206444 0.1930548804095772
Ni 6.22761538204463 5.7478779179674655 11.45700424159832 -0.8776825737698304 0.6997619778985303 -0.5833491116237244
Ni 7.975630701373369 4.720248131549214 12.605287425007198 0.24508012443693275 1.2755605308685065 0.9476937128516452
Ni 3.9972091424090124 5.05622579045357 11.04388986787065 -0.8051352985297231 1.9585949115997106 0.9329895738722512
Ni 1.7868244361430574 6.235816974027383 4.988716668391004 1.4050117183845094 0.5542658211045227 -1.1429587135386636
Ni 7.288858706645591 8.049918197986385 6.762517830024796 1.4177271090686487 0.823274431332595 0.7246852235027713
P 5.963642876282979 6.863693373838285 5.713116713576309 -0.5741311925698822 -0.7328407627303701 -1.6526886570143406
Ni 1.354301792880635 5.3643143254889685 10.099305839187272 -2.4088143584145807 0.4858546795199761 0.6186493295869152
P 5.497302582820176 1.1692093041295821 12.436079490140392 -0.5674131571197583 2.9070537847521547 -1.7966488367797961
Ni 7.825756813489433 8.398448745977465 1.4854363419786363 -1.23175124699304 0.327274692958817 0.8647221569544203
P 2.0561224100021076 8.554501661305421 4.944761145385698 0.4329151512084673 0.8351830098447228 -0.037909630561579866
P 1.5324451952119111 1.5913871792237126 0.8322342796843386 2.0919045536298553 0.11291102376913457 -1.3662500242352793
P 7.991885440235115 0.5715535440985703 3.4254718974945386 -1.570395101020747 0.7043953629054837 0.4259160941828149
Ni 6.71028463692106 0.6984592633032017 5.54503603371618 1.196382637685759 0.33934267986694455 0.0831286503003794
