# total energy = -340860.03887818824 ev
CRYSTAL
PRIMVEC
9.33595134402372 0.00000000000000 0.00000000000000

0.00000000000000 9.33595134402372 0.00000000000000

0.00000000000000 0.00000000000000 13.66410848440253

PRIMCOORD
 96 1
Ni 8.983696442652958 1.2103407237631654 8.378858440634737 0.040924506128503714 -0.6171372638177629 -0.15530311558210028
Ni 7.366737699538335 8.480675391023796 2.5521139023693244 0.14605897127601297 -0.46904840659591474 0.6801416325644416
Ni 9.003712722064481 7.840611911464708 8.891043661979548 -0.296582920301915 1.3596147783069488 -0.25264945214375845
Ni 7.83569186517279 6.189296867867619 6.546324181538976 -0.8342622978026665 0.809252148911574 -0.5712818960465451
Ni 7.0403061651988095 3.7902374833623194 6.968012293346628 -0.04698819582408037 -0.48172625917389933 0.26028331453993236
Ni 8.287365185102612 0.8752482274786443 3.746616184891048 1.2827146254147845 0.4632978772653828 0.7488620778592909
Ni 8.823846285897305 3.06300422728019 9.445151038673941 -1.1898854599971895 2.8473291151980122 0.8574443923460846
Ni 7.926904108573251 -0.007167209750105922 10.464589298335062 -0.7103217556922476 0.4928737911502867 -0.37831520447540007
Ni 2.867733471603213 5.754848377935121 12.043749575753118 1.5108704632925527 -1.0791848136158124 -0.9242894749950921
Ni 4.95200325293791 5.2002181879725144 0.07380909673487353 -0.9957540586939819 -1.7511768204899258 -0.6388520297870353
Ni 1.1411239814324563 3.0906573147880883 5.42197317006489 1.7922003140901392 -2.589697379348314 1.2602295569383908
Ni 2.3978177029932977 1.3457680321323675 6.846989424111773 0.27700294128745845 0.16131204078034153 0.37630665868580354
Ni 2.7139330112368647 6.894571966684867 0.8437011147176922 -0.5644741290960924 -0.9583504212345431 -0.11704844297627584
Ni 6.770879948996769 4.072211218001435 11.733889354825651 1.3236121349600947 -0.24500376267304255 0.028873231390924466
Ni 4.825706504859972 8.970280680752603 8.665340506117056 -1.376450876027681 -2.5130278544097173 1.4910426299333484
Ni 2.770004734252543 1.2635556457061166 12.334153674342144 -1.3273407487645914 1.1412887820354085 -0.8790550286373248
Ni 4.564290534803028 3.074431431571097 11.837435323380296 1.110107471336598 0.04240803265256567 0.7098545862478419
Ni 1.2732370271192466 4.046500008346893 3.3702111708714826 0.20904842762435608 1.844527662738946 -1.8423656220906208
Ni 2.911743145645155 6.008655547749344 6.488907147952775 0.08815695675290625 -0.8123397866979624 0.9413423167123208
Ni 5.55058710123515 6.457929528216125 3.582619932199455 -0.22756808369509837 2.825884315060675 1.2624489331872129
Ni 3.2847330687091536 1.7002914436870404 9.197037865507616 -0.16822676562230385 0.2326069316705865 0.2015904286844141
Ni 4.796933103205906 0.6063121487155516 10.959585166297177 -0.9101013564201681 -0.8738302899032756 0.26980590931838694
Ni 7.424051104066016 3.587843396905961 0.7778238421376839 0.9689667632978086 0.3796642623041268 -2.0633779069450724
Ni 0.6146977000996146 5.220122435969422 6.029971391570423 2.4307564099033105 0.6190913022203403 0.5701629519507535
P 7.019020196421629 7.821827977613967 8.064215411898259 -0.27890015831017123 0.8374934031454544 0.4765894521679663
P 3.7547515327824668 7.532133411317515 5.30805495970698 1.0786865338231553 0.028808696701576195 -0.12251743651064706
P 8.429822464739015 2.5329742687771764 12.808981086887881 0.06756113487942558 0.24974282001992473 0.15181104326844178
P 7.832424282246468 5.328876931708622 9.726426444161946 0.6858014019533802 -1.9591358717048455 1.6881881354725314
P 1.0898229294892077 0.7649738388811438 5.124682873857422 1.0493916415137798 0.8944927033486336 -2.4206316627644826
P 6.940299455750934 5.84775976445727 13.140540859231487 0.4113911610937624 -1.3425557659421328 0.03551747618031948
P 1.4387541062642615 6.907296868195085 12.908702116228485 -3.0648714392259926 1.4006105039930201 -1.4945239036137294
P 7.012587726032385 5.378096066530243 4.4324594348430235 0.8047504043864785 0.08239511456846454 0.8214204088429917
Ni 6.698657030373845 8.104987378057778 4.999177814442775 0.13357883653113126 1.2844845728310137 -0.33974171507757617
Ni 4.064154292100248 6.620132344678728 8.74397722322679 1.5591372687187406 1.0638921491227997 -0.42331336645264517
Ni 7.977729027004379 7.48683537600748 12.184176285999591 1.465853018041598 0.21912920889912585 0.7557433783601566
Ni 2.4045489238215203 8.87993668081542 10.608909100239469 0.645889653360107 -0.4646862729724771 -0.8229486725620601
Ni 6.618302498239988 1.9255679465788675 2.4832463246141705 -2.030607397382271 -0.043269352211596446 -0.7642203054829161
Ni 4.575932465971951 2.637294187687797 4.92637606684433 -0.8548606907793084 -0.6655380237186538 1.391060912631372
Ni 9.04827321722829 8.012860211437946 4.299972017512388 -0.14367298754233965 -0.06474089182181109 1.1763288043586775
Ni 4.471724578475947 3.3961576464967194 7.210632192816248 -0.8216019287261785 -1.1432734165656053 1.0081640023225604
Ni 3.855327735254645 0.4790734031597113 2.1542968842311345 -0.024434478893280497 -0.7190653062128326 0.25539719009222467
Ni 5.20332705972813 4.951247040889247 5.692276032086306 -0.2228771059773323 0.7398771007518612 -0.4751501486182785
Ni 5.999879753604366 6.822927877037463 1.2985579940128733 0.5777921863612371 0.8020044662102253 -0.003754581946425792
Ni 8.579169676374345 4.102842473947895 4.9249542014738195 0.08282834545114122 0.472359987467651 -0.6799079192870806
Ni 6.823506706012982 7.083270212704329 10.327510460195386 -0.1482590642511253 1.8692040824397034 -1.0724163845437273
Ni 6.5520359164941855 0.8811345447216322 8.404096317562525 1.9160729790771003 1.2769543258922396 -0.9869326037476099
Ni 0.1888214805755403 7.322401267203761 1.0375705441168384 1.3299563320105676 0.6585811327848464 -0.892598057429082
Ni 2.568152132966832 6.1758250902599565 4.05060222531211 -1.4990346469998894 1.0777416534113826 1.5171652951623291
Ni 3.9224065447564183 5.499211361682157 2.5334074569136944 -0.4885214277188619 -2.188178740173257 -3.1307721556838595
Ni 0.3662092216943205 9.31027735221197 11.78437817901293 1.0583920452401772 -1.7530380420683809 1.406078469086127
Ni 1.5019678319617569 8.633262177731796 2.703635457043343 0.4688023520233798 0.17417347012404194 0.9541970611878017
Ni 3.548921816277862 4.327922921864143 9.567786226684158 0.06169721989948085 -1.5290995847060698 -0.03615639531589903
Ni 0.9524163994617764 4.5714792172409355 10.96689521610092 0.38219808446957404 -1.167158707823635 -0.9990247590254536
Ni 5.47839219046588 7.524888713172299 12.759476271958986 0.559288985350727 -0.6783827408918058 -1.4212628901360491
Ni 0.5761234168568274 2.109532865330772 11.372828910228092 0.3977460595065021 0.2463952437039305 -1.4422379497258193
Ni 5.4849366922697405 7.163466033667479 6.786442979677278 -1.5948408927679372 -0.016393096646042736 -0.8538178513370908
P 0.9141212611604094 1.6108343591155736 2.286879528264193 0.2769538332170779 -0.2052290538782659 -0.2256688097898565
P 1.9463497739902729 4.667938265225948 1.0859895879190715 0.56027037542739 -0.26534196000976235 0.4476321457036678
P 2.3023202579837454 6.011316293846493 9.379453949952442 -3.5000046811317014 -0.5564954817659901 0.7356365803079524
P 4.738144618385772 0.9144750937115739 7.059711873400673 -1.5113222061179907 2.050690541285391 -0.8924646171750114
P 3.2001866944783877 4.178622389984901 4.5738281425674 -0.3426748295639711 -0.0029950780725819387 0.19240310575819122
P 6.5246068918155204 1.6444624554030316 10.458167097492158 0.612194575100507 1.6490713719767276 0.08942708171458147
P 7.774793455377373 8.50830047067804 0.413812303360095 0.2790289705785517 -0.06646584493271779 -0.4098572409477393
P 1.3542544117895854 -0.002225690770385895 8.673169634808522 1.0023450816479382 0.6871229489782812 0.4389292186130312
Ni 1.5256438042507612 0.012568991124876387 0.4338939344301456 0.057604023666713695 0.07800752702373016 -0.3098277011269632
Ni 4.508330843201967 3.091852316544 2.612440951950195 -0.679582674737178 -0.525479750110766 -1.15810302537927
Ni 4.272924833238543 9.295731940214232 13.240138654016013 -1.0174929930329704 0.2987007379758662 1.1452212843205956
Ni 8.444069126297777 3.1334253073180287 2.858545028414396 1.7378651909826845 0.23118845405650507 -0.5820923563984879
Ni 1.228443133174987 3.35959806152679 13.176668189660019 0.6327482308821426 -0.10213707308208217 -0.16488176040947086
Ni 2.6066162519852463 2.1809435561977257 0.9498620832085147 0.6447074601265477 0.1890089924749777 1.0638854642545805
Ni 6.037064847305906 0.19881001478374447 1.0157066799592598 -1.2584719508173359 -0.4344189894475034 0.30920215172782234
Ni 2.8429371851680405 8.32031175695115 7.434751037757037 -0.30250365666172413 -0.09400930176862518 -0.6342183876697658
Ni 9.185567715841104 5.181751676463189 12.988486221742916 -1.3574748491458106 1.2292397934250958 0.6875294403880805
Ni 6.253341493223522 5.619635796443934 8.416967793506865 -0.8537183496447491 -0.5368764219834818 -0.9673335985697598
Ni 0.05176131433829916 9.189703542230705 6.571000967798557 1.1260562813563704 -3.8485339125939206 1.3706427539863362
Ni 3.7281067280061193 0.2867817495164175 4.9132310475293 0.7576097421449339 -0.07374438087200202 0.3279274960514675
Ni 8.01399919748655 6.236060647518889 2.1661442063268543 -0.13740360959386014 -2.02115293683759 1.8751021930916931
Ni 0.12753562880457467 5.652489008780293 8.36988098994345 1.2108160395022696 -2.266933429775657 0.9399971155383359
Ni 5.175645964366577 5.52573479909267 10.649929402701387 -0.19770677735929176 -0.21397157595758634 1.2209533850465875
Ni 6.435812659780537 1.3377577859872707 12.748517732419225 0.5744294405365914 0.968577755389506 -1.0934107274072074
Ni 5.790175617344266 3.3167927251919775 9.122527638836265 0.6114204159386438 -0.32601485240978695 1.3960681360379763
Ni 0.7104882939774143 6.81374130103889 10.763204366020373 0.2979468905289772 1.1881216832285473 0.590138366631416
Ni 2.676906628706033 2.0000408294453456 3.6364837027520625 -1.7967840768060799 -0.28125528880590916 -0.14967959874773573
Ni 2.051500592559301 3.7279013370793215 7.840533489474476 -0.9248995977752652 0.06913465001413255 -0.27368210444434155
Ni 6.779805118361236 3.0654129026944497 4.665609878992163 -1.2553097510392701 0.27860550988788796 -0.5172002837107932
Ni 6.281517393999632 4.547840588756803 2.397231405256804 -0.11474499165407981 0.018727144095858073 0.7729258036767139
Ni 8.40870454308376 1.1561922066984078 1.1252351260544373 0.658904063341904 0.1467120314789796 -0.7972114156969561
Ni 7.978009105540921 1.3488115522294555 6.071919687583417 -1.720975100095565 2.270092287119613 -0.18973044402203454
P 5.422861952620849 2.7803396322509375 0.5145229435298132 -1.2191345866702938 0.07658107898984876 0.14784794485563568
P 4.568557064509682 7.701412878803409 10.777893551666871 -0.49664097150220265 0.11552892100795588 -0.3381723137079272
P 6.040911259207748 1.157601935332335 4.382708150801973 0.235499165616717 -3.259475923510877 0.23844873516334417
P 0.6005247925554752 6.392391150665332 3.2772409678566596 -0.21989076965549872 -0.13210405175781767 -1.1062479883811915
P 0.719684205927205 7.080506771143783 6.845198788668149 0.5510226315768768 1.686816451935985 -0.012402230319094768
P 4.181031065399162 7.638441887837583 1.9936344997195117 1.1779889656699196 2.310855070859272 1.5982764008120474
P 2.6289198394451954 3.1360020298542137 11.149215140248202 -1.2297288172463723 -0.3959812542965954 -0.2576368780560208
P 9.121793833070525 3.3422518641636314 7.296251267841971 1.0342570998651863 -0.4066186794057836 -0.5999584380456312
