# total energy = -340865.7750512407 ev
CRYSTAL
PRIMVEC
9.28323267633256 0.00000000000000 0.00000000000000

0.00000000000000 9.28323267633256 0.00000000000000

0.00000000000000 0.00000000000000 13.58694938535344

PRIMCOORD
 96 1
Ni 4.710154339238501 5.874178858383043 0.4320732020444383 2.585292308302083 -0.6853620004231165 -1.42953052946148
Ni 5.941222363265903 5.089504350804994 9.515158249570831 -1.2817931420417796 -0.5262950469232097 0.8393885632856383
Ni 5.578238690540242 9.398808712081445 7.410919591172549 1.0988573523440752 0.18241102754248584 -1.5768683674499164
Ni 1.3059465771131349 4.858333295890428 10.387236247480246 0.11052966802115159 0.30873266829057155 -0.06182680349880965
Ni 7.473271350366155 5.974428485803427 8.212291848990532 1.5893446455400564 1.243248191889046 -1.257596490190918
Ni 9.021714526004642 4.4055993316655275 8.669913435109759 1.3440122958830014 -0.9174331141948909 -2.0173677587635446
Ni 3.0219799484938368 8.911076961452725 11.345917521082294 0.827784917608439 -0.2056723120632716 -0.07667081049017764
Ni 6.960001427218362 5.133181959566259 1.894686395254862 0.05802799857800974 1.4713410377393628 0.6005785881281335
Ni 2.0929047598782775 5.930945824923986 8.528636561797683 0.2873302913553955 1.044675466985033 -1.407022063946319
Ni 9.349143418378413 8.122206432799205 4.824454138998985 -1.8338750681211062 -1.7222992182236272 -1.0447304885926845
Ni 1.4763960084554506 5.484236678570725 4.892225449307325 -0.1119787417628523 1.3000022088506387 0.506166908714767
Ni 3.4746582133239294 9.241476488216211 3.7124983424434035 1.117730020878862 0.21699956415063273 0.2796483493301055
Ni 4.182439706370722 3.9947791620330007 12.164096142960085 0.5770187985303223 1.312629924916978 0.42636886544951735
Ni 3.373990840442492 2.2753017114067244 2.6410044429222217 -0.15870031418910735 -0.5970410072885202 -0.0755786058672634
Ni 2.0901105069054524 7.320125864343924 3.3251610376615663 -0.11920662696985922 -0.817151863374625 -1.19215805808145
Ni 4.9510263720819765 4.115080571583954 2.652511937889377 -1.1139191317732042 0.5158568823090213 -0.3616919940964222
Ni 2.1894318110790505 8.194476397561468 5.386980893621225 0.6665345833039682 0.8015082433000971 1.3053884128632163
Ni 4.255591578217433 1.3081374199755493 5.609480481087567 -0.7946063739739412 -2.253813090343615 1.4551124916956422
Ni 0.2516712171733336 0.7350955479369676 6.06718375965251 1.7670564678346599 -0.9534221306949903 -1.2055391073740462
Ni 6.520728150071855 2.233879928135148 5.996857703769015 -1.1333787831597126 -0.07486872428443235 0.5564939391040932
Ni 0.3978821285420755 3.4284184324015357 4.500391346718059 -1.6316940570405447 -0.9988108432424347 1.1373997313936477
Ni 0.007028335301414255 6.207456187211564 11.887086342765736 -0.6989551657265188 0.37648715012772577 0.18046495955970857
Ni 9.13211072651239 5.2097314944962045 2.999985185807744 -0.3393282816892414 0.04796958590074319 0.9238387606109187
Ni 2.320056175134261 1.3375559836661868 12.92612049163981 0.6869555701624814 -0.044544105158962 0.6464300992446093
P 3.537812043802758 5.671247396635698 4.324006216535795 -0.9273308329245771 -0.07751001856202136 -0.023671375475010845
P 9.56154377724297 2.7618080753496868 10.10052454103374 -0.8241591479303934 0.7822648216894528 0.015538461955231304
P 0.7381766527930491 5.32400808617552 6.873909657634706 0.291620176980001 0.2616136033155817 0.9652234942052924
P 4.360454972174341 2.9694182862608325 0.8375815060588581 0.6294551619531675 0.734012157330652 -0.6816395572662067
P 8.21352559058551 2.9858960238912777 2.8835177512660146 -0.5472266548695544 0.08719022196426275 -0.3677392287317667
P 8.454936050912123 2.3623691487227516 6.604004315248009 0.42568083824355724 1.7628041203162095 0.14505572682247922
P 3.1492809153255545 7.882383405224597 7.5561919677387905 0.17863304855729234 -0.4192574512157167 0.2995175774502068
P 2.600771841729778 1.573350088349745 7.124506804811508 -0.3637203373803607 0.7070916787907242 0.25032311800342694
Ni 9.079047769726124 7.890311285752146 2.347675648372628 0.14976495937269046 1.7915765644632113 1.1076541247000988
Ni 3.8188804732320536 4.707898513748812 7.315308795016353 2.5832570230396095 1.8829427721820347 1.1885261177558175
Ni 6.826035099474723 7.71895209762798 5.871898896488937 1.7222269702247952 0.04271836480413288 -0.7568016444213418
Ni 7.530047600139566 8.156647225254952 11.959232840536178 2.1611605597132004 -1.7519450661145182 0.5596563959924749
Ni 8.079596395771743 4.602468842611363 10.752304005894942 -0.10442381223372985 -2.2485418146423464 0.6901661066799791
Ni 7.251773423683096 2.7187431599312997 8.650226484015175 1.2385489866411639 1.7467635219135786 -1.331876688961732
Ni 6.57488652828933 9.393702934224123 0.11982146643236588 -0.27862427894096536 -0.7914513732847273 -0.5776633740928567
Ni 7.528293069203142 1.0142859794380152 1.965882290020595 0.9012446773604866 -0.3335952358602061 -1.5098865021127286
Ni 4.808092441774388 0.6707497504092661 1.6644557317892903 0.35411829551422236 -0.1857380350331898 -0.2020727676374713
Ni 1.5430310511097254 3.5332725431259764 12.08867544909823 -0.5203977076021683 -0.9333636693822184 1.4788481447496855
Ni 2.001502052999761 3.0873896044623543 8.823093269092121 0.6987553910108869 -0.6817182330229421 -1.0644387656548893
Ni 7.488170938477064 1.1551775986026755 11.63673241627959 0.24283426582554954 0.5180793438816368 -0.39946432774918944
Ni 9.301520435818308 4.366581905603127 0.7774939272641623 -0.17866981533249876 -2.651680248809014 -0.9555183511023866
Ni 2.438946533350101 3.6722796660996613 6.219452908529775 -3.4766397811535157 -1.2075993323371845 -0.33388011409047663
Ni 4.7209878715284885 2.5885922407319497 7.908365316255634 -0.07624117915192677 -0.5132608394470709 0.016417522126074953
Ni 1.6802186605197107 8.866833075510922 9.141625111468697 0.9487026137321339 -0.4472937885276425 0.4059964724407524
Ni 5.424452661477728 6.611081851681503 7.350064289052762 -1.3712137959984578 -1.1909020741871619 1.0859452722680976
Ni 3.6670160732903865 4.405534349038253 9.690796079539432 0.7226044297143426 -0.14833722578722838 1.046390649903927
Ni 9.164045046201817 1.6115505899549751 13.334639347943556 0.6406384322634967 2.140364963124088 0.530746397826344
Ni 2.373546160614051 6.34342769316826 12.510740398219072 0.79461177329058 -0.0816384389080981 -1.7901532017531234
Ni 8.1219186525927 5.180071566761403 5.789167657058646 -0.3926899851398334 0.2917829278101104 -0.08756277481233307
Ni 0.8084219445540736 7.862322339861558 7.20778111334117 -1.0878131787147716 -1.0129660516968941 0.18412621046137967
Ni 0.962578374592054 8.344465584544627 12.227466272755414 -0.161200969123774 -0.44094624904306 0.4627196361644096
Ni 9.505101723838404 1.4277890032537532 8.211448931482451 0.3809151039920924 0.2598210301915332 2.2393498637304337
P 7.651221633542498 3.173556568229 12.663729925935844 -0.5195515575517891 0.3877331553551903 0.23399069939199055
P 1.1348287530331338 0.35960643275385584 3.432932868350654 -0.12744392727798695 -1.1644158549711752 0.6678815842501659
P 3.2069669218808157 2.4923251200402765 11.020428824294305 -0.005358693208752061 -0.6067726327539873 -0.4124836228269929
P 5.958322077471696 7.533222465643573 1.2849460486243498 0.6892484799617162 0.10053193337849138 -1.3126090989813717
P 7.320237263133539 6.5333069300658 10.613920716143095 -0.2584393193526581 0.48805682937761746 -0.2802582149999625
P 1.7427133814933216 2.9178499299018887 1.2568345640651861 -0.7717032441235225 -1.409038580155715 -1.418627509395731
P 7.625841275975378 6.446982151347201 3.8304464525637556 -1.0005967314982638 1.073547927045009 0.8699342972829792
P 1.4699163121928867 6.999687246018449 10.392549041421601 0.6354550882903444 1.1424699468277033 0.7697237517996486
Ni 3.0090855385959836 7.131852626663324 1.0217682648071078 -1.0412055061585619 1.743005083312411 -0.16165991103806351
Ni 4.6569428507327455 6.5657054113786195 2.647145301199709 -0.29334075921553354 0.3957030609345443 1.4942544520024266
Ni 8.70299330568572 6.514805447757362 0.6789199233042268 -0.6479365085868066 0.8956885234289477 -1.478303842210441
Ni 5.5979284266045655 8.980069945153835 11.307521143271991 -1.8158981719277112 0.44408196645856424 -0.05123565824652467
Ni 6.188425560652458 7.89293844054055 9.15367660385847 1.283703471690615 0.05216896869407145 1.0777552802581374
Ni 2.3939692720433356 0.05827549181697 1.6397001357672567 -0.6630913619503741 0.6977292637392177 -0.8317840114655028
Ni 0.7704340289723574 0.9196703458023738 10.982779746697664 0.6624696692059752 1.4443457400974415 0.02731437154423683
Ni 6.213471721850735 2.928089335313935 10.811950631147415 -0.8501815401360842 0.7586006453032935 0.12625196385241486
Ni 8.593376896705267 8.93085024660926 9.826176243587927 -1.0872750468231147 -0.8719448999551048 -0.6324862354700075
Ni 2.7715276197435323 4.693314555541809 0.4682388190927141 -0.8423306766330977 -1.4379889446414782 1.0788225451803872
Ni 6.631644211597805 3.7515863210725606 4.261737078111154 2.2572686529923836 1.5125874459836597 -0.23520117476032396
Ni 8.248839006893236 0.8920722239986828 4.004671374550749 0.38388215704021633 0.6233765598592554 1.8255997154861914
Ni 4.214206927875728 9.296600322610344 9.24238624499806 -1.2322418134762134 0.5784550167562167 0.09403706968276708
Ni 4.223731524387748 3.3115611020961566 4.874033098640067 0.4303414769440202 2.9798761680305197 -0.9658750117463624
Ni 5.684169656230954 1.8857401441255888 3.6774977710698433 -0.3164002121381583 -1.447331819308959 -1.776935417511269
Ni 5.531831811433426 5.7371397806925435 4.833448662937092 1.540129103047354 -0.3297722625696901 0.7389407049805209
Ni 2.1172918115713366 1.917841561999437 4.606804112173853 -0.09932274356173862 -0.9881633908309174 0.43352398843705975
Ni 6.474107756618277 8.506355875551579 3.1619274629165153 0.3942354752500823 -1.2116948425627971 0.0672698288912519
Ni 5.100310033397578 1.810406712648932 12.70425959056726 -0.4367337536236091 -0.5153418903458157 0.423469175304219
Ni 6.599357129074599 2.93486609501547 1.1863841128666224 -0.21597626509244097 -0.02584472897724581 -1.3006742952169987
Ni 2.1362017561083606 4.231631555217895 3.012675364591304 0.490803024664187 0.3710472100590771 -0.14526552884044014
Ni 6.8314843569333545 5.303018697565696 13.004626003650733 0.46255020046608086 -0.41361773643143607 -1.0901397699654192
Ni 4.363128543125084 7.667922168752172 5.699195496303426 0.08626950992220626 1.2937983940327717 -1.288818167209361
Ni 3.9555110886939673 6.929960886952378 9.889342142268964 -0.23091334601824748 0.013985515645814623 -0.21553043580427395
P 7.976831012352569 8.249878728929637 7.801870858354122 -0.23256682246127044 -0.1270312652206006 -0.5605969055288732
P 6.046122890152684 9.524875008994938 4.953407521209981 -0.32972238316836117 -0.19700975129226717 1.9114956441190627
P 4.127724334205175 9.062022321380073 13.358891792765831 -0.8329741751188623 -0.026923306753405242 -0.6131260857758408
P 6.139372960292304 4.410380196386474 6.930309008169923 -0.4898167494915177 0.4310531582990641 0.1950343727334512
P 1.3353465743388369 5.928207271345968 1.6573902635580045 0.47683910628492726 1.2346635355438282 -0.6570050465469781
P 4.70838124183714 6.250604651722162 11.793213367727523 -0.21170540563122892 -0.8631306440975844 0.3802887832620031
P 6.123990644093065 1.2204944222465148 9.316285417058435 -1.6842366070239512 -2.16033574981906 1.3628571965036465
P 8.890588867396167 8.907660731904555 0.10799277162182297 -1.8096923002273155 -1.7825774462883943 1.9096395647469306
