# total energy = -340876.57918671204 ev
CRYSTAL
PRIMVEC
9.20752517405457 0.00000000000000 0.00000000000000

0.00000000000000 9.20752517405457 0.00000000000000

0.00000000000000 0.00000000000000 13.47614380313409

PRIMCOORD
 96 1
Ni 5.679753995714829 2.8096118625205233 5.272325609316971 0.4208474214106558 1.2877509022871112 -0.9355149113972663
Ni -0.13641040661076217 4.688996661472208 0.8776456494013953 0.3045335426075594 -0.02775248752291995 -0.045410824034631474
Ni 6.802657731647459 3.9295231527627092 0.45941775669485385 0.10334909111231233 -0.8588798392410305 0.17194123835941355
Ni 7.8192329665547105 8.181659573530892 12.075959338635775 -0.5173753758360767 1.5973934839864619 -1.0600357514911871
Ni 7.47028617647333 4.108425367425257 11.321564700827347 -0.619009026919179 0.6115937082917144 1.0229383324182575
Ni 2.9370163887318292 0.30047101140122745 8.505037066128077 0.36021978042626995 -0.7218012170867569 -0.08328780158606301
Ni 2.5470776964539654 8.430750752803455 12.919754442386866 -0.5784120793334232 -0.733870489546465 0.18216111631520884
Ni 0.6408566445503778 3.463382981918338 11.163260640792776 0.5497962153689435 0.6391978431622282 -0.08213826136265209
Ni 1.04554210919075 5.2749727728123625 7.547893644138085 -0.8676868960096992 -0.19089001154777446 0.36853961314587497
Ni 4.3446904640923165 4.4064821657186855 1.2210697658669967 0.0027703636562855516 1.4055799321831535 1.720816205920198
Ni 6.6536983889397545 8.034155019805002 0.9021634475075937 1.5278837100210978 -0.9312571645621768 -0.5384633068546275
Ni 0.2764964572819098 3.4781058147153225 5.549611151508636 0.8529855852437827 0.7677077498108843 0.7105626680584601
Ni 5.666596442202076 5.989403068236778 8.08036298502806 0.07423340469327859 0.4971266528893697 -0.36108829907415235
Ni 4.2715735064682665 7.7416503592079975 1.1256448161850765 -0.5125455585476012 -0.42949892643806675 0.4323060568695587
Ni 5.425911733438361 2.4339632493551804 11.764417198932424 0.22577165391630794 0.7160995387162893 -0.8734675072472182
Ni 3.5877766473887966 1.796553902240194 6.213405582840659 0.7273907953593924 -0.6422119473982038 0.15646859664511115
Ni 1.3800422922311868 7.608343809342616 8.674189432354899 -0.29658780539792146 -0.4703229024329642 -0.07201994198172759
Ni 8.453281566971198 2.1766589576029984 1.617258526251548 1.744256439221009 -0.19287310341607428 0.6503890838923573
Ni 1.2843392752881855 8.889985279746801 10.908642184141835 -0.7302426629858908 -0.9455365572993264 -0.7252680925894348
Ni 7.072410597471888 1.3655220249886322 -0.07929060327156608 -1.1173068172985146 -0.34016877531266576 -0.8786292539538159
Ni 4.2472840549870625 4.77958029440325 6.070235011227053 -0.01736600208227332 -0.23938795914816194 0.20299193701763105
Ni 1.9909800043922452 0.39165773723295877 4.776592452475407 0.13405114818185945 1.2740875458674057 -0.96954911816384
Ni 7.984627741746853 2.031170851896209 6.166562298378707 -2.734463342844516 -0.8785744894564804 1.7637963090261493
Ni 6.496562763853237 2.6649616416070585 2.6674412281437867 -0.9616568598999568 0.7703063637759959 1.2691595124381692
P 7.732313928653812 -0.7294790746135288 2.9928489800478744 -0.29055342627838343 0.1337367022652342 0.06584775173274465
P 2.128264205144617 1.623903597189374 11.09237558727754 0.7969507058364016 1.1184003074730093 1.0402781092482858
P 2.484125846652224 3.695265296589547 6.937195327632263 -0.03810734839468276 -0.38657590182229556 -0.8321542503207282
P 3.574812451905273 8.557004338364589 3.019721142348062 -0.058126214718770865 0.24767411041635407 0.3319538436020412
P 5.114881532136207 2.505551757795803 0.8452885643387539 0.41469785686949223 -2.421621537481578 -0.7722742861356442
P 4.7202838321064515 6.9314525941641705 5.906782103099878 2.5223537597963333 -1.2072010684575014 -1.2230619467491581
P 8.637616221502553 9.41865375423365 9.725706304648815 0.8965917519695075 -0.8293239799607846 0.8202454146982842
P 1.4401029791196993 4.947728119630602 3.077439434825347 -0.5431501708073355 0.5170496170655419 1.1857354423845579
Ni 4.606377537840348 5.931681092749414 10.471354714268463 2.136010028589502 0.09240699027851182 -0.3719897764780045
Ni 2.4799088001099983 5.947665356498985 1.4702336845886506 -0.4548080946268167 0.6474719102455623 -0.8908515070516208
Ni 1.3690577146659568 1.2888233400612508 13.554978843771567 -1.8112868984079453 0.9261758933845275 -1.5960035456174706
Ni 8.881597224288356 -0.4722106922096322 5.981278347999092 0.8163093128686716 0.1872426446031743 0.264517407225938
Ni 5.583995733620619 8.38535765356072 7.270918395545705 -0.11522295973176284 0.04437826900505906 0.7270017874510899
Ni 0.9112420673561409 2.020591405439839 9.283472552237273 -0.2721983208099635 -1.0006455824583285 0.21291922343367203
Ni 3.083093776051506 1.0668299074563088 1.3637044595138825 1.5688519249033432 0.062173902425583245 2.0241500717927012
Ni 3.9276448176216303 1.6376043946890073 3.603426677973559 1.2289109493307673 0.2569660772412414 0.12060787819276
Ni 2.7890422512206707 6.907485406065014 6.6412056187465405 -0.10117805160292251 0.5605290284054153 1.2135817751728646
Ni 7.45722069821259 4.713304528003817 6.633456565537071 0.8363706023949208 0.46257102640168724 -0.6024364672724786
Ni 0.10311047096750076 6.338036802461313 11.239333214006464 -0.1551053977489974 -0.23286147088355377 -0.031217563253384952
Ni 2.2414062748190062 2.9113366009452184 4.635173152155101 0.2444499470521016 0.4444452633352539 -1.2912997959806343
Ni 5.758662486690539 7.230227579423306 3.1374218577496475 -0.5428439524208264 0.542149497456963 -1.0810429498704737
Ni 3.7331542627931693 9.239383238563049 10.843336890898623 -0.8246404584421861 -0.7387638130830244 -0.9042598100377265
Ni 8.877085536939687 5.402764015082126 4.491989690006214 0.015361312947418704 1.80419039657248 -0.008570258167514274
Ni 5.144557385860209 4.837762646150685 12.448399129268441 -0.3230346867355404 0.26712193472832063 0.31754023927987246
Ni 8.829675989677852 1.222998742396683 11.620626960872764 -0.18284374420453026 0.709012807072837 0.5439415563603794
Ni 8.272399734390357 5.00775197641831 9.11411854120854 0.08199119426182654 -1.0424710031345465 0.4750298209903303
Ni 1.3208563202368042 7.465967847153888 4.372887589268981 -0.16431277527987828 -0.9259712335728891 -0.13718146628072503
Ni 1.5743947341816273 5.074165855695765 12.760978036309465 1.23102799567377 0.26638299967976703 0.22351731066449246
Ni 3.1819181440377706 2.9695189526926526 13.266346868274256 0.8308887533447432 -0.701746869539043 -2.578716454856778
Ni 8.748474824927001 1.3415272143138717 4.160530752539788 1.0583048848430094 -0.19953431748633377 -1.1917867907849604
Ni 9.188815510157145 6.61848881256973 2.264962807294182 0.5241846854484262 1.8308509365828018 1.167996630343898
Ni 3.3951828427518174 5.035659985303651 8.540007246842867 -0.7266024951301422 0.46245224143563585 -0.139104908555683
P 1.8347651318258642 8.814041611885932 6.719057085829133 -0.9097303462339945 0.373494386047989 0.361147691557178
P 8.79609614526847 6.507344775864037 6.477510552706569 -0.5870059916500213 1.277841356482883 -0.2335775231139719
P 0.35003051579758165 6.8816398828247785 13.668852911699465 0.09802793600971504 0.2557761706981982 -1.5254236785163793
P 5.975647025585937 5.970868320006428 1.093893586280685 -0.2788027135003585 -0.06833709381350166 0.815200653185525
P 5.862026164601077 0.24953129897718843 11.389821005897595 1.0384644530783147 1.8156701150773054 2.371382953041
P 1.304439302802768 5.155431473123024 9.707944067782858 0.12073360513734692 -0.0756426263359794 0.948075007450464
P 4.378132195623679 3.9500191038609507 3.7560570609790482 -0.31089316627700003 -0.3260786157681868 0.20443226900858344
P 4.040998660375651 7.404406333657554 8.926261087535144 -0.8005206825758472 0.43694124164872483 0.16636323005100379
Ni 8.819474051754737 9.027076122469945 0.6504702216131244 0.20391239194937139 -0.7322501803342227 0.4294919844595313
Ni 7.453298292476808 6.065678207004897 12.963322610134691 0.27808074773266944 -0.39392488598819897 0.6484329886072511
Ni 7.334263406673545 2.3409856598717833 9.83484954612825 1.2950880593784726 0.2774742244969221 -1.0207966034849065
Ni 4.457013064023784 8.900270085396727 5.022356952892717 -0.3420490230545142 -0.32657818111242465 0.003833771923793397
Ni 5.405397367289717 1.0832653399407477 9.400998324660032 -0.6459819559635971 1.3569495727699599 -1.5921360922422645
Ni 5.784066048721108 0.5304510513658346 1.9494181563857977 -1.4212616045844684 1.0787186726126714 0.8216032142777593
Ni 6.054012272574766 5.3586231392667765 4.546365650835403 -0.23797513796103534 -0.8240516758182518 0.42345991933283844
Ni 3.675763758213053 2.5969916905705723 8.439798987818838 -0.8923874840801728 -0.12017233331723819 0.4437873180362809
Ni 1.9216197170503526 5.273877077313401 5.344880907903737 0.004643669419598454 -1.0338459804696971 -0.9102121709664196
Ni 1.215559062033979 1.7340808437489235 6.977731457331278 -0.11274595894618003 -0.10248494333980414 -0.5733408354581029
Ni 6.971781554546156 7.6105904454917495 5.085505843733768 0.3294151363405875 -0.8698772187927987 0.6724928577699322
Ni 3.273671132669386 3.9385833575608533 10.930473226394273 -0.7473942350645127 -0.46604741498606195 -0.4121997730379869
Ni 1.9036097977564803 3.459331670829737 1.5153385882925838 -1.0657019486380293 -0.47039952130717055 1.7055315118469851
Ni 5.963428639643724 8.156099483571898 9.850966398240724 0.29120622937103396 -3.018666144314524 -0.8584201259957925
Ni 3.5006274213578643 6.06461934160674 3.694201827428789 0.31834010947334856 0.22891225642781865 -0.032041344706260945
Ni 5.912262422099731 3.5598962610790594 7.891751435040671 0.6364963850706651 -1.1403400449688943 -2.1939241272974663
Ni 5.259200282142423 7.521820695025377 12.444383727528123 1.256312738382488 0.08430364444508708 -1.1102715077182879
Ni 2.4444598280847383 6.62112216477732 10.833822755108052 -0.13107509627267103 0.808883966938878 -0.17657693735921204
Ni 7.668303213453913 0.3958545272197416 7.950830599742718 -1.0947610707875146 0.23428020560795135 -0.5398131360143026
Ni 4.411316116449403 0.6480173368994805 12.954590193233715 0.8796286417526076 0.36652978180469775 1.5192039228589127
Ni 7.529223545287276 5.15418845722084 2.648722329409409 -1.8149340082422292 -0.8319225939258963 -0.8401508953729595
Ni 6.587864583749985 0.660514710855295 4.388331371289232 -0.5383951726208535 -0.08327083230519854 -0.0846088343903317
Ni 1.6793881440528073 8.447020449834268 1.8564064990591556 0.012718990228565192 -0.093726994641516 0.4280346831877145
Ni 7.783222335492167 7.199649388229569 8.690320095755173 1.0352027516079072 1.1263082494661765 -0.9076760348081271
P 8.718108406812895 3.1754268387708073 7.960574002910804 -0.610428998559652 -0.26240138932419965 -0.32451692770802176
P 3.502045380238875 6.41619027637051 12.73797487609889 -1.0433222953912482 -1.098948883616617 0.5114225006867514
P 1.119644272011346 1.673725516053967 2.7662075887212825 1.3949088256225526 -0.18844926331676579 -0.8453434953174925
P 7.128198992666967 6.372169098382778 10.833876158754217 -0.7786290247090785 -0.5652819697093684 -1.181661015204868
P 7.629097571146495 3.593678671042872 4.370785511265509 -0.41597492380970297 -0.5117081502479703 0.11839390126057675
P -0.36410698032543054 2.9255161897553226 13.12133018785778 -0.44540891280010386 0.11221322637116159 -0.8205660312624965
P 5.204516789971508 3.458512201086815 9.707015028490042 -0.9246003213672914 0.3118971820614822 3.8584686552091294
P 5.747189910289635 1.2666516193763606 6.711982023464404 0.28212020790936576 -0.4022712010703653 0.6223866851421604
