# total energy = -340897.3913641296 ev
CRYSTAL
PRIMVEC
8.99909078893407 0.00000000000000 0.00000000000000

0.00000000000000 8.99909078893407 0.00000000000000

0.00000000000000 0.00000000000000 13.17107901164705

PRIMCOORD
 96 1
Ni 6.387428638316261 1.8878382599468337 11.362281697937995 0.07267711594975226 0.6352023488495898 0.5834095325480145
Ni 4.572851976294058 0.37042687346667974 6.041218318100433 0.20192930008107157 -0.5311294921973756 -0.021394920736008315
Ni 2.8095341352740304 1.5143489958925418 4.79634079582717 0.0059688159889252045 -0.10999590700486861 -0.15428135918580527
Ni 3.457369680415453 4.230427573563415 4.863776382390003 -0.44083672004838914 0.6716950444589852 0.07000214022075041
Ni 5.0305367335534665 4.666730491163209 2.6882830860224507 -0.269670155071471 -0.40308855476533806 -0.42613335239994354
Ni 7.289308515777097 6.220288525522477 2.618055081594981 0.41004184615471967 -0.861503907127439 -0.6539837432221511
Ni 4.979826857088009 4.602710959455086 11.445009439439204 0.2325323696789092 -0.46890391059825054 -0.13214056142270791
Ni 5.524253850239264 7.755632400171704 12.308123033698992 -0.030715683916301938 1.0249036836747447 0.08245424994117413
Ni 1.8247906300414205 6.403761988056244 0.29982000731796815 0.14806597440371275 -0.020951919661318756 -0.889860603893261
Ni 2.620265258287069 1.3599066001693467 0.46065985666659254 -0.1450744958755566 0.821090793417715 0.11664323711805719
Ni 0.51206536284825 0.025181255780948847 4.666368727714423 0.7170817001239006 -1.1267551071956081 2.0338690988526777
Ni 8.518044368943688 2.447023761954053 1.3826868985339718 0.6828281782576693 -0.18463785999047555 0.25596026168454633
Ni 6.813418597898411 0.8339898368143295 4.701021526526409 -0.984751022715259 -1.0951644768735203 0.4230840240506585
Ni 0.6286341851743679 7.138357767271045 2.2237392217813254 -0.1557918822930607 1.157201339500607 0.844654696780584
Ni 7.712787729035582 3.9212908075755823 3.799052558066991 0.22932748958836635 -0.19509222255458014 0.22528725808072173
Ni 7.320481366189936 3.89657930433261 12.703294707044478 1.026120072580349 -0.4591157208632351 -0.4784743278955051
Ni 7.8640534457184375 8.916119148970232 6.685336338846489 0.28215003270603667 -0.5294595606941204 0.7000645967406137
Ni 6.839012012036435 0.7267053764313196 0.3854346571368564 -0.49858755370561236 2.7767914141887662e-05 -0.05882915432306643
Ni 1.628520460438642 6.532808949638262 9.229225413894872 1.4865822801691493 -0.3596744494457612 -0.9376741238321141
Ni 0.09382901986993895 4.89209472121192 1.326591066245163 -0.2646210226833378 -0.6011599145529002 -0.02735782318766256
Ni 6.280006491844534 2.032462647644507 7.013441388350541 0.44884827749895606 -0.04860644815379371 -0.1679388020682398
Ni 3.1455601844701677 4.2055090912328295 0.48110489097748443 0.7602577212907423 0.23698423480267572 -0.059534150809891016
Ni 5.947742062588515 5.582288986588109 4.79744678408229 -0.07861379314916138 0.3745387681521034 -0.1929692626743064
Ni 5.329216556071405 2.9745864590101405 9.39832912829376 -0.3655998137912607 -0.8093249111310384 -0.7293049816629698
P 0.12015585990537811 5.319614526224262 12.231770248096298 0.729779350196227 0.7381590896194901 0.706829426268273
P 3.9029506605948185 6.090080681231666 12.632842625256938 -0.0023319905672863064 -0.008301577887159897 -0.24858350960450093
P 2.3123163722803257 8.313450040382516 1.3010579460152703 -0.049777328533443306 0.3004935682102308 0.7043953629054837
P 6.277189776434828 7.640938988361185 5.731855674934376 -0.06963987178532523 0.7716153123954066 -0.014067019616027387
P 4.616371579237619 1.0366592598606903 12.656169168431049 1.2310346805419894 0.709934547556158 -1.05501875789257
P 4.017806056039122 6.161794435544575 8.278997921294607 -0.7417537489492838 0.04501975924379989 -0.25154233512250873
P 4.758827186060725 1.0070432521503399 3.6669999001691838 0.0962739294330858 -0.08796386690549365 1.2808135517373298
P 0.4591966045080684 5.534350830078527 3.7190911370671977 -0.9597128487997085 -0.5079291428215124 -0.7189084689199942
Ni 1.2412535884218625 0.8430798183968955 2.714572129876674 1.3312462544665848 1.0366950198827176 -2.2446537924418504
Ni 2.091550677612955 6.4995843065308145 4.792903143154622 -0.3307145718783014 0.23018803781644873 0.3428149546862612
Ni 6.017979966015827 5.596993500899478 9.0981860536173 -0.12519935421818437 0.43013990245617534 0.819265310173202
Ni 8.686111388086351 2.3881247128916874 10.0672351445543 -0.6701166442282717 -0.636194280449214 0.4206175647880369
Ni 2.3179228058274384 5.129886695608244 7.15517526809423 -0.058115158975177335 0.49539964289593386 -0.5686709407862593
Ni 0.6475700719638298 9.068473755635754 9.000140959723566 -0.15748366817318685 -0.3663729445118593 0.3340783461442117
Ni 1.3693016509288745 1.019830960128586 11.250524689444367 -0.11875436992378903 -0.07197289079387605 0.5095278547671999
Ni 4.038368978439046 6.835853331177629 1.6493092600167887 0.8739423900011077 0.43545283002865653 -1.2394136486343041
Ni 5.659852149898809 7.879171918205034 7.924471541302075 -0.5508472823412772 0.30104661250022346 -0.13958519062621122
Ni 5.36007443830744 2.886908317678647 4.705249299368196 -0.195835785588824 -0.03829375337387598 0.05734074270299802
Ni 0.7802337681246367 7.298091628364547 6.888210941162312 0.04722807974902834 0.8288539823029015 -0.37268217455933883
Ni 5.087482979919646 4.573445916284603 7.101740466944878 -0.1806269390588696 -0.4202784362810633 -0.2515258800622765
Ni 8.026721010401602 7.344940894891465 8.98554713422862 0.6960115097171626 -0.4868077874618648 -0.23627641010237374
Ni 4.746156466262435 0.2812134872505356 10.408656148664551 -0.7307288585936899 0.3354250899800933 -0.10722940000332501
Ni 8.25010544048183 7.074473221924409 4.718420368613067 -0.31885561565718634 0.11054483752980318 -0.0017583774520034234
Ni 7.383340015189267 6.103741301014198 6.83486793073877 -1.2694132803201879 -0.23499985738279527 0.21336736671468412
Ni 2.28232240275781 5.377991628022209 2.5230390816530286 0.5050189111532528 -1.455989494983957 0.7476030086412092
Ni 2.2722704183723765 5.105913117808069 11.323005166290523 -0.1682923287529166 -0.16534815852292814 0.16314395178275773
Ni 1.1169941431272654 3.2056921089674515 3.9091627329504712 0.1398764966143849 0.38767864796817103 -0.8489011307617638
Ni 3.6532888854783634 2.673782851071467 2.6751381141408013 -0.26051214272128687 0.10789120195704 -0.013558712521041166
Ni 1.0028046803996333 3.1941102791518268 8.04132563480547 -0.021142952626202298 0.8761136866208137 0.9439941525128711
Ni 3.583977888399932 2.7146837186021697 7.2159074319455945 0.15089521632239172 0.00344142158138117 -0.7839594357830564
Ni 4.155744119297783 6.692389826188747 6.120376120294837 -0.027971545512261504 0.8282510586115801 -0.07586425542848226
Ni 0.6974754297148232 7.268547613380324 11.185828426110653 -0.18206212884349934 0.10660642170734544 1.0774120379861059
P 0.08064175226168992 5.6084853398074435 7.987587564297309 1.0272804114370373 -1.0085239567651405 0.3777634457369881
P 8.471753046044252 1.613123016138305 7.941752495299701 -0.41647423204362466 0.007097787387045841 0.16075282584276185
P 1.7742157399374492 3.0853112717929276 10.416730132899655 -0.07337851289215104 0.6463815053948611 -1.2290235636492317
P 4.044560352885938 6.269756527462252 3.7783087539426736 -0.5447717655711586 -0.6629877464929743 0.4816550396163318
P 6.921686658902127 3.9376961500416927 10.440253756161537 0.20045785774186767 0.5066163375473598 -0.0586373500272345
P 6.260181494887407 7.690460984845553 10.091970045433262 -0.25476007072885803 0.1790991895604335 0.777408522038416
P 2.4545650000158195 8.417227555094081 5.817507221025405 0.09190511094142881 0.4948851651533606 -0.21854633981246233
P 6.913506485395986 4.184343229751594 1.7652805427160554 0.006051091290086353 -0.5613024162363301 -1.0672947470464458
Ni 5.244679097417186 3.000161874966633 0.6526095627926953 -0.02346080212610153 -0.3420989024558431 -0.6925808867690588
Ni 1.5510562871263673 1.105709283306913 6.954659327468132 -0.11197385666684587 -0.3672828579206384 -0.4747341441267824
Ni 6.97586118531243 0.6462202083489552 9.255474861749725 -0.6783236055190963 0.6554688124081098 -0.9466763273307245
Ni 2.796179484577537 1.4960088489117778 9.174762916580061 0.04625697408501066 0.21449068168584995 0.7124053776941537
Ni 6.419609386894873 2.0056813535253935 2.5581265365490045 0.11852631307338297 0.38913569212967175 0.13090231814023262
Ni 4.081600610478099 6.849531949141692 10.444231354280035 -0.162402702741359 -0.32832910236526036 -0.443603741270565
Ni 8.150836470243947 7.084885169940476 0.12147152697534264 -0.01904776066007042 0.21320281611236183 0.7424710867312826
Ni 7.511496066785469 3.880335945500285 8.142268435925798 0.5849511660035217 -0.28254469704129404 -0.04989251395506891
Ni 3.0670791139013533 8.405204769830931 12.347096295987654 0.28999318289953924 -0.9566537502584104 -0.123908917541535
Ni 0.10506978414553869 4.744950588099814 10.02176903827809 -0.37283361253553854 0.38770050234504194 0.43859677497427685
Ni 8.583746730625021 2.240683609784309 5.800938095107357 -0.014759931917993935 1.003890057537555 0.06737935788592267
Ni 3.5515541643706414 2.5855197688401947 11.474604749240791 0.8024387255341664 0.07890252803417379 0.2502367289372078
Ni 1.2435843529302129 3.0864991517740172 12.651809108955005 -1.315337296545812 0.815660109320447 -0.1662573006007588
Ni 3.0155953156300335 8.326399731994547 8.064612581980212 0.8608076523913626 -0.6573403183992099 -0.32519209939817545
Ni 5.811081870218602 7.789639964175779 3.5293615066330255 -1.4112900951940535 0.7250418355112417 0.4013533172417862
Ni 3.140727672728916 8.36598673227344 3.338407099945624 0.04118547309937423 0.08851408298200884 1.267103915460721
Ni 3.414695992003881 4.270077567477668 9.182481436729915 -0.6649932069587774 0.12179907028738378 0.6957680262477889
Ni 7.2212573914058815 6.198528724050698 11.274970719509747 0.2209004418669357 -1.378934047460851 -0.2594430780268241
Ni 0.5163894259612319 9.042466383322502 0.3343594175863049 -0.7568049868554515 0.07796536093188508 -0.3598030046038255
Ni 4.523734938894152 0.4966067247307052 1.5793044330403114 0.6113545956977149 -1.2076173300593136 0.008843823543875091
Ni 6.056370087222862 5.76419660732862 0.29892009824138505 -0.9320578060866012 -0.36754511044308963 1.1480973203168099
Ni 7.910830719519229 8.816625201463202 11.346331709464634 -0.06283596148961437 0.014966134391529062 0.19645182190626811
Ni 0.19061874060183637 4.812659747021928 5.799726817490276 -0.29418279550085463 -0.49586012747212027 0.05224044536195519
Ni 7.8692549201810875 8.772583651255223 2.4772688061089347 0.37933207577568867 0.13202049090507587 0.1648758468721999
P 8.490651136652499 1.5781255521499875 3.6482043991956687 -1.105334732538303 1.408062075175059 -0.7597980080455043
P 1.752581925736391 2.9717337472373724 1.701848651634941 -0.5048746722659047 0.6066407351618133 0.0906522123709342
P 4.7728477694738904 1.0924896189719069 8.239365925561888 -0.04329994833921575 -0.4898496596119821 0.06695126920956858
P 8.42674859312433 1.7677633918583482 12.365259160880331 -0.07731770004555716 -0.6251467643858009 0.005772126597086834
P 6.239465587944464 7.808502058420962 1.314465691347282 0.46714913269067293 -0.5210654230931543 -0.10108986276449042
P 1.7605641192456833 3.220558606912605 6.013585709994871 1.12517567852363 -0.46887382869126343 -0.4506205389080304
P 6.807524193446793 3.9640994823486415 5.9390111447275045 1.2409519396557014 -0.25657938332578395 0.2046788378017507
P 2.4334801303514766 8.388331474644998 10.234310463894568 -0.3557679153025034 0.49541609795616615 -0.26981387973818693
