# total energy = -340870.5041426771 ev
CRYSTAL
PRIMVEC
9.22806852135758 0.00000000000000 0.00000000000000

0.00000000000000 9.22806852135758 0.00000000000000

0.00000000000000 0.00000000000000 13.50621106847020

PRIMCOORD
 96 1
Ni 1.11050575002514 2.485460255895971 11.238315421833901 -0.7037587577627493 -1.1428345292559736 0.19791915048041397
Ni 2.468277592554216 8.792466649501025 5.558791840141839 -1.2550045610940257 0.6052834498029706 3.1234979906199496
Ni 1.192681699036058 4.769444094638054 11.435317148625588 -1.2927627536794057 0.9898832017355016 0.8686618583284588
Ni 4.818666611429096 5.915044188749496 10.55438820680803 -0.3949201600219328 1.1109965588097706 -1.6863706226478183
Ni 6.541417786842037 1.6549802411584567 8.176713635318272 0.6451255215005729 0.7656940618149651 0.7073217925236593
Ni 4.683641514749955 0.3672235991162575 4.563748604616363 1.1389454786142126 -0.5776271215382827 -1.1316291474584577
Ni 3.234493339025359 3.9405328515268008 2.5749319157758426 -0.6180176095401873 -1.3031492391200523 0.5144263205100817
Ni 6.801796964527838 7.857534128659683 11.819501014635406 0.8573325493585687 0.037656891120825466 0.7987255383486372
Ni 3.0922149805918573 5.935954991720719 7.094812128880908 -0.26637785747344445 0.6271457970937006 0.8993893693193027
Ni 5.772784286452774 7.556828292110579 5.297311753897137 -0.3080868071764565 -0.28523047140357327 1.7726871837578762
Ni 2.433893809733926 1.8552754655584538 1.1999995572691469 1.596319791306309 0.4493411579749745 0.6883228828236533
Ni 0.4282257452068441 4.3077546050293805 5.34323246781832 0.7047985118811734 -0.467249405713963 1.9633766492590703
Ni 8.317664074710486 2.785427846973893 3.8529437175984427 -0.6219128308295354 -1.5018307216877875 -0.014898257268071117
Ni 2.8205683314021446 4.4917899729265995 5.078632371651037 0.4233696736118773 0.7473109313220873 -0.472987850859637
Ni 2.714630106287564 8.598492651948021 3.322744125457264 -0.6044218731336236 1.7583113746521781 -1.6163317156518613
Ni 1.7405613474052004 5.094364382641919 1.0097352432088318 -0.04272736366519738 -0.7744571527195759 0.27167484420632565
Ni 3.330649811646782 4.085431981382998 11.495446319446502 0.9400076570612972 -0.5487469481688226 0.3686738247308941
Ni 7.727159978448987 6.2915862913257445 6.49058497211698 -1.3920497589072025 1.0316212049042361 -1.3213184538299114
Ni 1.8897053887206923 3.3925055540634217 7.174849934445915 -0.5006362087045249 0.8081429750077954 -0.15306188495640735
Ni 5.012852854555065 4.680097936488283 1.4280657306813236 0.42263948031407217 -0.05952129529408459 -1.1231938722069108
Ni 2.898960772373256 6.317526391569393 12.191908019766199 0.8896310043809582 0.7965215887187831 -0.1558988401845702
Ni 0.6077245946836515 0.3261799193390694 3.965977404497919 -0.16016275766724675 -0.15356582117601938 0.5109545599113975
Ni 3.3493643343412387 1.7844315845301755 5.874742445670846 -0.5295878587418685 1.8378908741487188 -0.9288596108642778
Ni 2.148165128181421 1.0535501119234685 7.883480688551205 0.14223625509581309 -1.540471316878121 0.12402410296316059
P 8.972829246179115 2.0514826556617822 1.6608179172218263 0.9751384393261593 -2.3589352141959505 0.11078574989601567
P 1.814053684061343 0.6627137314114628 10.283898757394395 0.09000995080124498 0.736841399249331 -0.5529627860223831
P 3.5389642274774906 7.2865289409057725 4.692651800725728 2.2170972229798207 -2.905476670073022 0.1699979985901137
P 8.091114995741586 7.61098782549015 4.286614945962091 0.35003152703935847 -0.16563689340794055 0.1944453329992006
P 6.584143743486681 8.476903622844388 1.1007747519081257 -1.4189103307434725 0.5189280650351773 -0.31881782044071544
P 4.86098653306459 5.32000911090862 12.516286620155585 0.9128691489732924 -1.3581603052486093 1.6033227049867032
P 7.921540011011141 0.5617586632273591 12.226699683209317 0.8246468862000893 -0.5285637883527284 0.09256742711577606
P 3.5030485853044984 4.656141870948435 9.183426686129453 0.8267348790773699 1.4113610576413047 -1.641489960085044
Ni 7.334450300053858 0.42224042004923806 4.891774137633385 -0.6134127637783242 -0.2961720580167415 -0.5156673920060345
Ni 4.823446750854998 4.755057536018399 6.236993038731855 0.6963745494835362 -0.16350853421102807 -0.11958355069330373
Ni 4.905558103387189 3.243952109124875 9.983426390975552 1.959575016124793 -0.4357621337389592 0.7065908278949057
Ni 7.049469092040925 4.018270099642239 5.872595074156545 -0.6789401560571726 0.1284929373677916 -0.0030500996802334565
Ni 0.7235709968283299 1.224592359527889 13.366340290754644 -2.2678274023448366 1.529386262708553 -0.6489613503068953
Ni 0.7854202795970975 6.4950559712518245 12.964679386021436 -0.6556565029388837 0.30050616661572116 -0.16055202268586544
Ni 7.81517729475063 6.165964596335781 8.877673096171144 0.8298816522364676 0.39436351618751436 1.0943324678905282
Ni 2.5038794804019555 7.881730123977665 10.297864516095476 0.2933692984606238 -0.13296074333115812 0.18052152382925685
Ni 5.7684655504463604 1.4833566252454804 2.5700022816420263 0.35267539242010876 -0.2933615851511399 -0.5864951134518738
Ni 1.5930414461263083 2.714048737979008 3.92822722232904 0.2947363540114795 -0.6311009250867066 -1.199770066100753
Ni 0.2908807121345143 7.872022196031625 8.772351306025 -0.22620205658550718 1.5132135096034325 1.9281553641629305
Ni 8.896393155706635 3.9991956822805803 9.760060995601126 -0.8021088529985735 0.7338301232268329 0.019599776508798503
Ni 3.2365788824814476 6.308501340684197 2.6190430054857905 0.060359732034979914 0.4964034015701 -0.18065830651743725
Ni 8.445768120097297 3.9508682881233455 1.7777689191527604 -0.005099011789462186 2.076531927828527 -0.6728175880992026
Ni 5.286372801627901 5.651029152118125 3.940031767413236 -0.5678379033620028 -0.4749758278239432 -0.16863557102494828
Ni 2.4989147796082585 9.054525335633764 13.138261198046722 0.7679185802701097 -0.15155727538642286 -0.6717999454679656
Ni 0.12072066786815588 6.764266410386638 2.4676390102216437 -0.8322262412092442 -0.3253844179146396 -1.0005016006812961
Ni 4.2281348309624285 8.725553925606789 1.6405180123780063 -0.5237799938108398 -1.0799039511700241 2.294121817264991
Ni 7.024802465235065 1.593973481033675 0.38144774373225177 0.19910211504492162 -0.2538851243230724 0.4830943431660197
Ni 8.093089802377 0.3084924806563938 2.463086804084969 -1.158139277933844 -0.5907968261510212 -0.42280814468145245
Ni 2.5398597190536756 2.8022229314432785 9.44714919299287 -0.2510129449816 -0.351056368759447 -0.0010454105453788446
Ni 1.6239923875056028 5.633302032741373 9.366422050719146 -0.28028289759031083 0.4285419618414361 -0.9159501018914613
Ni 1.0650759693422935 8.822928503255662 1.5587656317061787 0.7113244859251492 -0.1745161981754414 0.3392917720243511
Ni 8.096993275305872 5.17562675288225 4.077228228584491 -0.8599792429527963 2.016179651992715 -1.097412906588065
P 7.042584953022155 2.9291919244181486 10.403644941240591 0.5988173824626527 0.8618741459826641 0.20580523809671006
P 1.1998703643116904 4.783913705873216 3.2185841491213925 0.006597707822175734 0.9507731231079174 0.02104036561006699
P 2.5960955678209454 7.27086890884833 0.6477015097549821 0.28736860079249865 -0.9993374051698659 1.7906692221575935
P 1.9980244554798339 3.339527213437742 13.031426927491495 -0.48564564883296363 -0.37170592668899854 0.8281646695453608
P 1.1841272796387394 1.7213485090176954 5.734804325380989 -0.8463310560417425 0.3657042005796089 1.1486832747272668
P 5.882792089727244 1.977113652508611 6.0562797754549536 -0.029933811444954897 -0.1390714842145863 0.11309717163801167
P 3.452321893365923 1.604410426382507 3.2990676703896264 -0.8759607059827172 -0.47758755441517753 -1.0833895957257793
P 8.134034741822417 5.501820514323904 0.07980525824158563 -0.219139493311771 0.008103345833424754 0.4935253086913565
Ni 4.311067481581309 7.737366222088075 8.790274060451615 -0.4422829655766125 0.009232831452177648 -0.17667952437534734
Ni 3.569952081130344 1.4982691837633517 11.572473006295928 -0.9334495442278054 0.46495855279725734 -0.3841251262889578
Ni 4.654517730911836 0.14991089379868208 6.863262359651592 0.8540654485715227 -0.7975916818545102 1.3122751126807206
Ni 4.446489385201209 2.774298796495829 7.752362756028293 -0.5803676603978972 1.5479205740673148 -1.653122916338282
Ni 6.025522623511844 1.1031971198604407 11.241813782560463 1.8822426607912164 1.7947199951881996 0.24294379482022033
Ni 5.899531805786289 3.3839972750080523 12.599687133841826 -0.6216330948055875 0.04758906263287288 -0.618331027015548
Ni 7.022892255078382 5.742303976561357 2.04294946082176 -0.4779089423103382 1.5716500564737708 -0.9210506563428202
Ni 6.185085154039389 7.863292443334901 3.113951695683965 0.1609448872489099 0.20297445351613433 -0.8259440077449581
Ni 0.6386127851978957 8.673443023409748 11.846243956828966 -0.25355885133190526 -1.166334926370759 -0.7000275728550911
Ni 5.874652933407465 5.058587161494774 8.434115838141533 -1.2101622079683545 -0.15155110473883576 -0.534125341600906
Ni 0.020860971401918164 2.150527513689203 8.578172445353744 0.2557843982283143 -0.09238873544606668 -1.6058290163483249
Ni 7.085698488539169 5.314786024200009 11.300511679974123 -0.0633776929256973 -0.4721856666733158 0.17815508047960932
Ni 6.541759225372459 8.274864293518723 9.651457704335579 0.15894662587195849 0.371658875501147 -2.140856815158842
Ni 8.827597905860886 0.6696919967278082 10.197364391682989 -1.6040999494723598 0.08136101687699537 -0.26512007380694336
Ni 8.478647727770054 3.6311249464861413 12.482426991619835 -0.11531526233525302 -0.46895276155831495 0.38328797509964313
Ni 5.094964207087255 7.264243155744473 13.26303114232431 -0.5318123771970131 -1.2571393480488413 1.0987557937692045
Ni 4.887092738539255 2.898683930321563 4.242192870347408 -1.1606990682412204 0.8861800697178802 2.3335473702504648
Ni 0.031908814878152975 9.239234352523436 6.339072085645833 0.1023018807947206 -1.3283450216593897 1.139070177117535
Ni 8.155628421854482 2.143237339661283 6.359237260691162 1.0705050264536273 -0.3707908710738969 0.1693778485076115
Ni 4.750849536832663 0.22189075004574121 13.274646512006516 2.3436736600511896 3.4375075910387443 -2.2886104005284587
Ni 8.48730365591966 7.961829757600884 0.26230968959294176 -1.3946828256546755 0.5392922305138261 0.1919413356304243
Ni 1.2859036459095328 6.8883654740922875 4.375620588388279 0.0676917469200189 -0.662981061624755 1.5053456768195816
Ni 0.6973392896235646 6.566149010126626 7.053861652594455 1.222098040173992 -1.1292891864713712 -1.3954646981260226
Ni 4.553147399650192 1.0445712013802204 9.138613340415043 -1.216343654188718 -1.9392221635000537 1.6578897415993061
P 8.788803106350285 4.65962085273138 7.414895986241694 0.22707726010160892 -1.2473336748123292 0.760691209283735
P 5.874256126466705 7.239761090306409 7.461803180673742 0.6506227971697182 -0.8352087208763358 0.31955984081306255
P 4.808617244952636 2.4747372404270562 0.7942487726255922 -0.14472945383131203 -0.3355940114577898 0.10631768682233303
P 6.338824773412988 3.868203251487769 3.2261613160762344 2.3264619241585933 1.0273174353225598 -1.50898121668964
P 7.909451241420539 0.05562033660567165 8.11932612361596 1.0076441252633486 -0.035884629711751104 0.05281791513198
P 4.701497827084164 8.779418160797887 11.086114121460877 -1.445642347421678 -2.155403602624765 -0.7266708864742324
P 8.712468524630093 6.774703355735469 11.098350540145715 0.4014181090414506 0.03440290295990204 -1.3587532016376018
P 2.260009317065456 8.018407044898575 7.864801232516629 0.7384061726332897 -0.5933023661816943 -0.40883239922765074
