# total energy = -381168.10494530183 ev
CRYSTAL
PRIMVEC
9.24423015221960 0.00000000000000 0.00000000000000
0.00000000000000 9.24423015221960 0.00000000000000
0.00000000000000 0.00000000000000 13.52986524887177
PRIMCOORD
 96 1
Ni 3.5567821986056867 5.94502901675267 5.41243287448041 0.8926433088447208 0.8059739923809345 -1.0709793949868847
Ni 3.6924135410320558 6.548335198648265 9.320602121384892 -0.11543713262509796 1.1410288435058027 0.31970922190673323
Ni 4.465101749050767 0.4388707432406034 11.348106730482298 0.4203383429847213 -0.05061036595769994 -1.69498356112781
Ni 9.049518774593977 4.750859386529225 2.6259843785147536 0.45518450412962896 0.5624704684025023 -0.3981039570665531
Ni 8.445482298529104 1.7861054092302429 -0.008026764901091644 0.18460263587716597 -1.1109942448169252 1.275641777728403
Ni 2.3031906580007857 0.6249238137292948 1.80090634586866 -0.13922832150742473 -0.5649937490449882 -0.08251029999009016
Ni 7.532799471528322 3.7101347299245964 1.0312391522109734 0.20464207102654436 -0.9327815716265032 -1.1322930062947014
Ni 4.797034315333731 2.5824218691056737 3.5936805426143326 -1.0487990022351035 0.29469907301564086 2.579929244217957
Ni 6.09837230384159 7.9668900234406355 11.522844863462137 1.5770982240725355 0.4702375418080095 0.13603166894699797
Ni 2.5557060444319952 7.463671119656431 3.6161273818782167 -0.8719436144035242 -0.5813166545747278 -2.3939621238930964
Ni 3.869902756857185 4.684994247844117 11.865786383241256 -0.4404747087232801 -0.28516799359675404 -0.43974245854294586
Ni 5.507693740113555 5.9102799562169075 10.724569551251637 0.2802343037405625 -1.0291984543953565 -0.007652117228619079
Ni 1.1637098924034568 6.834286964956531 7.060546889367608 -0.4628278796074996 -0.16435185604792985 0.3576049685112422
Ni 6.01309428217561 6.919278415492793 8.538319327058636 0.19526500068701855 1.3513335121347632 0.6496740601032037
Ni 5.002357907661436 2.5878482321103276 11.860509776762454 0.17388447812871344 1.0526039778034904 0.6921926501917046
Ni 3.889703897497676 7.459631391150411 7.153875710932657 0.9367732092843994 0.18079611764688217 -0.2140296828890314
Ni 6.005079534773507 1.1308281663258537 8.32745566769739 -0.928946257040813 -0.3604851182725146 0.2072190877251012
Ni 8.215134575616053 4.112850365247822 4.757533720582648 -0.3088303702107004 -0.8673030303077193 1.0279532691343458
Ni 2.886122556996453 3.3324894463366705 5.5821107159632355 1.1771055346237018 0.8619255680458898 0.6427667914604092
Ni 7.748365670685937 5.872785359373848 6.767151669070676 0.6338815731556374 0.09396405035298655 0.5435476633560703
Ni 7.948207434629042 1.7553498560505447 9.291797100733275 1.4081590057642392 0.6606981791278492 0.47109654737419515
Ni 3.811331315634893 7.053051667690993 11.993968725140963 1.0638445837143162 -0.28920051179491485 1.12059320135927
Ni 7.212459169653938 5.150108435605865 9.44062550589464 0.7612473388975212 -0.17324041678681132 -0.8546642584977862
Ni 1.5065876269956373 7.445709580784128 9.45707838643243 -0.1943949393772394 0.261452138037053 -0.03960758708929308
P 5.6598907426836025 8.72791201321084 9.556658156317319 -0.5446288122353911 0.2000832480112683 -0.08084036848683497
Ni -0.08688004672340159 8.434019453340397 5.676982399513763 0.43834609241605155 -0.5979766317289121 1.0212288059263188
P -0.05312196764266167 2.544677678052861 2.3531002557216123 0.5329194942182628 0.5518253299838303 0.27980390107136327
Ni 2.625472248173258 2.7145404041355037 10.968188290739612 1.7296019225326276 -0.5724039254661304 -0.749376041381232
P 8.380134836723487 8.547427666868662 11.461622177078457 1.0108531191189494 0.42368334819755415 -1.5707404001753078
P 0.06244292474247822 8.192107198708742 3.62980606899574 0.43910431073831474 -0.09440242344198581 -0.8366891620766042
P 6.325900536607418 1.9032852685947914 -0.008591587353535154 -1.2993864296435107 0.46272092171599016 1.5283372526187486
Ni 1.1001373227560918 3.3236149855454142 4.354343856260891 -1.2360671007595745 0.8590762715225526 -1.6164710694432034
Ni 0.5309238610669081 2.3619469838228957 6.48762464260608 -0.521522822345547 0.3230493420235598 -0.7160902827449087
Ni 1.4509281182204758 6.898673026843095 11.915292008111479 -0.8700186294666694 0.5690566062604523 0.213321086857781
Ni 6.59699682532032 5.6276006473254165 2.523238459857984 -0.32061759265361556 -1.5487592679185263 -0.3909573187194428
Ni 4.269447621293534 -0.027449816534955117 4.1685782813249155 -0.37218543742857835 0.2947391822249569 -2.183425284648672
Ni 8.311912419390703 7.637860145374812 8.95667619952645 0.17903696886393036 -0.28535645545847627 0.729841056672098
Ni 2.043104247207035 2.8507818657412725 8.071525462707543 -1.7596756019895567 3.353389580241902 3.262712942390936
Ni 6.997170297396051 2.619223148699415 2.849538516807497 0.3868823773191208 -0.8906910702143563 1.486943005942678
Ni 2.912598031690368 1.408968558291816 6.945177050235277 1.726625356402807 -2.9659407888963503 -2.2706952108109344
Ni 7.286819755700673 1.402922831877773 6.53527679936313 1.8884372196377026 0.19171816387602467 -1.0568799794710249
Ni 3.6561114498578227 4.533130037553741 3.6002698297518405 1.2967945005466182 -0.04761451655416961 0.4484474425161115
Ni 4.99536002555833 2.8166521686148984 6.665298743031026 0.3017505805457835 0.08305974473565694 0.40584786267803
Ni 6.936629835185697 0.12534806098450105 1.8209977553308654 -3.264194669142785 2.9079161327524496 1.1857200157655903
Ni 4.240208121832342 6.1493912091613225 1.0387944613825297 1.557750158563227 -0.7327008947183963 0.36321383005758734
Ni 8.272430313099603 6.3466445887069804 11.119167828219858 0.1426085508335673 0.4601953270806591 0.600479600656424
Ni 2.4145466524710724 8.527423153168371 5.457785066815727 -0.1246303690885918 0.8797870217073429 0.32837306822931833
Ni 2.3017947792721607 1.5041748829680144 4.166602789375862 1.138369808616401 -2.192078075227663 0.9016591391900859
Ni 0.9659480802083014 0.07882739797833545 13.036728036766586 0.4747616549306082 -1.2024476129329162 0.08139212722524691
Ni 0.04545850098021209 0.37970582245289547 7.836808916700798 -0.1454478200545753 -0.36017632878284417 -1.811348604883816
Ni 7.9853877276524114 6.444180459340883 4.255643212648135 0.2393655905506587 0.38990368064394787 0.33176820995379636
Ni 5.425937770074104 5.224006810153057 7.265483148458696 -0.9558415387697603 -1.0564140955782002 0.04475519272850357
Ni 2.812593951648897 7.873606498602544 0.6598688519408654 -0.045899847855908046 0.010589602590388214 -1.1930515164299969
Ni 2.2163688499263263 4.810697287260269 10.175960553789153 0.08998038311489019 1.0064099957459314 -0.3305384513117533
Ni 3.3709269546388 3.2238604997136973 13.766772611837311 0.48159487580235777 -1.0516459847655952 -0.8069201583442878
Ni 4.9133082401591714 6.895881269385845 3.409728685602571 0.14980429725105812 -0.001152882657520595 0.9448102206562631
P 2.169435894262567 8.695464765942809 7.474235425690022 -1.2732452524717686 0.3706569165991939 2.099902484233667
Ni 5.208837028738002 9.169980335605294 13.428553044737543 -0.13795433989100758 -0.5088873929697235 1.7577177069322372
P 4.350149749114022 4.56367297344365 9.210672511602201 -0.2354066059029107 -0.9170826728340077 -0.20181540021102662
Ni 0.7057193082726912 7.112057587722858 1.0115396981003824 -0.08616846556796773 -0.4452975840332202 0.06879320751431378
P 6.058714557180663 6.814337916636186 -0.08241323479180251 -0.04773715817496295 0.1601784413965306 0.17366336325684284
P 2.899323317423447 1.2873237358416665 12.595370595658434 -0.8267225377821955 0.8884333845284311 1.5843016837995103
P 2.704667566505231 8.601746762295145 11.178618395714286 -2.7908646044523806 -1.0034586264270913 -1.1376792103072793
Ni 5.097370103507825 0.3604491669588681 6.045590523862592 0.6891507780415873 0.2574299042515373 2.152618069459828
Ni 2.3574635322773134 2.797978824033297 2.326595199491726 0.6367933474857935 1.479061289201756 0.361211712025894
Ni 7.072797342951539 8.900917777490386 4.507501334326992 -0.5832344404227311 -0.2653733274683301 -0.3781776504562713
Ni 7.889950297226441 7.458281733571741 2.054658610272651 0.9423321914294158 -1.2474262345261353 0.8012231079595105
Ni 5.978668769689528 4.765446781454852 12.797155496745626 -0.4463571356459861 0.06249734720327302 0.6929333850124711
Ni 4.599586806958265 1.3213425022081497 1.8841959336635994 0.697451841708115 0.21534377371476462 -1.9208611444943628
Ni 7.662828810580211 8.548564707157542 -0.08177815619142823 0.9103268421674128 -0.7649232450872117 -0.8867004609977246
Ni 2.201337731961136 5.399952239569706 2.3793621887027374 -1.6877798442905192 0.5663744314425988 -1.4619711664886885
Ni 5.930608017966879 4.627735487280533 5.098932378376285 -1.1378175356573563 0.8725151706362779 -1.180657256530702
Ni 0.7110356649404534 2.003705338985853 11.806282199212882 -1.5900712392934357 1.2508193193680845 -0.32007071901121004
Ni 3.114427305081516 0.30792067888162167 9.23176507117242 0.09362363629443232 -1.334757867164269 -0.05327325750184374
Ni 7.202872903153382 8.301226089521231 6.961981211512721 -0.7572883542497731 0.2939691368281518 0.16906983034888948
Ni 9.136137209608638 0.4328000574055845 2.0186421658051366 1.2753111338618617 -0.7700813922493834 -0.3587964177161821
Ni 7.080128017334317 1.3763549148839487 11.579818901742003 0.32835044252149903 -1.402735520755823 -1.2011646324554346
Ni 1.069002756146767 3.2031904014540626 0.4853350164438245 -1.2821273854527466 0.5774929099532635 -0.14937955100881373
Ni 6.002722256125829 3.2268371417707646 9.739649537833028 1.1601113140585504 0.07342916362442838 0.6568872900221913
Ni 2.919956438763118 5.0518792477226455 7.33054866124959 -0.49213742720489445 -0.5459585867904081 1.7209902696042165
Ni 0.5210732095886135 4.747254136832776 12.188202939171594 0.15963902395329282 -0.49634786574181616 -0.7564337195589618
Ni 7.974987968912657 5.699077033614994 0.35316841141804145 0.72315516001149 1.9607055301848104 -1.0256534173565754
Ni 5.189498099597056 3.8305500697859576 1.5313103956832792 0.04660690122526167 -0.101059009526555 0.24071464837938547
Ni 9.135314473139449 1.2369519266212954 4.480888120606213 -0.7588487567583575 0.23586786181004538 -0.9987290821619057
Ni 0.8055394281373437 0.5694020439809977 9.863488016060016 0.08451601756620929 -0.13488624248864514 2.033331481181653
Ni 7.8776462271085625 3.5783767198644107 7.665249874414826 -0.21831648318984334 -0.05848385516850573 -0.20755975889397157
Ni 4.12091133379988 2.2544458332588113 9.001351714226434 -0.2958100466916325 1.3750933335585223 -0.16338666392118312
Ni 2.310373424703709 5.2445752218827915 13.428458753591634 -0.2008718053508347 1.1310215957814458 0.9197496781432094
P 6.19980923953165 6.922033196030079 5.540939688852799 -0.8393710797841416 0.26690879027625003 -0.34034772409269126
Ni 1.1866263385508786 5.565849190986257 4.972225415583123 -0.11391889620835864 0.5519040057405656 -0.8001578999197897
P 0.604925770989998 3.230673497216985 9.911911141598306 -0.3500932335152293 -0.7132967791601715 0.34105760567552235
Ni 7.810292767394923 3.692515227561956 12.025952836486452 -0.3168552973977059 -0.5531381352579828 -1.0808166927922804
P 4.199912523302044 8.52367924002206 2.123377442755946 -0.03583757852389957 -0.9516676098977288 -0.25668736965855793
P 0.46844673267346365 4.671525404747388 6.819336271792261 -0.05400653612344247 -0.9291408895501225 -0.17314528596984374
P 6.407721216256804 2.536200719151213 5.009405708606492 0.648914813339676 -0.3059011123790474 -0.3187103483285737
Ni 0.27682863573025507 5.238668158918611 8.98999979979762 -0.43593439765076536 0.1652193462545477 -0.6420538245537846
