# total energy = -381180.1459730023 ev
CRYSTAL
PRIMVEC
9.08659323416763 0.00000000000000 0.00000000000000

0.00000000000000 9.08659323416763 0.00000000000000

0.00000000000000 0.00000000000000 13.29914768513367

PRIMCOORD
 96 1
Ni 1.8417525280910236 6.8611503716216005 11.798924255368524 1.8946518330888467 -0.08030686458086814 -0.4517379403419253
Ni 8.12164260700086 4.707191581164689 0.8407161544573576 -0.6028442442338586 -0.19771217667593047 -1.584899208174193
Ni 1.1700442847523482 8.9011905407193 6.801902148066476 -1.0708063597441302 -1.0924499061558346 0.43483833637310915
Ni 2.588107136147408 3.1060611326950474 6.624411902016085 -2.358445419043725 2.1431988330284573 -0.08541718922423999
Ni 0.7045126628035411 6.014479772514272 2.162188518092314 0.4187213762065885 0.9302258950841851 0.7677491445717809
Ni 1.5519447184371444 0.3250119984336504 12.219337306487226 -0.7143840986870794 -1.0001542446442067 0.06739992671121296
Ni 7.210702532829823 7.279960547665902 0.8128930054901482 -0.18895937018396491 -1.0623736555957446 -0.1087365806764708
Ni 4.732952073431847 8.781992608599165 4.803585798507519 1.8594179495872172 -0.05306499814577958 -1.6901874252907472
Ni 7.894541378347214 5.515471323189568 4.844347347806018 -1.6984314104670941 0.9634314353018762 0.1984598534752324
Ni 4.977499561398701 4.201886122619125 6.01496499660142 0.05269398795960602 0.6416571033359981 -0.7101353507130544
Ni 8.300966527597817 0.9761545549475427 5.772375669510605 0.17541634139220758 0.10511338210158672 0.4130407808820435
Ni 8.722030178803406 4.177715784195618 2.9815357308690094 0.3049693445933973 0.21418394907870852 1.0751414967843742
Ni 4.913911580839416 3.207331216052183 11.895250323260912 0.5053374708349361 -0.2186173022597138 -0.3608558713483721
Ni 4.381909710907287 0.45819147180651076 9.329684299341773 -0.21407827673877972 0.4282485989707334 1.6491395062105016
Ni 7.318814821011357 1.6081907315354549 7.922156444325739 -0.3701835765072012 -0.17178260129436224 0.45734243101289623
Ni 8.547304074462952 8.950112759543421 2.0661822982873352 0.6983309018789586 0.185098601676978 0.15102094326697862
Ni 2.0694534719085618 3.556837944293445 3.7332041787412082 -0.16782387375693034 -0.04674651212691949 -0.5623732807030057
Ni 2.8300285986238887 4.408651555260813 11.468147722086801 -0.8077765928073122 0.2782771800141917 -0.43445267089891626
Ni 6.918623074827871 7.7647303051448775 5.531142062153921 -0.03782632681915421 0.2185010883968237 -0.2053475817340012
Ni 2.4859283934510428 7.330182149345119 0.7482964130643179 2.244064495597284 -1.3273590035970366 0.9407154817615991
Ni 7.954658280230642 8.983760414875091 12.417986593910916 0.480221906714231 1.3069035639561621 1.1068596538232616
Ni 4.799020693987229 7.037702881233906 6.421293827962064 -1.356276200852019 0.14829891635012524 0.7002671996697231
Ni -0.061688882540295524 3.4072998768364346 5.033993638496621 0.12801599773137307 -0.9118602480928037 1.4553307783540355
Ni 0.5957643130845462 5.097587979671281 10.304752097719597 0.37747136841786605 -0.7929135596525506 0.21540599441126773
P 3.5433080067323166 1.1217399542789044 11.602309456205369 1.2088159783531054 -0.36687533806957456 -0.6881547326769052
Ni 2.392518213378243 2.4608493956883066 12.850461189098551 1.5006086763552287 -0.03257227750906648 1.3548374115229633
P 1.396291373627119 1.6915147929428063 5.391262134813583 -0.3699172102196919 0.041645957675560535 0.19294432297364192
Ni 5.447131054286112 9.205446033866929 7.21280607920014 0.5474002043329411 0.538796007603698 -0.5694479281616
P 6.356726312635089 7.56537044611791 2.724316988416599 -0.710144349574119 0.7668623710914535 1.21709467342213
P 3.221597167678088 5.1155612614012425 4.979386846846281 0.3149012589951286 -0.04377817352721492 0.17212532934576164
P 8.852022983873589 7.129186703507539 6.495237799010549 0.8064121083596176 -0.5715459483412092 -1.3407043145556912
Ni 4.263620438126382 7.642270285996909 11.218908825951505 -0.636800289464329 0.7666368853442087 -1.0872225963186244
Ni 6.496032875932374 3.728729031495503 4.215616873894223 0.4065685428941385 -2.0929147400619246 0.22926526889186322
Ni 2.713692943422327 1.0908546233384915 3.6153737789266143 -0.1631048710147062 -0.6702395429593812 -0.07992531287173331
Ni 7.547887840431133 6.239509257874474 9.69949411185878 -0.6565697587817725 0.0012292444214107863 -0.3581243313498219
Ni 6.98337413934137 6.098939658095659 7.278397653602427 -0.8088045198511942 -0.6365830312472004 0.24359839768508373
Ni 6.058704222554574 2.0443835607392176 9.82369512230071 -0.1676888908409628 0.7779538530189247 0.44743725608404233
Ni 6.65366709810192 7.188294993524423 11.77906823148768 -0.1737934610768039 0.7518142185090794 -1.074779742569581
Ni 3.8601847781018446 3.0745306536237815 9.616574403857385 -0.18881770239977802 0.361835461652822 1.2016310305688918
Ni 4.191936302854561 8.500926101788675 2.2823069221230883 0.7110259808481239 0.1912715632569093 1.497566289984479
Ni 6.032225889409425 4.304237510589943 9.274373296703528 0.4526180289540334 -0.4555359739317767 -1.7337766227356075
Ni 7.005699899306241 2.5446187001718807 13.108903895680903 1.1807876114609794 -0.5574177364699433 -0.8178972261810817
Ni 0.41083123838652635 7.684304867029668 0.3594665432585572 -1.1549549666685914 -0.14341741988810786 -0.8417912591898599
Ni 2.0845099571595957 0.45559361475565346 1.408845411057915 -0.7056181795689911 2.015446373371116 -1.8009101831593113
Ni 3.032423379843883 4.415748184700196 1.131954193911184 -0.04954361525608242 0.4845341609363397 -0.3174247967479307
Ni 6.031998724574617 5.318283159983359 12.968677769132318 0.7107894393572856 -0.42042318938904366 -0.12026463592072838
Ni 0.020843736582587112 4.931366926746016 6.984353674109059 0.9672891184850695 1.0920339016643388 -0.04932918525243117
Ni 5.317519886138406 1.887430833074094 2.897910903220373 -0.8573425766608976 -0.6488957871762825 0.07849295130058094
Ni 6.518676666665975 0.45171909133317856 1.055483241240302 -0.18325486360001988 -0.4058393780375978 0.6128496921860025
Ni 4.38255485903814 4.1614871283969785 3.0552134647311 -0.1964471939205778 0.030971251570533754 1.3753846395466958
Ni 7.555938562176706 2.3551995743160847 2.1949311487221124 -0.83553319409529 0.29254268879427037 -1.079513914820457
Ni 4.770815908097544 1.5962872941915476 0.31659145233700997 -1.932317980181053 0.04088953912551022 0.21064431135656625
Ni 5.499006415962729 3.7101015150412966 1.1093685573752938 -0.17782880748844213 -0.5819072369708752 0.24216423634171844
Ni 5.402606746663864 7.428480916662975 8.798343933408603 0.04873063243648382 -1.608230940921598 0.7129180556645142
Ni 1.1429117168829535 5.304253459785654 -0.006336990231787023 0.06455063018787592 -0.01907012925757361 -0.3778603763261686
Ni 4.475119985925456 5.256666970190202 7.856671183066143 -0.7180229809912473 -0.38097166826164064 1.6813906529347238
P 3.734844308848518 5.874864265041648 12.775307792469551 0.512437315104511 0.7589958238591832 -0.03837782844725004
Ni 1.9147087864377657 8.40717971776036 9.925180557921244 0.3848067257370147 1.9831129513457333 -0.93262704832651
P -0.016613018699134233 0.8308417534179499 9.357426577627791 0.9195244495062809 -1.0130511552115327 -1.3217617120149172
Ni 5.500805561454404 5.928520599023154 4.544611526211717 -0.3408848275430839 1.022926762454032 -1.4461334281254836
P 6.012489808561359 1.8234703021857246 5.92991720842755 0.14661612933106363 0.3700393376198531 -0.6213664714077621
P 8.287018606740642 5.718293174299 12.099617803906375 0.8505481794468837 1.4521858049671508 0.7813513087362479
P 8.194489826226896 4.15262769983949 8.784366026793233 -0.8461073700667106 0.1373519304203183 0.31648197321868715
Ni 9.079151472307412 7.636327653918347 10.901910294230518 -1.6660285686563565 -0.04772070311473072 -0.4302926259839557
Ni 0.48999727465756343 3.4052644799165606 12.134541216950323 -1.2686686888446796 -0.5895285009615588 -0.4631119865068218
Ni 6.927255338550552 8.899918417644379 9.85373721737432 0.09652255510878216 -0.08767796023395867 1.0729131216744876
Ni 2.274456105432145 6.00751035538238 6.864567839396443 1.1363556063998494 0.3041846439085729 0.12926118299238382
Ni 4.94131674651058 6.185198689168724 1.5262896306533367 -1.67840431661289 0.7373674469561301 -0.36336141137904515
Ni 7.254381787266589 3.6459047327247274 6.610873786520903 -1.3350669137642557 -0.5180742016753141 0.2465058011398658
Ni 5.066575436423376 5.4701110489752285 10.922736766285663 -0.8572808701850267 0.24084423197871424 -0.8337717313194931
Ni 0.012331415892684498 8.01069530168093 4.249369933709244 0.39953631863770545 -0.4554781241106478 0.7079421997164776
Ni 3.1040257357751733 6.255456229277954 3.0969727219840735 -0.7361909101495256 0.3347468329661461 0.5535209725186984
Ni 4.445979280916364 2.5321337208508665 7.569475769012549 3.0951811459531275 -1.2944907921141062 -0.07002965102457616
Ni 2.8738714117417157 6.314273748306283 9.469366138946159 0.8185973375718999 -0.9207446950666272 0.5504253643125101
Ni 5.830848806649367 0.6005702123297314 11.7529088377706 -1.0432765297549775 0.2706186350276694 -0.0711395962593033
Ni 0.700288305535463 6.619019917497097 8.562962092196557 -0.9419979480184486 1.4145535964366733 -0.2823580349517847
Ni 0.9808250639511826 5.467112473155771 4.867315529923723 2.106780442300423 1.557144406658428 -1.2322346143873617
Ni 7.86468283246013 8.364854365739047 7.91903065619879 0.6303385929993853 0.036060750278299185 -0.47071962365075065
Ni 7.450924802341945 4.109539073973224 11.147585428437358 -0.8992363886812063 -1.190526178904982 -0.6043755932767204
Ni 3.9771474082474754 2.434888998366518 4.927786808949451 2.19223902628556 0.3088874487008809 -0.4884219260265201
Ni 0.8005852147402835 3.1902211606944904 1.2619878886516316 0.9112858636465724 -0.5918957156421548 0.8826800269844218
Ni 0.23834861395463008 2.6554387931843193 7.38060183876029 1.09853493600765 -1.1175747262479203 1.186557424065221
Ni 3.257870848500132 0.6159365504154427 6.105266653074715 -0.28083234233587767 0.7935511932365494 1.028041715083094
Ni 4.58335039982109 8.266037662597832 0.07476267311313058 0.8797147737085109 -0.4298431971513629 -0.47567671054570987
Ni 0.09120213787847196 1.6503706980624917 3.5286095332609393 1.7787974104206719 -0.8606832109983564 0.29948749554321974
Ni 7.023736787189947 0.448419749272436 3.925137564988653 -1.0063907124722218 -0.11620769224253535 -1.1980268581574012
Ni 1.8509299874172422 1.975861559967916 10.385144824098594 -0.7649731244885406 0.1468102476197407 -0.09693984515185886
Ni 8.12421411293088 1.72493528343967 10.961290273389833 0.22197747698119838 0.5478113237284308 0.6682783054679523
P 9.073208840228851 1.4458133076151307 0.38585219315110547 -0.4697698581429716 -0.7305789632793869 -0.588430897022006
Ni 6.705651498899243 5.237884981648326 2.505320092409541 0.4201627366388054 1.007415039971678 0.8948765690506136
P 2.207406132790395 4.276759652171641 8.898141079976847 0.1799286274402643 -0.1691970999553731 -0.5922101615587801
Ni 2.5198940795514444 1.2274079488379113 8.141299634486414 -1.2125294226489507 0.27817510721868866 1.3729004396722613
P 3.3790860043533564 2.354845197173785 1.8042021808973616 -0.38702867308899797 0.3694911784258669 0.7771663241206228
P 3.310136933692617 7.987242804135414 8.12737533877206 -0.1342331822856785 0.24292605420840743 -0.985914961116373
P 1.7988547206859957 8.162159726937107 2.9114490187155546 -0.4158674516975612 -1.616314746370997 0.725716492980763
Ni 2.4952058053045767 7.909179880302202 5.035868202713452 -0.2805875733149232 -1.6916557823061575 -1.15861107536394
