# total energy = -340863.39805141627 ev
CRYSTAL
PRIMVEC
9.37224983487990 0.00000000000000 0.00000000000000
0.00000000000000 9.37224983487990 0.00000000000000
0.00000000000000 0.00000000000000 13.71723499487745
PRIMCOORD
 96 1
Ni 1.5758031864104942 8.56071587892108 11.837315258525685 -1.015762640605425 -1.217245082957065 -0.9406455477556123
Ni 0.2426184881570751 2.2039032378196124 8.645561917320316 1.2968130124893795 2.557122016515454 -2.3103249093874147
Ni 4.8210758217288 5.768797701229375 10.656631119630392 -0.10619273120869453 0.5111761890039003 0.004106823079521959
Ni 7.0179592445983925 5.647127156928777 0.8110744803399897 -2.4572534277525744 1.415004825041479 -0.5321857013760318
Ni 5.213923035941083 1.424319516133914 3.536316599930993 -0.5475323590354312 -1.655786322103058 0.5797320836964274
Ni 4.276454397502352 3.683415931844931 12.1798616091375 -1.6861543928719542 0.48338307805103203 0.24383776738939944
Ni 6.709012408800756 6.6939137146959755 9.457196858186355 0.187381998394516 -0.04634850535755243 0.5671120809395718
Ni 2.7103514894273313 4.676865017141425 7.865832925765826 -1.0055461050837393 1.4815873980577192 -1.7285009761589651
Ni 5.761215551303386 4.365734447187108 8.64198171797331 0.46414197043323285 0.35233009326554804 0.12414725880458619
Ni 3.430974388882629 0.6065972991530049 10.955653680327128 0.7270966611577413 0.365984193713873 -0.5901818182748416
Ni 8.335116458811722 4.3844883186356896 13.123360352968543 0.16787066783446572 -1.67334567114306 1.4751172169523434
Ni 4.9038796469403065 5.41246477145671 6.013238154708591 -0.08132502143273737 -0.5866810042104348 0.3830313790041468
Ni 9.114775158494215 2.0517260210726698 0.20909207688977427 -0.16811183731099433 0.3793192202598822 -0.5343544268925764
Ni 6.923889975368297 1.3746653377558082 11.440886907741437 0.20680591144708257 -1.092422395352009 -0.21613130261306648
Ni 3.9223989243823634 8.777364800662925 8.502875040517818 0.6442868276493613 -1.2778498411233155 0.02366983281311407
Ni 1.308619094828192 0.08304844092605365 8.280888622629064 0.3661690560311694 -0.05908369353603374 -1.6632859729142129
Ni 6.023741634834741 3.0388207211407083 2.3028217089924845 1.49356153970046 0.21859056278683645 -1.8369056274173137
Ni 1.8035207349293376 9.227242153688113 5.759509801876279 0.09369202763852251 -0.8956550990878511 1.4170941034703401
Ni 3.530048439398853 8.936271292622303 13.471092369283754 -0.3660973222529695 -0.41856633868596305 -0.5256869810255657
Ni 9.048860127060992 8.202742805468505 5.38906226420678 -1.2906071407889839 0.7524431103423299 1.2664693672005156
Ni 6.707550337863236 3.0413793452813693 6.789989582565323 0.5599587577242421 2.0104052114027824 -0.42645371185383973
Ni 8.231243816500557 4.1006122505166935 1.8541177616171522 0.42256980341840134 -2.042740947421011 0.6161792707798679
Ni 1.3001184644414534 4.3322380271185255 9.907012354364186 -0.4393537077449595 1.0990198460638687 -1.9455241944586814
Ni 4.005896296064233 0.7116227281649061 5.823227040778422 0.6612504520868934 -0.3061857334990017 0.9637502520938757
P 6.556629002562625 3.317748241471173 0.18365016812699483 -0.09427181140139247 -0.5317774101940197 0.04252090408134613
P 1.976823002273534 2.4500372568014566 10.696699361118139 1.3134783889602024 -0.7520921547608144 -0.977493312711581
P 5.029945776303066 7.89708562928029 1.1060669737089428 -0.02841171837347365 -0.6727368554599382 1.2624065099850517
P 3.4030638295753435 7.396813690158635 11.71576655346988 0.09558564511680957 -0.06700089150058139 0.8315081320962969
P 8.143622654994912 0.24494468050766888 13.033334272215669 -0.12419302444085709 -0.24200225684255744 -0.29485128232278895
P 4.276313813758359 3.3397824002795775 7.206815697377905 0.1399024647563139 -0.40776282031255584 -0.23932188179691685
P 6.584286511130725 -0.11563106665868565 9.498320414979004 -0.567102567857875 0.17318488095852755 -0.6606439288511461
P 8.1788716857386 7.108429569982284 3.6393747937519607 -0.7353388465618755 0.24803972128588894 0.5171655738181158
Ni 3.6516252612034563 4.06713457494731 9.70864681714103 0.4178492580142803 -1.934509588515733 1.9464467062729507
Ni 3.1182411642467986 1.4221638987260308 8.605644569051123 -0.6661046948554012 3.3959148551986225 0.5455299838934218
Ni 4.853756856082226 1.6220739826831834 13.125596571722982 0.9845026541498787 0.0067180354501239145 0.10177300487444409
Ni 9.022158587952042 5.555860190328929 11.501229199562804 1.65847723867166 1.0170839305200097 -2.3284357600555126
Ni 2.049617264912784 5.209461845131725 1.7950650913406765 1.0872704188374243 1.383009245971489 -0.7333171881461564
Ni 0.6107726363495783 9.116883914654101 0.4765995110832589 0.3777899280995494 1.3402929380498851 0.3850126711002337
Ni 9.017856725385876 5.9065510258427 5.396634104658209 -0.9143760725361221 0.46686219757787334 -0.06697055248327821
Ni 6.415614135088677 3.60198045507495 11.66181707310033 1.2724512958155636 0.9609505778615515 -0.5191743767180285
Ni 8.703802013556516 7.298376952615177 13.189011086963061 0.7382333945008512 -0.03842102298035964 0.28689500359018977
Ni -0.26994421908935234 3.553732114136768 5.075870736565535 1.718781691988672 1.3920050217121964 0.03754144858888373
Ni 3.605944916655535 6.123809143808511 4.062537486518759 0.4377750504039299 -0.855525835167133 -0.5884141848514577
Ni 4.772040211824261 7.894817544877213 4.931277544194501 1.5577252188625623 1.2809955858411486 0.21179796534503523
Ni 7.341105038539259 2.309706563548271 4.759167426999359 -1.3015425567545649 -1.7752089217384655 -1.4905777744817876
Ni 6.739331636255112 9.068569967968722 3.494506994467662 1.094665939970547 0.5091614725667166 1.2200272736878925
Ni 2.54120112865571 1.452295681188396 4.183441380802119 2.4524837742780727 -0.593423722250907 -0.5900612335365774
Ni 5.235947822499888 8.18457001349509 10.94196363533715 0.25226455800051395 0.5734948445374639 -0.38984685926408347
Ni 1.3375887183402202 6.3341130525714995 3.812060367072511 -0.5689169953587945 0.15604847838855704 0.1645544589770392
Ni 7.633453620296195 8.175685120874773 1.4369898603674665 -0.37604543460461687 -0.6169390317640279 0.31685658294928654
Ni 4.902445692751584 6.424208487971411 13.091193855118128 0.30661073685156226 0.3693266278235446 -0.2643196893928351
Ni 3.1210247223778476 7.262237558159539 6.467854117131282 0.6173360100921303 -0.09531747905708744 0.2103730599730506
Ni 7.230943616746836 4.745244950219314 4.058353714297547 -0.511317599677771 0.6289877353984458 0.3471629472423118
Ni 2.386690221758494 5.27093443025479 11.718277379137586 0.6951535325922414 -0.5462115833414787 1.864416174132757
Ni 0.7278554644712253 8.726154828851303 3.4695683755083753 1.1288366723149847 -1.2145567374916244 -1.6293340414488005
Ni 7.697719135799908 8.348359447495802 11.12901218116892 0.9363435779461486 -0.5632759950229331 0.6540904440033445
P 4.018839372761131 6.6151868180602476 8.41476933370788 0.3909969137081266 -0.9477096536912452 0.557737067482575
P 1.0480236947143324 5.360120757443551 13.442478891256506 -1.2666508870837023 1.8553322095536178 -1.0289102337309763
P 5.112131033041007 4.497405181810363 3.3995014375025767 -1.0859668695346523 1.6346551965513976 2.3465116437206173
P 8.091634786466534 4.0839109017304 9.063991624039371 0.6020392318340599 0.933506879828302 0.493048369054938
P 0.15443030555066034 0.9975447583714715 6.516660106920634 -0.7273565996873473 0.44041351646804155 1.2960491377401615
P 8.8275906862666 0.5947863902077258 2.3573756994612047 0.6533587080436426 1.0858424281416459 0.47466241034858253
P 1.857879782606388 5.534435227744491 6.008299916394619 -0.9460335515404028 -0.4689923565469988 -1.2934842052264626
P 6.924508543841864 5.883673364570341 6.186253631215043 1.093364190439988 -0.1788053124690985 0.38538625238956853
Ni 3.5789434655594 0.23253301036306234 2.0786412474724894 0.21120738294888788 -0.19431574939987178 0.6487245517057408
Ni 9.182311589108151 4.653143853405112 7.2602169011458875 0.3123818350073846 -0.7186678136640978 1.0007695096307023
Ni 4.580696364001043 2.98147192584142 5.048628418654692 0.10368539140580853 1.1046109669984008 0.6549360798330914
Ni 5.367871607862329 1.495492379592452 7.709470062347751 -0.7296394821842531 -1.759226687377596 0.16528208117168305
Ni 8.025850966527704 8.53288966986019 8.130918570662802 1.199208022949696 -0.03649809492603391 -0.15287188043278835
Ni 7.243783598698139 2.1687854185703177 8.901799221370412 -0.6358687787889953 -1.0041415114267287 1.7875473886991602
Ni 5.815002891754868 7.462063291870295 7.429075784954965 -0.08251158554167079 -0.2409151944259657 -1.0768381677605068
Ni 0.9494838624252793 7.026553597481127 7.411792419468543 -0.28172322958126317 0.5699225538051732 -0.21591970082289264
Ni 2.228861538503058 6.699602670202867 10.030426137090291 0.6404183458328906 0.20760089654455216 -2.220521161059705
Ni 0.3377964945147906 1.4617429087846832 4.440227898678745 -1.990110722819805 0.04060594644682039 -0.29528914119115596
Ni 9.023545680892767 6.258778910290788 9.176335842763516 -0.20517300382934986 -0.5358096712818643 0.35840329604282145
Ni 7.135890261308794 1.0552122101571422 1.3562919796409652 -2.1347203632438005 1.6399390706581563 -1.0716874767975026
Ni 4.41231452769658 5.172469575962533 1.5592105557195544 0.6699307534697106 0.6810772570048336 -0.87730205050196
Ni 2.0779964367000443 2.4126326086498864 6.288995042999548 -0.13338497535277027 0.49837158104006424 0.9687037394444091
Ni 8.987968621413097 0.7717719516445223 10.050974794337176 -0.15294772797604628 -2.0955442072649717 1.8487902946700419
Ni 1.983936539719548 3.589852764093208 13.78444884851795 0.23796279666586112 -1.1360655859632562 -0.43779124835384603
Ni 9.425390254720561 3.0711174932605556 11.19095900212172 -2.7719194308084454 -1.194255306930111 1.3341492870459928
Ni 2.4020888278504584 3.804299207179172 4.043086319699976 -1.4460177284832259 1.9741549708214967 2.835299180616672
Ni 5.9354644158571315 6.942231467834502 3.0367353956048215 -0.11220294195851643 -1.476224076863277 -1.0503511772135716
Ni 9.032083800277903 6.320542035151436 1.8592200142991153 0.5774710555763926 -0.7794803169657802 0.3107299012262584
Ni 3.5457657019772 2.9596814455226026 2.4930933714615207 1.5243399585338975 -0.8739950976159142 -2.2933761973482176
Ni 1.4163812207231448 1.6988983126502148 2.2539332434066575 -0.9762725529306024 0.6618466909099956 -1.6052515465783
Ni 6.069600052125053 8.775537211991024 13.164649798579102 0.7517388851864537 0.02221073176908433 -0.18158518920708083
Ni 1.8883677105535337 1.3348332769579696 12.592051272073213 -0.799592771444939 1.1084995034195297 0.29021044111666794
P 5.064098253843612 2.3405881259785954 10.28585461599995 -0.13735758684727312 0.05182366953951075 0.2501973910588401
P 3.0396454791054635 1.8613475149582 0.5939325782692121 0.8171552058087347 -1.267377737947398 0.7119315233815288
P 7.116171048151464 6.341460896257502 12.103566811272838 -2.104184656548789 -0.29746969378224253 -0.3882777150047506
P 6.205085292335301 0.5930365912075007 5.650636127178826 -0.6675134022774698 -0.1264712789520725 -0.5452942137335319
P 1.3823130934289933 7.311666802547255 1.0708685531130928 1.2192238039499905 -0.8273010359934849 -0.1391617299355474
P 0.7087426358629824 4.168336126122619 2.896805834634494 -2.0349921567135274 -1.2249576211099744 1.0643348930871737
P 2.894431843810943 8.541409044746128 4.046885829687609 0.9347659490463835 -0.5595342685923138 -0.6099687710937818
P 0.7154175520277402 8.109816950689547 9.678496290179469 -2.0406663242801693 0.08357525091949478 1.1130935505481152
