# total energy = -340867.7156901297 ev
CRYSTAL
PRIMVEC
9.28127771525623 0.00000000000000 0.00000000000000

0.00000000000000 9.28127771525623 0.00000000000000

0.00000000000000 0.00000000000000 13.58408810220326

PRIMCOORD
 96 1
Ni 2.9598737046851946 3.119678743904247 2.68598134387894 -0.28682738357704796 -0.6601399926315341 0.23355129786172682
Ni 6.073798056423348 3.7287161857415247 12.104563468849765 0.3366669328069944 0.8249502763731213 -1.0415752307931545
Ni 6.82917340355548 2.909494929398807 0.9198006063838973 -2.9589617864753555 -0.8987697334574327 0.8994209938881864
Ni 0.18808509233210036 5.316334421811585 6.157450212218523 -0.47345424897309435 -0.5986911412974334 0.2850870038471735
Ni 1.2935502338272633 8.948126224665168 3.8380208649364875 -0.23884802748429185 -0.5923374311652637 -0.004779680776830478
Ni 4.576950716134583 7.893299734231636 7.389431234251882 0.10006707792693088 0.3066613875838396 -0.7270498670802059
Ni 3.393782717841771 5.526648174204647 7.7337879833875 -0.2887107166426899 -0.0822498472398519 0.2298445384341009
Ni 8.921683864534195 2.8680076181368044 6.004900347767593 1.218771289793604 -0.1301880656820274 -0.4440621689642223
Ni 4.115569121023749 1.6776466296363748 1.0062816956181457 1.5085017059500603 -0.0690210072544037 0.6620847750627307
Ni 3.761497658532888 1.1185888681449332 3.5804663372430965 -0.24255915778729192 -0.9951879017778668 0.4446324396453955
Ni 6.303556085571196 5.504438076699059 2.84187246829728 0.5562427423252356 0.9396438459639753 0.533581553282294
Ni 8.451299430066731 4.3805495989947065 2.7133267723288816 0.6112586935497988 1.166426714753617 0.09593917180148638
Ni 7.969099929103398 8.621573750517001 1.9938588323131783 2.581853200713547 -0.2409005391379464 1.8579560203297099
Ni 7.631372796619782 5.652910675861981 11.882653688114255 -0.5058727745131159 -0.19762553049939513 0.008172251398147215
Ni 3.0236732075073443 3.1216556560516313 8.79872642586129 2.0240284586131723 0.7693278019128106 0.2671769563359721
Ni 8.299531977324836 3.0298359758916775 12.756314278731532 0.9433740024303688 0.9818413052676316 -2.5166515672052334
Ni 8.204333912086723 7.599482326486394 4.603348526132656 0.17060220783301586 0.9828445497211653 1.048770205879697
Ni 4.599068000863297 5.89410323912052 5.88940876886631 0.8051723224152455 0.1244385647927599 -1.454053968524141
Ni 3.7363639585558177 8.568893218364176 1.4501690104162834 -1.08897351757146 0.4919803328017398 0.35661817911794064
Ni 6.493441745774622 6.073872306644845 7.077337134484911 1.2895002808780502 0.9207212980278595 0.8248284060832762
Ni 8.695313501742193 1.2297971373935503 8.134450531740582 2.9372917577010895 -0.7698019133357517 0.19175570198217945
Ni 6.591878976925585 1.4500789820227171 12.405451353937153 0.03550487777482918 -1.1607612889377237 0.9498004747820029
Ni 8.970438416225313 7.6538984575667355 7.003398763917211 -4.409488715682845 1.1570241904927943 0.05666454257157983
Ni 7.38401746497691 7.654093364398168 10.31071709882457 -0.0128575726889585 -0.9157683248979583 0.19899104338835405
P 3.281664883379803 0.7947845803199598 6.345331116441503 1.7453000499941747 0.40003511265099495 0.47315985766112706
P 2.812301389457936 0.7000450101995972 13.247827541854019 -1.5736732575513865 0.3874400495948037 -0.34407222413213
P 1.6420436484280878 8.153621010803594 1.7710394863643175 -1.0493031955650316 -0.663601211707257 0.23564417583501354
P 7.675885804407828 6.6617113102444465 1.1284233099823422 0.792476472115132 -1.1642605603402336 0.6531041688306752
P 6.852766411436466 7.88066791529929 8.25123313636816 0.2132097580908973 0.4414589270134204 -0.4454518502228974
P 1.170805336413396 3.553949726890626 4.275795530249803 0.6490680510880886 4.771265813293906 0.5887301734299796
P 1.4667110316382674 4.172667541355705 7.677305839893977 -0.15859001386348817 0.3655820731794478 0.20264740919401875
P 5.2728516358468225 0.8225467381380589 10.941344648817926 0.5003590437837383 -0.6012599304658742 -3.081573582472022
Ni 7.273579541776335 -0.03888669725403573 6.491224448535139 -0.66342303425818 0.6866601504092497 1.211141026941856
Ni 0.08640127024613811 6.733483430599942 2.9218557350226853 0.9879155364861696 -0.6035304716676058 -1.9956208540047564
Ni 6.987215000013954 8.208974550930348 12.843007909224818 0.27987743462177606 -0.7671955860611561 0.22151082175742495
Ni 1.0961003323087288 1.9074789090057211 11.961278175786248 0.3294017666041488 -0.8757570746123434 0.5187329183052356
Ni 5.510164625032092 1.8254324142504401 5.213546127680839 0.26578393264318745 -0.3141276140538977 0.19893884999417996
Ni 1.6051969760097093 1.6941765851973654 7.442762383970584 0.507696457985416 0.3857174104767422 0.4775225055051969
Ni 4.133212829907209 3.245031680348232 6.593485566093247 -0.19187731516170825 0.24463043849402386 -0.4635290194395824
Ni 1.9047687759210443 1.8650077823088698 5.055046964232383 0.9087129607130738 -1.42280426648124 0.1214504286987134
Ni 0.1133086223892416 0.4031629245620269 5.865989320878074 0.9451071830713915 0.45892391656740317 -0.3395709938276668
Ni 5.538918023307189 2.9955602173926668 9.637462496669217 0.21347201061334847 -0.7973284008907945 0.13872592794970945
Ni 6.051337364420204 0.4364483707318079 3.148819171458903 0.08703672710553398 0.0625611105616729 0.622638139031334
Ni 2.648431150611868 9.541246275268815 11.028785422165036 -2.2157003426322937 -0.9739927557574902 1.8610829959944657
Ni 4.110993451123935 5.570446523610774 1.7632961163898457 0.6957006633449632 -0.7573672871168247 0.7873113829744247
Ni 4.444887415922716 8.776283368285753 12.386311503090505 0.7376099019842394 -0.5720038618142342 0.7908667044258508
Ni 5.28746964820424 1.167946702885723 7.648113437184273 -0.6465740810216414 -0.08192871645500728 -0.7755930660962321
Ni 4.000639059422545 6.55599755738668 13.391981562509063 0.19922012868002462 0.4663145526045195 -1.451270492241733
Ni 8.630418808152948 5.652827144362796 9.038227012197444 2.271138211885624 2.252415181554824 0.8205215511778061
Ni 3.265914555144542 7.031922914633434 10.967847337253865 -0.8203454306112582 0.7804642781456043 0.5441454448410694
Ni 2.8155683992038476 6.636995267763303 3.0899313207888457 -1.8272799314020918 1.4122761132564066 1.8057852518634256
Ni 6.427516830362093 5.404061058511462 9.604982665402689 -0.7795088562108704 0.32742818781754573 0.969585370718414
Ni 5.843418181670454 7.7461822016110515 1.5454886603920992 -0.7189532061150006 -2.252315679862482 -0.12186206231483529
Ni 8.512741488356319 0.7452225574700503 13.645216583566809 0.9710506424100309 0.7402897628092476 0.2740831965375021
Ni 9.480453906417333 2.148411596489017 3.2330811071981302 -1.2042144750253518 -1.5834994996131888 -1.2148074200498495
Ni 9.23796196428258 5.251384040556216 0.3614742095742107 -1.3214536938561952 0.09190022584542237 -0.12591077846291218
P 0.919997369470867 0.653913347582895 9.624298860525393 0.018221665214349262 -0.7865855605519937 0.6637786178253859
P 2.7623309903897875 3.5273774288720325 11.259117034273956 -1.768986337867521 0.595301141779278 -0.5577206124223427
P 2.9418030570281206 7.750173151016569 8.898283907229104 -0.5440148328004759 -0.6202914931760285 0.1485817376978667
P 9.04208059869319 7.210355478170794 12.03464667590395 0.8806935926820122 1.353842394599546 -0.9159920108729902
P 6.4667859162568435 0.3620227330855271 1.000045605140083 -0.8369992371178553 2.8077901765631257 -2.1343894622669435
P 7.187764848280031 2.0741056873249017 7.131198245159554 -2.4870039195421296 1.127689188974103 -1.6387864451109517
P 8.856102356396095 2.906571326927324 1.1613542113444704 2.3285211206804672 -0.632985029483297 1.293988655666707
P 7.805341065589577 5.465298928691931 4.818765124998167 -0.2997482054037741 1.074817537786052 -2.512367080897267
Ni 1.660207108862034 2.934702879597375 0.4219231711512633 -0.129515465095035 1.5063571488032317 -0.5169128343773614
Ni 7.7888389538616485 3.873522680217983 8.290450247107863 -0.8769850334821735 -2.8276624900070204 -0.8438237162388564
Ni 4.296479785703606 2.2985362630802695 12.106424365026058 -1.4504932477560761 -0.9198630637926223 -0.15343058114973576
Ni 2.4781753927169734 5.195622124211224 5.349196641718827 -1.2139188467973092 -0.1365111796865778 -0.2589324569389928
Ni 5.921882103238456 8.060975296929476 5.2908526739212425 -1.5473883557129287 -1.1886983816676238 -1.3536865857479718
Ni 5.0557996758528185 7.9037875780182265 9.58711991836581 0.863635608758461 0.6827135070566759 2.149833307625839
Ni 1.0849720803617173 2.7788052582846547 9.856464453105312 -1.796122789072997 1.3236429881980303 -0.526525674876777
Ni 6.952150332911528 0.882717261384494 9.38926720939565 -1.8975535801166739 -1.0944584519454312 1.1237057788463227
Ni 3.458120534769781 8.139513468718977 5.383658953899351 -0.7132361011255651 -0.17153551828056265 -1.6702189525886202
Ni 1.810257525231788 7.949590683404801 12.835890097366466 -0.40748925493619503 -0.40048556992485224 0.9827249934241655
Ni 0.6932594680824494 7.483754075004088 9.808866348614025 0.47493571861462713 1.378632199949716 1.1774577757567979
Ni 2.081521428197014 5.401917083365706 9.698142562060683 -1.8456718036457183 -0.5897313610009843 -0.23694386848304355
Ni 6.276844568387293 5.149522017938659 0.3442927083195754 -0.42343960761786426 1.1491309037876467 0.3333108718505679
Ni 1.45432052592579 4.734769561928564 2.136098125381344 0.08317930103265675 0.26914822112973 1.4532196455483037
Ni 0.6955426623935127 4.59386120408075 11.767175103001735 0.8411199441544481 -0.35385732854335183 -0.6522443919335411
Ni 6.94219152195311 2.926340448401164 3.517477089963044 -1.4527146808874272 -0.9193293027763392 0.5726283827721106
Ni 3.9439582965865156 3.889588571894611 0.17420494155081956 0.054327409797970946 0.9903213177141847 -0.46361000918916284
Ni 8.522069172432005 0.14183277310546386 11.142905228224143 1.4565787918285236 0.5632698243753461 0.41446568625402813
Ni 1.361052966446625 6.717139100592697 7.623675833033746 4.024210706736366 -1.8595117948526039 2.187481714106233
Ni 6.859764494812652 4.078518260496251 5.912053230167659 -2.031069938840986 -2.0470323757075133 0.4326372149567323
Ni 1.7249068956198468 1.1045555762818127 1.6914497458128515 0.301773463363919 -1.8288231075194956 0.09815777671935998
Ni 4.174031889175731 4.932024556615666 10.497823944488434 0.9845255369680141 -1.1265661311132533 -0.5324518105532249
Ni 4.39913071692458 4.4346501666336815 4.002931535011295 0.34208810382256566 -0.16818485664077484 1.3564327810345413
Ni 3.7324565406494856 0.8658587485933749 9.343393566298653 0.7023274246328614 0.3046279020935786 -2.3557383045252074
P 2.099276512412721 5.529878058839809 0.3196230722268677 1.211415106538849 0.0007350783938116373 -1.30264864533455
P 5.051855132835738 3.573431128756162 2.1785887427613386 1.0433932578385 -0.36659200250120094 -0.48653499341645245
P 5.3434635964914134 6.325710495410659 11.623618796629748 1.0878054654052878 0.4515283954342804 0.0066897533153497685
P 4.73613390974859 7.53752051664632 3.42450745949764 0.4802522457315342 0.1053910612430056 0.6725669055409772
P 8.064669245449 3.773878882967678 10.545137113754725 0.004324338406966746 0.6476560012319105 0.09109341367341085
P 1.352579159918167 7.3805741109549405 5.607090864175571 0.21967993919627327 0.3029649125688589 -1.4605169505406652
P 5.184586685041085 4.498830201841008 8.07258895969953 0.6287067138229172 -0.5989950456910974 -0.27455859351202394
P 8.16284660082472 0.5870556637627969 4.083608113179939 -1.0508869951123836 -0.19666650902023547 -0.4254905766096221
