# total energy = -340861.69783680455 ev
CRYSTAL
PRIMVEC
9.33115936731865 0.00000000000000 0.00000000000000
0.00000000000000 9.33115936731865 0.00000000000000
0.00000000000000 0.00000000000000 13.65709494211587
PRIMCOORD
 96 1
Ni 2.8910358289601916 5.096054141284193 -0.2961187486219824 -1.795766948395475 1.6043097514903208 2.8732982855682643
Ni 5.910533731010747 1.976610189631627 13.184109123750003 -1.4090786893650313 -0.4754476252540393 -3.1677590173208543
Ni 9.00117239322989 0.5674586031427473 6.652999164037789 0.0569771887159922 0.738800836968547 -0.0810933650379055
Ni 3.019068668712707 3.2075021040280847 7.827414235448888 -0.1604759180322914 -0.7757995256800833 -0.18209375341238315
Ni 0.5124980735791358 8.558940750172463 11.376360262343825 -0.0258922943857296 0.7774892546776804 1.862004736477787
Ni 9.349075344715406 3.9306856290262213 2.4994397230295795 -0.9454478542402619 0.19634152158064896 0.374328194803194
Ni 3.622150839549003 -0.012870468323784294 6.973572082409747 -0.5060964604881478 0.24232184496550524 0.1309596537407293
Ni 3.7788116767040925 4.464176012173992 11.516522676354361 0.32290278914336645 0.995844047304627 -1.9556252874484255
Ni 7.2275429166028875 4.085162974853996 7.6206450716797764 0.6083561751910234 0.7050803047876503 -0.2660757528519934
Ni 3.6139114256942206 5.1928742524475275 9.091132235915266 -2.135464183388361 -0.33487230280041685 1.1669918432284676
Ni 4.343496126122007 6.858532882286659 -0.06808667165820116 -1.0814802945182083 -1.5696813627831738 1.6482573607158648
Ni 3.476435452509044 5.515321800766739 2.5802214372126184 1.7351866157092566 -0.20253016688986408 -0.018407813083226362
Ni 2.4738583492097765 2.950036750595288 13.02714782325842 0.3249043929544275 -0.38978540989852867 -0.6758154943852619
Ni 7.440517301451762 5.117795742962159 0.6328289742651306 -0.2612089116779953 -0.6615255601251511 -1.0115534876200836
Ni 5.830285759152163 1.0122441845603714 3.148138200287721 0.9880073248690275 -0.32141257775108517 1.261619238197066
Ni 3.6644116610080175 8.800001925171841 1.2767937542995673 -0.1039425017219371 1.3056555504816738 -0.9066481077642451
Ni 5.368337376032272 7.83734352229246 5.991695223386187 0.0057448729035772025 -0.6187773705243472 0.6567643912910818
Ni 5.700675953441032 4.462822994043818 5.506786589155222 -0.9315731531406989 0.24373029527725762 0.8384853347450785
Ni -0.2727189998975904 6.348043807351844 2.0147764982939504 -0.013213927587112725 0.6279567230307702 0.6060918046368787
Ni 1.1891536378704752 4.8877546673540575 8.68020383369435 -0.14534471881780775 -0.042382835841585066 -0.2348849290714858
Ni 5.298960205012671 7.923050222469331 2.401381366998149 -0.31636678779706157 -0.9864798324809075 1.0233882754714825
Ni 6.347241327633259 6.411803620341344 7.747096279893915 -0.6990659802727702 -0.44646666464065693 1.6662543115139175
Ni 0.41599055625967 4.9329734663804174 5.84926533761267 1.0967899282920854 -0.9652330072869892 2.1745572927350807
Ni 7.518059237049999 5.901799765701488 5.90917884664867 0.4071506406498537 0.5497275669145372 -0.20743403194938467
P 4.855515511217847 8.31783291937549 10.567163975136612 -0.7498336977439409 0.9207909749235303 -0.3165166831113646
P 4.40174122383611 9.219092292623538 4.523230121418343 1.1599753027013182 -1.21251682424346 0.9589428034029034
P 0.37472443640532094 6.732879488211346 12.63837159373428 0.5283228759865158 -0.2721571831593829 0.3828416315908439
P 7.406402582252346 5.688732069257428 9.63880878087892 0.5380084787053961 0.656268939711902 -0.31234378268059754
P 0.6658398172935158 8.30767128665991 2.593892519023085 -1.0723153401894887 0.11948610588349098 0.2918585182430522
P 7.656496319665575 8.046062898400926 7.085724221777829 0.7335419025624528 0.125234578331494 -0.26060727353825447
P 2.4774601767838944 1.3473541163461071 0.725839172997085 0.36411063084024387 -1.2121537844770867 0.050907071262512336
P 8.725679239607468 5.637615977415415 4.216983332255046 -0.3093278786724092 0.26728699955127516 -1.8145288023840105
Ni 1.448849138428179 1.5097909412431108 11.416757651247007 -0.2905089461936932 0.24010581115079296 -0.9771356722618462
Ni 2.4781413514287403 7.105444694304101 5.982285682127792 -0.37875152068187035 0.05319149642131484 -0.048926807607689936
Ni 1.6102315422995988 6.048653554202697 4.030003691592642 -0.9170322792120464 -1.002942091801989 -0.2982736777407766
Ni 5.746463953198017 4.246666683799155 9.50791967319781 0.015411963679696038 -1.5110188159449591 -1.7433640093137264
Ni 9.767204602736703 8.69539962697013 0.545981073279154 -0.5299951214826163 -0.8428261282122775 -1.0075497657773294
Ni 8.598178275947504 4.590715866403556 11.1317075240458 1.7636104182675885 0.628864065336388 0.11100275100282819
Ni 2.754698257236265 8.94159293970465 10.5672591529637 0.25280011878900976 0.005989127703899363 -1.1507221595341666
Ni 0.2775562729919497 1.844322341138703 13.60174289720087 -0.7585811049192677 0.48506946461451944 -2.104807891955085
Ni 6.7719210596365 7.125954582925631 3.9355788890776915 1.3180924906934461 -0.7749189228473429 0.6617839559928603
Ni 0.8991225377183232 0.6295826638686653 3.9793084350449086 1.0653641056826362 -0.5622344411322963 3.8308274964530926
Ni 3.245489254427654 0.8387937920837532 3.17508378962912 -0.9276159682651638 2.244729125764476 -0.5485127206708295
Ni 4.072118013847216 7.273881454771461 7.798037879052935 -0.7686929965422891 -1.969241592680279 1.4139591573857844
Ni 9.174545337082504 7.972869283138282 5.256752571162911 0.5396362441168061 -1.9423056875213838 0.55795124037591
Ni 7.490327030961195 7.046303805276227 12.482148387960606 2.2651148885096792 -1.9719001133490492 1.461194179113348
Ni 4.8108099259650015 4.291586885720926 0.8340358338453006 1.1597266770256218 0.45280417682291046 0.27833065895994646
Ni 0.06331005110071172 2.7815346720112983 9.360641316938512 1.784507830541888 -0.39151190567133215 0.2389516429416917
Ni 4.456869714271053 6.580977542410662 4.582092008776614 -1.2899288837750367 -1.3470073739555832 -1.8002388681238997
Ni 7.963668759853101 -0.17526716923485855 3.724262651275244 0.035783842467828696 1.027949926700236 -1.6361068413962598
Ni 6.225208423451099 0.7368107503588668 10.986259008168068 -1.4137182450195718 0.7455057597925484 -0.21360133710236118
Ni 1.3061943717102682 8.757731772553308 8.139246656699923 1.3652922883077003 1.1894776830358094 1.9339094930378888
Ni 6.403256278222454 3.945811438605613 3.260194228712763 0.5695906243870513 -0.10260449963680394 -0.5766835266780906
Ni 6.474387707231521 3.824851617768075 11.610606891546889 -1.8401465029521147 0.1563716660559307 0.9418315976439133
Ni 6.9215275401956475 7.869983918287963 10.569471570885522 1.2574391386774473 -0.34450056991880024 -2.1847671433885467
Ni 6.560299692917798 0.2654052370670371 5.722774005412601 1.5080407071532416 1.9248877491552525 -0.7654068695918496
P 1.6455966368744865 9.191668014798841 6.0502025266827575 0.07629414387704925 0.17855025903549895 -0.867532372709706
P 4.55444564935538 2.5866160808306056 11.256819710869042 1.2608702758461834 -1.3063448632392147 -0.30510407039904874
P 5.214102640351977 1.4947304497803484 7.049601437050044 -0.7569559106110189 0.3253139696880204 -1.3326580472124467
P 8.41945857769082 0.7930440500807936 11.056756851445835 0.8315518408500389 1.318884133356806 0.4490074287846397
P 5.94526430673838 0.12032250264242829 0.8351602385672726 -0.9936614378310114 1.5295952933955659 1.140550104097171
P 2.6020964744716975 1.3506760091346717 9.132868646209344 -0.46991666813348104 -0.09250160687484714 0.08690945749905032
P 7.8441832622194765 2.90163602617314 12.82995336227118 1.9302880942352179 0.4120938435877419 1.3954788391934096
P 6.279347810977089 5.865361587781979 2.226201910662764 -0.8469041549363931 0.9039463925623659 -0.4780143575399509
Ni 2.544691181114254 8.658513553393735 13.073323066135421 -1.7570484487793545 0.06478177236207552 -0.35633407221861857
Ni 0.49900615003142335 6.789678256200091 7.456869225391876 -1.263227206114134 -0.2437002133702706 -0.5189746020023964
Ni 7.374424698582652 7.981062041195473 1.1936195308160007 0.9215875026828968 -1.1533076608731556 0.48325400867233553
Ni 5.269791000358028 6.19649644561286 10.135735948569636 0.11564024977483955 3.3155198017793217 1.9623914025276654
Ni 0.5723555956580246 4.350587807356022 13.721010045701764 -0.757006047122664 0.6286007843726723 -0.49765552880964614
Ni 0.7215692344014468 1.3837083138299495 2.0161696404100535 -0.00010053013360627848 0.14310580218496 -0.7725874465006888
Ni 1.160730925977307 3.1815894740453765 4.535589242200516 -0.34102135312094817 -1.1452516233378984 -0.5026486111488633
Ni 7.695920468630984 3.1070148471740042 5.080357264742274 1.0751522954176518 -0.42004112345927663 0.7711095764035817
Ni 8.156189243037556 0.11564385925988246 9.144039910384821 0.5706159803277722 -0.5692975186266647 -1.6681283886081788
Ni 7.668001639351811 0.18789036183140417 13.030248567566398 1.3194852572759146 0.6933203360382446 -0.24200765615919612
Ni 3.8500177549893078 1.0266608260163612 12.517342722316306 0.40509170123829585 -0.25687865973375756 -0.4989786184964439
Ni 2.6660802352896407 6.901502871869075 11.803841208434504 -0.8579601556402384 -1.822517734126758 -1.598374102732176
Ni 9.305601472518994 7.030860736273209 9.938636665409483 -0.2960877258330514 -2.2218324236719607 -1.4521716638997635
Ni 7.221319033204089 2.5285949309449456 9.860095362626822 0.9363692889777616 -0.7721886684003733 0.07537883115163148
Ni 5.6584524566200916 8.261584689798335 12.74327155592463 -0.7716993874687806 2.1247303419106247 -1.5262212347170103
Ni 5.059606632205167 2.1276256752780602 9.040122519291762 -1.481564515239584 -1.2159988692547896 0.6881598748832278
Ni 4.649259561222249 1.8818895893599425 1.4408103445030431 -1.8265397108019574 0.7011079504034635 -0.36198844229091853
Ni 3.1631324405179027 1.785769315160492 5.525592608048687 0.06320157235914922 0.12235442857022154 -0.3906120195648821
Ni 3.187757370487066 4.213662372582433 5.2242484100963775 0.40488344188223174 0.7481038595370277 -0.2229421548873128
Ni 2.639477099502568 7.905656941126959 3.1941762751198004 1.1308729860187234 -0.3088288275488036 0.9857727791115538
Ni 5.792942458759366 8.889954302929603 8.170438856738166 0.744607159237679 0.6597509847232315 0.9839922901723636
Ni 6.976749342225776 2.53293392012102 1.2253464062946486 2.9673510389803153 0.8915197367632388 2.977242072841782
Ni 7.279946708458446 1.7609670931604786 7.573118676904506 -0.541149595437539 0.38487177464699523 0.2648009999046278
Ni 2.424925748695077 3.1240162198166015 2.1347406844108705 0.6940975805239014 0.9870598733540936 -0.07130466108225784
P 1.6241816257796666 5.358828924482982 1.7493917897778537 -0.20176089282400736 -1.0383976043961212 -0.8088847382698262
P 8.46325904047038 2.0380465439010362 3.3061501893410803 -1.4447334624541637 0.007301932978051941 0.6512419188109558
P 4.385691629464393 3.3370465916225873 3.2725402858716115 -1.3026779559105888 -0.07709658517368657 0.4875804039618312
P 2.408390934028401 7.012273066512477 9.212216161174398 -1.6705493393448456 0.3829092516039857 0.26971489226647744
P 4.157554110398054 4.989800227847717 7.151483702252131 0.8461919593607168 0.22666459804422254 -2.6414979089593733
P 1.562819920786405 4.405109772422267 10.725763827239634 -0.04601194795374012 -0.8134409901819409 0.4282943646070043
P 9.219120286102093 3.0468848552371766 7.211288036721765 -0.1767322319901537 0.16781924577124 -0.8879667293046577
P 5.727111128356772 5.67215059879316 12.372468072748958 -0.4843685818927529 0.5586801481221346 0.971900649115152
