# total energy = -340861.0403307213 ev
CRYSTAL
PRIMVEC
9.30413936486950 0.00000000000000 0.00000000000000
0.00000000000000 9.30413936486950 0.00000000000000
0.00000000000000 0.00000000000000 13.61754843730922
PRIMCOORD
 96 1
Ni 3.981510984146552 1.4557349235283275 5.3385010783346205 -0.7399454920959514 -0.3736993029699435 -0.13056781761894934
Ni 5.0353536148875 0.5950908824683923 2.992414927691472 -0.3897036488179998 0.44052510234524134 -0.7853822842725119
Ni 1.1865196557472693 1.5959576054266627 11.806877282546878 -0.185492494681287 0.4846334055183653 -0.6881786439363051
Ni 2.5504785501968907 5.046583710903113 9.710319771549383 1.240408922668038 1.87623939201993 -1.1730755875287022
Ni 4.709932042193175 1.6677669517800136 8.432816799383332 -1.2024149599227678 0.24134559709516498 -0.16549445429280532
Ni 8.691331376669314 4.3299044765281565 7.083303511457189 -1.962330467382743 -0.6900372944115987 1.3808166091955443
Ni 6.993791179446087 2.0558332937147 8.468671230208322 2.372882420404662 2.3640308835513024 -0.5283928099925029
Ni 3.11839390288699 9.188321276230159 12.425672320457668 -1.3147662545336904 -0.21087056843475943 2.3729556968447585
Ni 2.8976159837863595 5.576324180451492 4.132313402730349 -0.10444746638281367 -2.2992282852536206 1.2376928092884556
Ni 7.268272590014914 5.029845564480505 2.4346001485179833 0.538780323874414 0.9606093924720489 0.3581220173569768
Ni 9.072373093507244 8.755734628218667 6.574742984385977 0.8606495295469436 -0.009355215962654855 -1.031138608840863
Ni 5.224199728250284 4.658266157209999 4.421645149877898 -0.03267075076014374 -1.0794884608991602 -0.6949308750584742
Ni 8.656924669904 5.411445529670495 11.439394487766572 0.9544947949338788 -1.7682409750610644 0.38997747130467675
Ni 4.903179013398034 6.42476863419107 5.7555386489133955 1.2120308857459772 1.8950917488397425 0.26325859511817246
Ni 4.286137805726632 4.642467728846694 11.669557492079257 -0.30736124186434166 -0.49618202958791313 0.41430499230644774
Ni 0.3206457580424495 8.77429638592467 12.551975079697382 1.3516171048134527 -1.5131826563654973 -1.0402169169930473
Ni 0.30145783176821844 5.479830952797876 9.19879029365913 -0.1550740302904297 0.5022901993681802 -0.20725559738999147
Ni 5.942209454530984 8.46672015221787 1.1919262910369728 1.1519069238708872 2.3134955938059125 -1.652252855028503
Ni 2.8674147479398995 0.03500868457161873 7.31872428483236 0.5138413945408893 -1.470697490618093 -0.040403343517711056
Ni 1.2673074964295892 8.132040961018546 1.276356702216486 -0.15285028316623353 0.21498150527933943 -0.7238359881285985
Ni 7.444930281024383 8.76780209676237 3.1262754392041603 2.038422265440999 1.5334133815900752 -2.642073836067502
Ni 6.162317475609141 6.5417030556692914 12.832550701442864 -0.009712342191757466 -0.9293992854178317 -0.01004530005114399
Ni 8.434202185710362 0.6245468567648516 0.3749084282766264 -0.12589895138837026 1.0867333153870316 3.5720696174187516
Ni 7.790886088935324 0.9594335302683583 11.913298026727963 -1.5278148044563753 -1.677740714886962 -0.8094596369366898
P 4.039559508621617 2.590290961837988 3.193736961308882 -1.4136886773332171 -0.31753561129418223 0.8577099873026454
P 5.725227624224362 5.775200155872956 10.670057547169613 0.7218688370998987 1.8225527011297513 -0.25209203697839166
P 0.11579652525393871 8.491543595606151 4.3557774268183085 -0.8724645199040006 0.2924953804961027 -0.3188119069034445
P 7.838458152670059 4.427197860153058 9.457291845150232 -0.5010876944196467 -1.1136216551374434 -0.0453750857006896
P 4.452179473907754 1.0175099671610268 0.24975100857255733 1.1960342532074046 -2.597850604583068 -0.8850670391593596
P 3.13007059758425 5.94690804482749 6.664849850892023 -0.5963380676842246 -1.258912380788864 -0.07190424233946971
P 7.199635955129106 1.3644985345232798 2.1692479593331817 0.7063162340772803 -1.1746159354326287 1.988807687737665
P 1.7784769041327633 0.8457788178584907 4.871446316239089 0.3557177787908583 0.7011079504034635 2.6172079260637573
Ni 0.9849175675399089 6.5195499002316994 13.167080096001053 -0.29234419963021907 -0.4400895574697195 -1.255311036590851
Ni 7.527095134308451 4.426444224877777 5.138908684194678 -1.177193723462134 -0.06834275024045648 -1.8864374155988544
Ni 6.335086036432589 1.3905129077292877 4.705203678651225 0.7415588593296584 0.22077728602551008 1.073565410546506
Ni 3.743678577890481 8.423102347643564 4.66022467851181 0.4422284581895932 -0.6740674013459036 0.8607253770902016
Ni 8.41936208368476 5.103552955230862 0.18673221293631528 -0.7620736914535585 -0.4759163373603417 0.4430581531797402
Ni 8.361592683385725 7.420786039797777 10.792492575743468 0.3018228285446157 1.7969352576719635 0.5711803374716744
Ni 1.6976332386152373 7.163480070194004 7.704509251834961 0.05203218600589104 0.21814267661614042 1.6490572309093408
Ni 3.2859893623146794 6.430834932950124 0.011072856063115168 1.8542891130010841 3.1292660034519786 0.19282965177264855
Ni 1.6936975877332126 7.1876708321166145 5.354106911016466 -0.44757172477937757 0.34833845560765164 -0.2034593635723528
Ni 4.131837961217178 7.311462404185976 11.363108920043619 -0.7662242232868224 -1.5882208163482583 -1.1005272838473306
Ni 8.38128954607425 8.601099834697976 8.74335081894213 0.7889586887698605 -0.6104400543032454 0.5597235017849843
Ni 4.10257644343002 4.474872269419004 1.9996279192153537 -0.3006743167624693 -0.17153937493530458 -0.4138000276455712
Ni 6.663457021253633 6.864007741731279 7.828946531164872 1.3417777501255277 0.5902070150858223 -1.7624009713405195
Ni 0.35554651459933656 0.9285112236338205 2.4802862632366742 -0.6441140495169229 -0.48574669318720215 -1.6430855867069378
Ni 8.247486720224607 7.372116087637323 1.3802746329525024 -0.495175956920902 -0.3294215640984907 -1.7232952635883096
Ni 1.111872546937612 3.2053503878595753 9.478998401906173 -0.21195557396882203 -1.5603171479594549 -0.12635840752329205
Ni 5.761020647730627 3.9039795921845837 9.59940419772029 0.03933684992640967 -0.15064736197764378 0.3475972065662529
Ni 5.4791424464970016 8.987882205422924 12.039247228678038 0.9410728651010181 0.9432580456777949 0.5823862334898229
Ni 5.986357595039748 4.736234843714414 7.155164030576146 0.5051459236494202 -1.0442921155036853 -0.10096439293021967
Ni 1.8899684041783973 5.221538744438797 1.7500183335586514 -1.5580003269008202 1.465689238770224 0.45108436591832635
Ni 8.515204021594304 2.1515728860930343 3.8454184096395423 -1.0070530286465689 1.7764944733191081 0.39892439608531943
Ni 6.32341864587453 0.044016952146031046 8.127660572282714 -0.9537933979914798 -2.037492297427562 -1.7641017560817103
Ni 1.5331825782374868 4.446345778628725 7.4172607014545155 1.975501200436746 0.8675472851080415 -0.5931437291166429
Ni 6.786141400758075 8.115916887783207 4.944082800567409 -0.3467369154484867 0.01661215463538429 3.810199021569464
P 2.6949160071532807 4.567513583443403 13.53567938748548 -0.2510674523686192 -2.82026285510884 -0.04697816852175135
P 3.360031702076271 8.00014548370511 9.326985514812325 0.3772399691333503 -0.7779163149127699 -1.0137623223459444
P 6.001895507505426 4.603074003469642 0.6146863300396272 -0.08715396940968861 0.3065354035289366 -0.46686219757787334
P 0.05538754066357836 1.244689134031948 8.917642467352783 -0.1089155294564963 0.5202853503940201 0.22000466952554368
P 1.3227415577891726 6.610274561580693 10.683905827956387 -0.2775996943311929 1.093342593173433 1.846270870682298
P 8.749277555613169 2.8372693369286464 12.66813260555232 -1.0353870997045715 -0.04945285531448902 -0.7896477444170852
P 3.100864904632298 7.036227358341868 2.8836244192558897 0.008655875902785094 3.0514106857353966 -2.874712906527604
P 8.945259943743123 6.43135596474538 7.463465056726703 -1.1842462594335412 2.253173142766771 -1.1005707354907561
Ni 6.883202180902951 4.0147267610941375 11.967755153471442 -0.24698968275481978 1.196017026816224 1.1744135896138357
Ni 1.9133404018513198 4.236490918950074 11.602314617245758 -2.144061438139069 -0.9786513375754241 2.1509157420567404
Ni 3.8081655666926415 3.8070862865453248 8.246692146736843 0.029929440569580714 -0.00016197949916101135 -0.6105261862591485
Ni 8.50803053027033 6.610153607771079 5.329295563009147 0.08336056380552741 -0.4971809031660727 0.15542961385763554
Ni 2.2250848899201685 0.03368005349371532 3.1139930450449147 1.3170370528457382 -2.1569210677105564 0.0052242245134168095
Ni 6.264030325354519 7.812499604299257 9.807072584686706 -1.185317638120849 -0.5156686775576151 2.10992927234205
Ni 4.322954284545006 2.9632566858494447 13.398073959944385 -2.67049121086793 3.359623476966756 2.9506756352071632
Ni 3.03427518037071 3.817078932047204 5.648422885533993 0.2921189709932904 -0.11736083201037208 -0.14291759743355387
Ni 5.499388253398386 6.456542269562498 1.8094996954706717 -1.7806982269878107 -0.8389406771149422 -0.6021155935979501
Ni 8.211879779502365 2.570277758416628 10.559796054326352 0.8992011645678966 1.2138730811610385 -2.0668486391024925
Ni 1.8767844389305743 3.184769631946954 2.8646960784653666 -0.03100878967668853 -0.7546941111600357 1.2185139223671595
Ni 5.9832500125466135 3.154503267126087 2.6253545408308923 0.21382759418055433 -0.6511017936886657 2.109813829810108
Ni 3.449853861922766 0.532950397572725 10.350411984091272 1.1501518888529934 1.9755207408207718 -0.5969918992181396
Ni 3.595361294887272 8.647881046600626 1.305616359175804 0.706681330726183 -2.80213683493209 0.06665019302938198
Ni 4.494057404451474 6.047857955158387 8.572559387698895 -0.2720062594038154 1.6954587009920155 0.62615695081787
Ni 0.4120431086556746 6.79164945116507 3.054415850499124 0.5994210774849226 -1.041604284258877 0.7667998932846342
Ni 0.5946787091017878 4.631256241109483 4.953696767603806 0.6791183335062497 1.0916520928448876 -1.6547933620621693
Ni 0.7198203117692152 3.223577196554343 0.5559706987838497 1.782344504341982 0.16514478426287044 1.3248228674387441
Ni 6.636958832809173 2.5118198518167176 0.6254726186153515 0.5512033801291153 0.04913892361849602 -4.618662356031155
Ni 5.510888169450828 2.2414880873315393 11.891346771111035 0.9453311261567398 -2.2768931120915306 -3.0083228534069866
Ni 2.7287458572881325 1.3710393443815856 1.4142096198603253 -1.146715609477935 2.7583625180596174 -0.5982625384004471
Ni 0.781494659290912 2.538085436781153 5.628023560335791 -0.0611482893745463 -0.8998192577678696 1.2579950111809173
Ni 2.419969389624404 2.2136966235381395 7.380724277226093 -1.0020180373258227 -0.36092940489878483 0.1874305922442643
Ni 1.419960508300466 8.938356272455978 9.625237140211878 -1.2641031809611842 -0.6477555029242521 0.4262459667184078
P 7.832875669149456 2.4632615493266767 6.050317969563133 0.012425113137230215 -0.3357305370356541 0.2133858786574454
P 3.2726193142828364 2.8946758757988422 10.41756088711884 0.22482085996726442 -0.1741942960596484 -0.6648695368967195
P 4.9782075919149325 2.9866659000791715 6.418958199260042 0.30355678051658685 0.08068198853209976 0.2927308935456765
P 6.002602622084702 0.9197681240266369 10.19214950669611 0.24636207647314992 -0.324955300797021 -0.2306822038440479
P 7.392138595197884 8.304521093526764 12.964545733045751 0.781349508964035 -0.2944028819314607 -0.02731257177202393
P 5.41501831912368 8.955438672029022 6.172357572220945 -2.1715840690393695 0.9952406093926731 0.985580974815722
P 9.121089566363702 4.1501764195823565 2.6679498205070105 2.099529674275281 -0.3915445586814805 0.4457464986451807
P 6.451341255749138 6.627180182508917 3.6354360832538375 -0.02487593730607329 -1.5828022164358482 0.6556881275077676
