# total energy = -381160.9959060957 ev
CRYSTAL
PRIMVEC
9.34056448456792 0.00000000000000 0.00000000000000

0.00000000000000 9.34056448456792 0.00000000000000

0.00000000000000 0.00000000000000 13.67086028189384

PRIMCOORD
 96 1
Ni 8.198764629533475 2.552047737033053 5.736840263954908 -0.8787362118453252 0.18011348975756075 -0.41136442162088516
Ni 0.5873505800623351 1.0337856665700682 5.60268733915982 1.5069487596406435 0.5376464673802869 -0.07251796466406865
Ni 4.660512061926162 6.0829399397474155 1.3144995221549105 0.17462855538358957 -0.7389430189733661 -0.8292357911223525
Ni 4.747949087006011 7.954144583617852 7.019316594486727 0.38408835951375137 0.053104593134463376 0.4169069487056691
Ni 8.33938682936011 2.9596979972146396 0.9768530573117953 0.7580959377527331 0.373082495321551 -1.880424119525239
Ni 8.774526371115247 5.421329069065241 0.09668324996250457 0.9857221283792766 0.5004156080532866 -0.023159211725282694
Ni 4.879071932649736 2.879313098396439 8.780041974502668 0.598152495185144 0.8931418457476941 0.611458982486063
Ni 2.958334274785235 6.457207022102341 6.8329835396941965 0.5233565331201762 -1.1557363249193064 -0.035340327172506875
Ni 6.226625844757918 3.4193378398761367 0.60637544200899 -3.017220670117249 0.2182249519173016 -1.2312840775486342
Ni 7.898446796997711 7.571405609184365 1.7593990198448755 0.7503108944906755 -0.48384356262721834 -0.3361910216118404
Ni 1.5736983212747462 2.680424456688799 3.554560259316203 0.24588796505020882 -0.20010587371908764 1.3719056798591598
Ni 1.283907305026236 6.362204139708671 5.218646290023187 0.6085405232876874 0.926582641904643 1.517613438443341
Ni 0.973800560805429 9.17648822746459 8.025574683168447 -0.1366926995697646 -2.6034460963929744 0.10340488405091222
Ni 0.6242448761164847 8.151464010475218 0.37557943167911273 -0.2660533842544902 -0.5094818320206129 -1.4328156279706548
Ni 0.2314946845608325 5.899892895575874 2.2806417540571275 0.22058239640588462 -0.24459572860134654 0.4369489549582088
Ni 6.555852724684145 2.1208499135327714 10.07107706436369 0.6728975494075184 -0.8605752246655825 0.6647222126855779
Ni 2.3817132012616478 2.80769898972352 11.313539350269982 0.11110122425390544 0.03170170197865508 -0.07458667426763929
Ni 2.312032589457816 8.596915535532155 6.231028052846811 -0.08883212844305992 0.03275842537794359 -0.49280771379904165
Ni 4.5479862803710995 8.02518891785109 4.753016343293353 -0.07550738630969576 -0.5387839234188397 -1.1034508852520288
Ni 7.871770144543055 5.069395276632965 7.7688763531880065 0.9129087439619762 -0.239626043300897 -0.378553031517819
Ni 1.057473338357537 5.432126761725459 9.576287743112516 0.7206164527500364 -0.11740376943316554 1.160402362936408
Ni 8.888649389214336 8.435043551274727 5.835188002526452 -0.312756444737984 -1.3297845823193937 0.34293759630705456
Ni 1.4393903431075479 4.366685921776948 7.46390691948893 -0.3765547701408676 0.3449430567728575 -0.7619772750850103
Ni 8.312495343919998 3.2774266421367773 3.08802894810392 0.180907703524082 1.6962981661741756 2.670242070971601
P 2.6429034087509984 0.6421946390794101 10.227170975368857 -1.0092335812376554 0.21359336668256115 -1.0539985441581718
Ni 5.7695266356635315 6.20775790429629 8.590782520825668 -0.575764614408247 -0.23155432203635604 -1.2016055766475953
P 7.338993681181288 9.11971627591718 8.986417078725156 -0.8203261473375485 0.07826412311922651 -0.638113608959114
Ni 0.9404267235433523 8.302837200139146 10.409676266794472 -0.25074400759092946 4.014840835485693 -3.266958090820535
P 6.494606642700537 2.593846763550767 4.279785979160734 0.14870797886308584 0.062488862562840766 0.3207458907013637
P 1.5642643510439327 4.812464366594357 12.185931269489373 0.6444400653977741 -0.5918111263481485 -0.2377334542638745
P 0.4488776441467012 6.721787854536033 8.013078875866682 -0.1461337903780064 0.4776513177735774 -0.8042315557685311
Ni 5.472786239363807 8.290797212389126 12.722622363468696 0.652176000589451 -1.869674594318219 0.8591832294140623
Ni 2.211163832504789 0.592822282796207 12.582673618348638 -1.3388644331334747 -0.508128403316512 -0.503005737377966
Ni 1.961649330746644 7.446867861573039 2.0143329171752167 1.501717336038375 0.6508004603981631 0.6214286921042653
Ni 1.7664315309208949 5.650443777769825 0.4754833083105129 1.326428264252651 0.24282423852322052 -0.5647440949280274
Ni 3.940597387104641 5.747510924936771 9.89168778528362 0.2574399315538663 0.7699839474395707 1.0478898601572728
Ni 5.007233819320029 8.466399826586452 9.275515025081463 0.4922667536939071 0.11644346240242524 1.1829689353830144
Ni 5.759821789059753 1.1122744307775214 7.529910151015661 1.5973384623788105 -1.1763164630635032 1.1893586409594419
Ni 8.199044846471025 0.7971760888425093 7.396359692636304 0.19823102529387795 0.4182138404425507 -0.1357151661478437
Ni 4.566116316230515 0.9861768088805063 11.244898343304458 0.7475657276453705 1.3024992642408795 -1.634449508298495
Ni 8.94359993066768 1.3891474462050262 10.322757643049087 0.46623819084062923 -0.6690282962600993 -0.9698550794400329
Ni 6.7421222636375 4.764911552292306 4.779182066865213 -0.6798827224761 -0.08229535576580665 0.28283497458820317
Ni 1.0711759466036794 3.7156018673820266 1.644522218183778 0.6924078515263044 0.14798395621286772 -0.2022270338271485
Ni 7.288181009839084 7.473834071529829 7.3575066801886875 0.7580486294545654 0.6851023190038266 -0.05270015860719311
Ni 6.467444280887461 1.9433605052892842 2.1093451401334713 1.1203625734057028 -0.8726470682284521 0.3354891104488093
Ni 1.075930293977426 2.399749831475214 13.301597259267695 0.07921594550953454 0.9635196241403085 0.7047262638823412
Ni 6.821825301240998 8.91409308714378 10.958439106443404 0.9305596242745199 0.25314130417851244 0.8184685253035194
Ni 9.093534673385523 1.1093788557561826 3.27490935998113 0.036574970910556365 -0.9720554295254613 0.238722300539705
Ni 3.3044675766102483 7.418734081043127 13.712419575182336 -0.605848321167505 2.4453847013394467 0.23376907029948774
Ni 5.79069235501306 3.207222958716187 6.478935043439884 0.8602461234609379 0.5908526190896212 -0.6650700829432997
Ni 9.006863574601642 7.333987138563748 11.773481827224032 -2.1602946121684794 -2.0792187306320704 2.006319214258867
Ni 6.0889272416463776 8.889191141960264 1.7375392965466838 -1.7744872130810925 0.314778103153703 -0.37924157294441135
Ni 6.606132983845008 0.3359688994436556 5.2351604082094045 2.3927984426022983 -0.686006833095967 1.7029079581812092
Ni 4.941803164402355 4.1831718493761585 3.4746816190985075 -0.11216334696983264 0.5252470652746696 -1.8209827855394705
Ni 8.833951043004788 4.799434278998333 5.678465471524716 0.9961137560262457 -0.8211956944266954 1.0340575822598708
Ni 3.269963531033391 4.522561263570828 5.434467507210451 -0.27356074837512884 0.05773335015572637 0.09901215429985528
P 0.8531512902308236 4.764920892856891 4.06281587252952 0.3535182000363783 -2.183995298219529 -1.5251835374811151
Ni 6.848614040470674 4.455253155171577 9.686077673300641 0.3699542341052145 -1.304413964765089 1.3102706806561821
P 6.031837710903077 6.570750925197164 5.803744859964088 0.16355429984729897 0.54543048220108 -0.655839051263335
Ni 2.021419603525829 7.043019211177532 11.631537003452166 -0.7526644823245167 -5.704944185703065 2.2880193039116787
P 9.093983020485602 3.4505446661545016 9.3989767396526 -0.4198102383953931 0.4852779810808997 -0.6303805019809143
P 8.85395853234578 0.07438452012881985 12.168323371190256 0.4189589461386914 0.6609462905829133 0.41571267128725176
P 3.329238753889573 4.399994375086929 1.7274776403757608 -0.3801535432357195 1.101938048151928 -0.1504092778249087
Ni 9.022583744798137 0.8192926776667874 0.9945095265467528 -0.16430171953628475 -0.6615170754847187 -0.3346257340072495
Ni 3.299703888671917 6.205432103714633 3.60069984619655 -0.48516845208622894 -0.4704221470149898 -0.3232313761273788
Ni 7.0734787922891 0.8709002310551723 13.255142895360835 -0.18441545956702432 -1.3728323054384872 1.4413385778400016
Ni 6.190692692799561 6.430184768758039 10.832447966982656 -0.9310347641387255 0.4014566755888699 2.1825752779435508
Ni 8.296261442671332 6.368770556611901 4.151717498136292 -0.9738004372410263 1.3792976014478568 -0.5310934967531177
Ni 0.7681119880799353 8.107385886198772 3.864984582732899 0.8966321182891396 1.1436218010439594 -0.6487106677486699
Ni 1.2307501519732056 1.9263886994384047 7.962592190228493 0.0929824031660076 2.672639367559184 0.5934885140505715
Ni 2.8635088631186796 0.3551927154159702 4.204281525338177 -2.3051135403898044 0.36691159062414874 -1.359203401801143
Ni 3.840083571605843 2.516422823706 4.389931784859548 -0.8421080190993303 -0.3577618058040807 0.4847203088052169
Ni 3.582003772123286 0.5459644064992762 7.981116397913395 -2.3910331231717596 -0.6941446317117529 2.3451651569950513
Ni 7.080054549756915 5.237730931583187 1.869052577790061 0.09305413694420749 0.02578019428789754 0.13943709508412114
Ni 4.2813598642933 0.7419770883712058 5.836377056398119 0.7691449964780431 -0.26958942243220674 0.09914225211981635
Ni 4.265462223369692 5.738179700916391 12.548783247865014 0.06426909439171512 0.7891592348164409 -0.064832680204669
Ni 8.158955143272358 6.5822958630241795 9.64812789344839 0.548311660403617 0.9862610316018822 -0.7010308173086249
Ni 8.962234357014685 4.6621653418577 11.346418137609055 -0.17011138423952638 0.45620446075371107 -0.9416559912979975
Ni 2.946378352116481 3.8695623934359897 9.283689887206222 -0.7328536182461766 -0.3916620580959513 -0.6888126779758782
Ni 3.609801292328139 2.5730546667846372 6.967121519585948 -2.1822716306602032 1.5291013844782826 -0.6008009885515846
Ni 5.317779570076328 0.8541058959314068 3.641356521665523 -2.4817244163107453 -0.7484933816659625 -1.5219349486368303
Ni 2.6275755422670724 7.326262491651982 8.912690134343118 -0.46384989311411085 1.1103362995179524 0.14307366339544392
Ni 2.113956576869068 0.5940841930716356 1.4035328497223294 0.12232151844975708 -0.46194599122317864 0.39121931413157784
Ni 5.635517555563052 6.504320829868899 3.232024025802184 1.6131240073478412 1.035169584377127 1.859282195340301
Ni 3.7819292164998566 3.3301914914772395 13.29585468016086 -0.23294580306724397 0.12836489643035956 -0.09557767469700959
Ni 8.343515358906664 2.632890323515917 12.286084539195192 -0.5797786206636466 -0.31704761591417013 -0.4119079528291809
Ni 3.5685440185563526 2.3827126416722395 1.7553928516943844 0.7960346217800355 -1.1824470014412731 1.3711927129525352
Ni 4.825046107090303 4.022374030046001 11.278487013551988 1.072951174001275 -1.8708858410175007 -1.3453942638321927
P 6.537031487045443 6.503956547850085 13.622014118677384 -0.14363442099492038 0.4617333609917403 0.3583693574810925
Ni 4.283573578099936 0.7306796755056918 13.516147225614944 0.4211646955407586 0.6656262125570859 2.064846778181115
P 3.7845725962774015 8.77645052741975 2.5321579388058306 0.3729986773584931 -0.6250606324298977 -1.0202972952509848
Ni 7.045643909825907 4.652908842354002 12.649756619141392 -2.120652315186509 0.14274019131542512 -2.012012665099219
P 4.5502186753069065 4.884526822367355 7.282016237213007 -0.8136916727401663 -0.8283575022824573 0.3400913851075111
P 5.925411318021996 2.2350569967131273 12.255215841354802 -0.40058224340371656 2.4101240783649396 -0.10330846768236403
P 8.024021347277968 8.541236430041184 3.734701453845361 -0.8988653784950326 0.7884053873695519 0.11665814951639265
Ni 3.5050468605077665 8.401370815945931 11.462511080779114 2.527621693063492 -0.37810720222965205 -1.0584447528549836
