# total energy = -381166.5352275074 ev
CRYSTAL
PRIMVEC
9.23298951031410 0.00000000000000 0.00000000000000

0.00000000000000 9.23298951031410 0.00000000000000

0.00000000000000 0.00000000000000 13.51341343323550

PRIMCOORD
 96 1
Ni 4.006655667085984 8.290328709398562 0.8017863197851822 -0.9849582536300585 0.3475786946234917 -0.599290208334013
Ni 1.3482287832121134 5.606769628898794 12.3294078646885 -0.15005549402991578 1.7670104450880733 -1.9679673539535463
Ni 7.591677648970565 5.536312688247722 8.479748099508258 -1.0754423158542445 -0.5731009515331549 0.13462064753208428
Ni 8.79813388288413 4.201942621837765 5.450283387997369 0.0391959534731712 1.0391442527541586 0.10174575118093443
Ni 2.89153216242421 6.946661022855513 10.45667881690377 -0.37760866532667875 0.5805612644659421 -1.2409575960826564
Ni 8.50947370826545 9.031590015024397 9.976371331879351 1.42602791562486 0.9578680822814858 1.193257718903532
Ni 3.51374330519394 4.905948816006769 3.6162571843773845 -1.3244438868327706 0.7593488363232277 -0.5278837315665683
Ni 9.045060946279792 0.9335013739387681 12.787553405715439 -0.08856833325871198 -0.9181267978278058 -1.4820635663631896
Ni 7.241470368287143 7.612571903549701 3.0235583683141267 0.635932542147395 -0.4010614970329802 0.8194398880778533
Ni 1.0372894056330038 4.395262949888108 3.4378933755461047 0.9308157061493841 0.6410526369827798 -0.0004309168898315159
Ni 0.35040117345680416 1.328959534733698 8.629976220324071 0.8097632842200376 1.8095819999016964 -0.037981878560412005
Ni 4.910648407513963 3.370548875557262 8.524760768498183 0.6082983253698944 0.7979282392583226 1.201511474271892
Ni 1.8021225327084769 7.792439766323066 0.3398977249330641 -1.2396347635061749 -1.4866876953987622 0.43511652973516024
Ni 6.020795330992284 7.667415859448976 0.9658343788484774 2.4463267535377415 -1.5905906021320155 -0.172849866216612
Ni 4.9895719992693515 5.520533509690169 6.830908883744732 -0.5469026958712323 0.17086677434831218 -0.028044564842042024
Ni 1.4035251555826123 6.153667278693712 5.245433826322207 0.8111015434154869 -1.6718785996792305 0.3763963901861324
Ni 5.674004256316055 5.481930381808877 1.5255160255016664 2.9252875341513622 -1.6225887523051667 2.4663253081468555
Ni 4.169322470963667 2.5150662604314364 12.657946242998184 2.9309444753268235 2.756348315843066 -1.310102273399118
Ni 9.054349333423676 4.456117581762204 10.534205457391893 0.02564881091635583 1.942927380265783 -0.1865589882725884
Ni 4.023256581683105 1.6587342102984175 1.5451638265376357 0.7564172644987295 -0.47594899037049 -1.087873856749378
Ni 8.46031727371869 8.230452774380582 0.9357320641315735 1.329937048736858 0.4637401070091239 -1.549812648883705
Ni 6.783735695279988 1.4092957738380074 4.283319418825888 -0.3491326693741729 0.7529046233597808 0.0269076230241214
Ni 3.23089068078749 9.106174101851728 2.739141675535734 -0.7321144260873068 -0.6847889015284658 0.7578074599780368
Ni 1.9713447589242896 4.033957616175909 13.635979247189107 0.4580512841544627 -1.2602897207523651 -1.7824221516574525
P 3.3133043424637414 6.971710122578532 12.542163635023016 -0.9322421541832654 0.33579507172500234 0.7730103929707203
Ni 2.2608082036041206 1.8731888506473198 12.855863676375504 -3.313663208186558 -1.920053560991403 0.5385988039912273
P 0.906276058659274 0.867885289529781 5.032611578465391 1.2427653387153563 -2.9921567851700854 -0.7368987348498277
Ni 3.6282046724133545 5.6933196697405135 0.9676052661786931 -2.417530655241656 0.17711275525802403 -0.13461859064955525
P 3.0758133940393018 3.5193569626327887 1.7159870530822252 0.8050141995708265 0.4980728188527228 2.594817731294015
P 6.554065088715259 2.6589993292048058 2.6021019565055297 0.2917757287212588 0.8065805156166819 -0.4601660165046204
P 2.629352200855887 9.382932953380482 9.00798680141145 0.4898961965792014 0.1380589837896719 -0.2883492195382131
Ni 6.862123773661277 5.640663932283684 11.078215028162349 0.6499921055642548 -0.6746173603121026 -0.39821451450248835
Ni 7.992195487851825 0.6178328592869968 2.4070088945271295 -1.0468159103668035 1.2772957683920583 -0.27800644285130827
Ni 2.092536975276797 1.7866111108379747 2.927005306963775 0.088838299090647 1.105650721116825 1.5124198100575437
Ni 1.6617903297264747 2.7205926002155914 5.378811741832268 0.7113383698822201 2.153309439099898 -0.756266340743162
Ni 4.459967738262203 2.8131902489889646 3.8650797804575787 0.8545976669259089 -0.6583823865104791 -0.5296534218724813
Ni 5.660385597233322 0.14723755561113833 2.716466377338254 -0.337183981652729 0.9150435309167919 -1.168722195656013
Ni 5.374698445139822 5.459004869603844 12.842647575622268 1.8699846693594695 -1.621564939026343 1.0584432101930867
Ni 1.5519454571113762 1.0870182855106971 10.707488352261663 -0.046503799988494104 -0.45170065934608666 -0.3777022534817495
Ni 0.5268694496035514 5.18988170015063 7.747888746793573 0.5342508114351767 -0.11152494205488535 -0.33886008380357124
Ni 9.093395644786982 7.920750617355429 5.286149462134434 -0.9461873035094478 0.7251955874802866 0.388436352069802
Ni 7.776725218689974 4.745978044978006 -0.15990521680538183 0.49737270746190465 -0.794445937136677 -0.6692329560717378
Ni 9.074052532394898 2.408776088661662 3.6471618458565183 -1.0308868978413728 -0.08165412263738196 0.10713452629667355
Ni 0.34385313751004215 6.845975275535379 9.761616619381169 0.1391617299355474 -0.5118428760536218 -0.20207842406442617
Ni 5.758855427143386 5.082021920215388 4.1299289992061174 0.3301041919878121 0.36088698169662364 0.860434328212344
Ni 2.470720213262376 8.266766120938133 5.056070757446684 -2.174401740993823 0.4198326069928963 -1.8128028208318394
Ni 6.152743979772848 7.5432690865497065 5.270420141718608 -0.49474401158980597 -2.111328980903054 -1.0708459547328137
Ni 4.842592044057134 8.872948794441678 9.904034554625401 -2.5035813642848366 -3.084054954132979 0.10911016196580564
Ni 4.107932325715471 3.2949029949709376 6.28712921440557 0.06912282293959064 -0.2514760006609476 -1.0125770437885915
Ni 7.051510848308742 2.410853511233604 8.653935827320472 -0.9297643820667343 1.4552207351387325 -0.9482809528136831
Ni 3.913540970916927 1.7345924496365404 10.385395523718524 -0.8635785302682805 0.7677784551478196 -1.093340536290904
Ni 6.501501681150516 3.5837478293737903 6.107698072021773 0.249645375210112 0.025389643717698213 0.17324787298597905
Ni 8.360287068632369 7.6967398331755925 7.6232406225802745 0.7865050850230455 -0.38782237263488695 0.2907082066886929
Ni 6.1479428253843595 1.1887011956653646 10.633340062524978 1.8297569321876745 0.12591694911049928 0.616607616566538
Ni 2.3984813056940366 6.9919396019346465 2.604034421146897 -0.6205231495708604 -0.49714079395675675 0.4939672813247815
Ni 1.2285138451329871 8.194176359779865 11.654548370853306 1.6995878926690404 1.264604546077635 -0.7220896948614531
P 7.650611819089265 9.780320808920015 8.079197021865847 0.1863270747674404 -2.272257413091732 0.3072586548482063
Ni 7.804165662618029 2.217837871827146 0.677912843366488 0.17573361552231026 1.2102902489057865 0.39021015614077315
P 7.176350095398659 8.536978783117966 11.987951611177019 0.62222599119458 2.012504774244289 0.3752447930801925
Ni 8.516481547074802 1.7861494613775433 5.775835817596981 -0.9748525326546245 0.5238049335115043 2.724665125807172
P 5.601709950812464 1.6797484937372646 6.11850897908616 -2.2007781741048227 0.8848999174538759 -0.5829127954172542
P 0.12879835286257876 3.0455568884026136 12.149179915335997 0.6170547314062858 0.41168220997162003 1.7998737714749968
P 3.9879219319816688 6.7215515129598495 5.049611358196326 0.3122034004479914 -1.0983919826718824 -1.0214334657379571
Ni 8.715932579959677 7.094878198621688 12.06100486839356 -2.0250185904405833 -1.3628471692013175 0.7537278905920246
Ni 4.920887792546337 7.281430745582103 3.0233155406979395 -1.7585785122706357 -1.383624510957985 1.20257951052509
Ni 1.0389513436905575 9.125655709081943 7.218743365350094 0.10632488591118464 -1.0690994043553523 -1.4743032056914802
Ni 6.887015912567748 9.34304643999919 6.190169901530039 1.3917651377872482 -1.4554711605866417 1.0776750618395055
Ni 4.2021919125463985 0.3399291170963734 12.311002824000013 -0.5261693199786228 -0.5367622650031207 -0.27690781047049084
Ni 0.09828332352804903 6.6806032058195655 3.258476082646121 0.8007610807214273 -0.6446043588897802 -0.3953050541651773
Ni 3.6803433624745012 4.983745983078705 11.658913728151148 -1.6609051313868621 -0.9127426506977571 -1.3283342230261121
Ni 6.072795526215301 7.415225992204394 7.846266246811551 -1.0988362692981528 0.4363007798512486 -0.6088817086771902
Ni 7.8631736966503984 4.811403006510374 3.1463008035547633 -0.204977342878776 -0.7529642729531225 -0.913540464008704
Ni 3.8437303395104583 8.011981783725924 6.739760814277114 2.572621911923266 0.059201450060820615 1.903648894381134
Ni 2.670383604899049 2.7752703623091124 8.23192543615936 -1.3012733622535781 -1.6193766731257724 0.5580260594779034
Ni 8.419128908858983 2.2292129145321806 10.452395633209886 0.34723673790304066 -1.4472048068127914 0.772181983532154
Ni 2.9451758297263635 5.0719579619779775 8.673908629576587 -0.645281844572779 0.04247179601096557 -0.08411492547304869
Ni 5.260384805747745 0.6793144111283584 7.990061744045711 -0.27383894173718 0.6894048030339224 -0.43849393084782545
Ni 5.354986013179393 7.532152567542513 12.1580177326065 0.010806089476568486 0.5643049505080797 -1.645898373565385
Ni 2.126394346704852 3.3902059095824404 11.047242042563072 -0.6974279304487151 0.5362007360726959 -0.7078681519454325
Ni 4.870623399294542 5.892327519143374 9.543333981706368 1.496990877096983 0.18576837405049298 -0.159929301500202
Ni 6.771880537136104 2.920643777399028 12.035815427234569 -0.0013161477082622496 0.7381565185163288 0.4506549916903916
Ni 6.184671656456299 0.5126718820974376 0.4190844568808989 0.003664079115148528 1.7117003596618585 -1.6376505317342958
Ni 6.895898048186453 7.662153055600056 9.9279941616218 -1.086142475880568 -1.7174084657902295 0.675773585403733
Ni 0.592847467189517 8.94631412669347 3.2280838520680657 1.4475634757037907 -0.030994391498985332 -0.19492278685625142
Ni 1.3569447250250621 0.6151866845798029 1.024292126724012 -0.26024963308851956 0.12272055366038866 1.034233959936735
Ni 4.420755233093142 0.4308629812143512 4.629492806524059 0.6017913774893119 -0.11739682745463006 1.1356948328873988
Ni 5.654716541859222 3.150203588093252 0.6572881920722452 0.5419304394676215 0.9957098357196078 1.1947327607871618
Ni 1.9888043415178134 7.0737715852907534 7.60961919360078 -0.46725351947902105 -0.37003111008973694 0.8643748009173308
P 2.29038146803937 4.303228513456462 6.6511130382871935 -0.8832312715022014 1.982613128891179 0.6049677183347646
Ni 2.858561157960184 0.9554297233092698 6.393087921862755 1.033836467388 0.6963820056827039 0.6724242093155258
P 7.876081415564066 6.292651465251254 1.2279838715524116 -0.9878818550347567 -0.7746530707804659 1.3587020366846922
Ni 0.6291358846762045 5.518326825269305 1.1207860969434282 0.08461577636886718 0.729711473072769 1.0546492903682931
P 5.42102035199953 3.9979951232082866 10.737055153604464 -0.48248087795173683 -0.3502097044884356 -0.8085224698344011
P 7.104148119787154 5.672111493528285 6.076535810143718 0.6110635468198573 0.7539063251514178 0.46853470018428983
P 8.999920862038788 3.362488475978126 8.596152087657169 0.16990312488346224 1.7131399203218625 0.11854842456057003
Ni 0.6082656358690121 2.9130357942911145 1.5857585101912295 -0.34491708863092857 0.4113883328802851 -1.276483299793092
