# total energy = -340896.83728021686 ev
CRYSTAL
PRIMVEC
9.04774293578079 0.00000000000000 0.00000000000000

0.00000000000000 9.04774293578079 0.00000000000000

0.00000000000000 0.00000000000000 13.24228634639338

PRIMCOORD
 96 1
Ni 6.522590158669392 2.018071885900464 11.461886853881499 0.5142697403275595 0.44667569532766943 -0.05499486817864077
Ni 4.530503390059481 0.07351291016216883 5.680358401780667 0.23899689435733035 1.4179222557985902 0.4923814248949004
Ni 2.711101840324052 1.705779995788782 4.630045751451871 -0.3191577202786375 -0.3944385923998239 1.1330211427099777
Ni 3.4815352343091597 4.48941759005377 4.870976284636654 -0.04391392777413082 -0.6341556527526304 0.033047674483588245
Ni 5.012639507809839 4.5054320947906366 2.567268968430019 -0.35702441341742386 -0.23333815340965622 0.28741822308351145
Ni 7.276457135607493 5.998445371148826 2.5439357445509767 -0.3407896967261163 0.4309253744719482 0.8156071445953244
Ni 5.011698542559763 4.593312820502039 11.341249680176114 0.46752348531095606 0.4045394282792517 0.46221827104795876
Ni 5.632482270811668 8.02758264648047 12.58202545918587 -0.32769841075979694 -0.19289624334452585 -0.8005088555013052
Ni 1.6735338404881086 6.721902884572459 0.4529562424809406 1.1407627343286095 -0.7135135231566679 -0.2634205746173334
Ni 2.8161551818493367 1.7544387565090458 0.31187659871765855 -0.006218212995569936 -1.201871428714472 -0.44721151322648145
Ni 0.5749207200535008 8.980219484754286 4.742207904486623 -0.30813874346031445 0.5077717913080417 -0.12561458737873205
Ni 8.5936908650573 2.5173534762363365 1.5336421653530474 0.03798573521515393 -0.447114582637301 -0.3770905880396796
Ni 6.813592709998111 0.5606252864465806 4.7789028349167415 0.4847678742137007 -0.06299562699593021 -0.40528761929918594
Ni 1.122236776857183 7.465419243759727 2.7504758073940483 -0.12881689636611363 -0.7538207074161469 0.01668363130326804
Ni 7.756837991256747 3.7889775342858356 3.851956157518551 -0.5734027990442899 0.0081316279681989 -0.787831774254269
Ni 7.528029623860922 3.9787810825174637 12.773310122912086 0.6753850917160626 -0.258547048575116 -0.6455962904894041
Ni 7.762158064016791 8.689841227678022 6.999289487777725 0.22499955163697377 -0.13139828394004466 -0.10487529794885164
Ni 6.866838676312494 0.7579049845449164 0.6133890080703001 0.7518335017827891 0.3651269879199002 -0.5196340899632664
Ni 1.8972392809508316 6.648914743492063 9.164483100076092 -0.12443445102770183 -0.02774091755869416 0.14555914882145898
Ni 9.135324939389369 4.951594387211174 1.4950146370631585 0.3056128917146672 -0.8864338375998991 -0.6038477457977085
Ni 6.403169001594874 1.745970069258364 6.878360976754527 0.06639462537515017 0.5368445403042819 0.77808035129446
Ni 3.459341121247276 4.529879095807027 0.6158110888149662 -0.3418453916841403 0.06116911531015271 -0.9978279105038751
Ni 6.0053307034114 5.4579694078937715 4.6607022183444835 -0.11585262289596177 0.19508708034825759 0.9661058968102457
Ni 5.480959722321104 2.9167208429511837 9.235156828551014 0.13256839298874587 -0.3937906744031799 0.11949896139929743
P 0.25215787721188887 5.568161867323316 12.567114779069284 -0.10249162820802347 -0.501634310951736 -1.037645299611129
P 4.087317805016587 6.271605773697261 12.655864992862728 -0.814376871732649 -0.2286615738695933 -1.5356409853690134
P 2.4975389195280107 8.514088823998005 1.400173482824032 -0.330293939401115 1.4898079861952989 -0.31226742091670734
P 6.204561999629363 7.487703834249501 5.845039082609551 0.9042245859244168 0.750365916098327 0.0825871759746126
P 4.836253762134579 1.0677874607518374 12.520846431993924 -0.2473522083005611 0.29164845911477516 0.7235477674642184
P 3.899350948571165 6.092080461274153 8.32768994137795 0.29895939095389157 0.3917304494400415 -0.6361814249334077
P 4.600261486964136 1.0584049514794474 3.619143259164229 0.9226892203875077 -0.16236876417963006 1.5835146691218405
P 9.268598190674139 5.457227492985058 3.687261905075483 0.08815952785606754 1.0133666295694226 -0.4559861740953179
Ni 1.5705433843187586 1.156093430374332 2.454325090418281 -1.1888801586611266 -0.7545624706781779 0.3172178229434472
Ni 1.8325298245225448 6.403612340991543 4.899540008622127 0.3365430056346204 0.46283379314477063 -0.11511754450215012
Ni 5.855481987336834 5.453436488756387 9.053035718721688 0.1874601599306191 0.20383731573706182 1.1877763840739866
Ni 8.700282322856747 2.4150868394901224 10.11861643500724 0.35942685221132936 0.4263904627160721 0.8735274139508763
Ni 2.303202452158998 5.182872788388449 7.142240204749812 -0.25001715672723396 -0.18510194411108769 -0.9140096903356388
Ni 0.45509150977918944 9.083571850635202 9.293144716861212 0.41518662358045266 -0.08428821782611935 -0.3735825748864211
Ni 1.4021920342403003 0.9175949304512833 11.399237568486312 -0.5499383973737626 1.0023440532066739 0.32415517349322887
Ni 3.9599979684871056 6.9319100424523485 1.537376168802146 0.7806200869971782 0.2486745266564105 0.20690387047752754
Ni 5.621100210382867 7.677697385079703 8.180620691888222 -0.022447530370238757 0.8924041962507211 -0.6274412168469323
Ni 5.180484184292102 2.751916208046088 5.030082651133118 -0.582722533783319 -0.1864684854413111 -0.7808262894707133
Ni 0.797829959150775 7.4379864876229025 7.029879906147976 -0.06738270032003234 -0.4896360009392794 -0.06493243900732688
Ni 4.987568212540993 4.499614396177187 6.980035891122329 0.4195551849617935 0.0064894643790855975 -0.29910825782693
Ni 8.21613760620719 7.085233091757962 9.214207684896923 -0.42724843984099325 0.15264613757522744 -0.02255345982048374
Ni 4.771245730194249 0.546781335204841 10.36697516502195 -0.42307888184433595 -0.7321889880789841 -0.18235086372851178
Ni 8.184072405762299 7.082220193409162 4.846120325646192 -0.38413978157697715 -0.2555483709581083 -0.01673788157997117
Ni 7.334136495888579 6.043620750895251 7.129196978744915 -0.485302406560932 0.032023346984131944 -0.8866426111765956
Ni 2.260877111391167 5.227758640365621 2.6260512485571077 0.2975614821651004 -0.008174822501308503 0.1568977137627298
Ni 2.4769914956537598 5.442959202606504 11.237404212313185 -0.24350918040538708 -0.7532380954397996 1.0124405182107272
Ni 1.0511305662769388 3.2883025915604285 3.566280012369829 0.13061641146869762 -0.16184760156883737 0.7394179017272556
Ni 3.4902482106151496 2.5522506201742425 2.4836569677665565 1.4430144228805277 1.4555842891257385 0.41452199341326024
Ni 1.0343108124318345 3.2674204012029775 8.175390191781794 -0.16838411713577453 0.30804952618061787 -0.665168556194377
Ni 3.536699322094851 2.565939855014287 6.980697281120219 -0.10151383767578646 -0.4142407147274157 0.34307874987060916
Ni 4.131760317597089 6.845413621387692 6.018539503109338 -0.4035212714273825 -1.3920600433198478 -0.04906744695061227
Ni 0.7541013134763409 7.422632468109647 11.429523077924566 0.46658297577455776 -0.058644034895453834 -0.4269658756035679
P 0.22713543975410494 5.419643169438762 7.994963724176881 0.36135029448628736 0.9128292968742924 0.5485913964275649
P 8.536101982204105 1.6234998228638882 7.972332605138281 0.160575162614317 0.10722554334858309 -0.7903563404483356
P 1.7983565000077741 3.380517186067853 10.421758342836215 -0.006059318820202468 0.2680770995527383 -0.7415760857208389
P 4.019215445042354 6.18014214184134 3.6310880891945176 -0.3971698752880579 -0.051879462478110656 0.788379676337939
P 7.030937587280033 4.088285913495031 10.399643849910877 -0.26876538386901455 -0.13702745720136403 0.8329906301790944
P 6.329538470776446 7.836964801397815 10.238803031121726 0.7284048384462035 -0.15298012387587848 0.40219843885090084
P 2.3755753467297294 8.437146819318734 5.748118757077469 0.4098433569906683 -0.08883752775969862 0.5990135576338587
P 6.857591883181941 4.004160001041142 1.60669997405292 0.10837071269661983 -0.13795793943543339 -0.003316723078058804
Ni 5.13259448170892 2.8887452222470085 0.40382066571568637 1.0146511527088011 0.17180831232597504 0.1292444708218355
Ni 1.3523842101858092 0.8438603505907794 7.062296159013087 0.23635045787341877 0.9372192956828828 -0.2738422841712897
Ni 7.038555786708531 0.7759280881809828 9.154697061475304 -1.5308633614747118 -0.5848485789873863 0.6048574180091454
Ni 2.5511106045828047 1.7315117762812382 9.250889043712858 0.7603281695173615 -1.7628331737819316 -0.30787623382754714
Ni 6.274265810077283 2.145590772771308 2.803285672505993 0.5496252370087179 -0.027851474994629453 -0.8866878625922341
Ni 4.228037348616859 7.094172261633681 10.444786657783263 0.09631763818682766 -0.3090157467486291 -0.08511431327184052
Ni 8.24439370693783 7.088906475330373 0.4516841298447805 -0.5847976711447929 0.5691203696188522 0.24944354361195106
Ni 7.576507429725401 3.888783184993391 8.210098237895405 0.5208404515665417 -0.892315750301973 -0.5396133612986707
Ni 3.0712924807617057 8.601082870916066 12.390026023779305 0.8433843147085927 -1.0837804034062948 0.08846908867668636
Ni 0.07658914271049344 5.088314828498624 10.340079844806803 0.456796071591123 -1.2581230521183495 -0.1931260999671448
Ni 8.6794815621844 2.3444330160493374 5.742702778243859 0.37238238393073286 -0.712253939717954 0.08364852735959143
Ni 3.6443674612862123 2.6258630555070925 11.426265890520458 -0.049430486716985834 0.30421344026397934 -0.31237437880821683
Ni 1.1570796343383536 3.2930436087819634 12.460633703731864 -1.0928818514869307 0.5166703793492521 0.6057840435884727
Ni 3.2826839432883412 8.34961895557611 7.82645584814817 -0.4363612007755388 0.596582836705179 0.9063794274838907
Ni 5.6311160616505 7.706161583894494 3.6799649005160013 -0.21071450247286935 0.581688693202166 -0.9087507559295446
Ni 3.137431480550685 8.458933783955104 3.644290555472504 0.41367687180414564 -0.735025686196831 -0.26196841555183914
Ni 3.4766856441741534 4.083056318162878 9.129046710667952 -0.5529072501940994 0.46323591367919575 0.3278094824163645
Ni 7.328508799873703 6.208868725197018 11.513943042019104 -0.8724161831645684 -0.17506821402416947 -0.318357078754213
Ni 0.5502701448243527 9.02059956082244 0.4442848857917809 0.05682035142315375 0.6534345555869004 -0.37736415341604046
Ni 4.6978323452027615 0.4621188916035533 1.5419181356823195 -0.7701389849601963 -1.1267425087901175 -0.23247194875461896
Ni 5.911424181002396 5.773618010580243 0.4507531171117728 0.523518255509021 -0.30685422032093607 -0.15036556907116683
Ni 7.937982849639121 8.878948099714881 11.323293529836686 -0.07101644041787769 0.16935136614505028 0.5098263598442252
Ni 0.01410181191123155 4.784998299233818 5.776576622472308 0.15887952007944894 -0.1451878815249693 0.6575714605734095
Ni 8.177268503184829 -0.5817861472819382 2.664705920075364 -1.4302193279983886 1.0473139330491446 -0.3405989208715489
P 8.494898561542133 1.4477564669266612 3.5173760578199773 -0.15747749752559975 0.4487310351948014 0.3419801174897917
P 1.790304008925395 3.2834439536826334 1.422446311248181 -1.0297715532900074 0.5607339453273698 0.1918739727275986
P 4.755683612596843 1.09166445397251 8.232848787138824 -0.0852248707077758 -0.1858917870022347 -1.0803387247145975
P 8.512279275440168 1.609982495136838 12.579509281916195 0.09949937834891895 0.4472878749903716 -0.48701758947982576
P 6.363015119096448 7.816326900095672 1.4224734544765485 0.1678282446323045 -0.5150703818519838 1.0299605293723615
P 1.8138914743768133 3.3316141362922806 5.851117356215329 -0.2813686744553219 -0.30567202708737684 0.14467520355460892
P 6.866920105997597 3.784109848665252 5.873125990550034 0.2635059352422881 0.4075730728992529 0.9477096536912452
P 2.528898396035343 8.55312983413336 10.061555035558655 -0.7871707436315024 0.7304493796800582 0.6214698297548459
