# total energy = -340873.88262891275 ev
CRYSTAL
PRIMVEC
9.21255380606084 0.00000000000000 0.00000000000000
0.00000000000000 9.21255380606084 0.00000000000000
0.00000000000000 0.00000000000000 13.48350371437941
PRIMCOORD
 96 1
Ni 0.8270100488449134 7.992360411289902 8.409458792389286 0.40526885024610854 -0.13047217258134947 -1.1983934974682007
Ni 3.918228180207681 7.380481001552546 4.082859283460254 -0.40586534617952674 0.4792860251635229 1.141289296256041
Ni 7.0045719492636636 7.988656964593006 6.140671149291762 0.77106252521573 1.008111037597438 -0.8244908202381994
Ni 0.12506594770740534 7.018943533460572 6.039989910693842 0.6169004652166086 0.03251134236414401 -0.5784447323435716
Ni 6.982784259118991 2.5161051032737722 11.729798668577457 0.4895490976524279 1.7485319266679114 0.25590781118005607
Ni 2.613113296602905 1.6492406246889575 12.131135291085503 -2.199893200396708 -1.2978401682023133 -1.5034240343168366
Ni 7.224309786612807 6.5390523844854656 1.098586927396624 0.6229153039521208 0.0340563182537607 -0.22461825703815508
Ni 4.0483647176214825 5.097868078708677 11.84307346845562 -1.8120708277618212 -0.6666675093374066 -0.2604355238470805
Ni 5.093704004313163 0.7281123606960458 2.4978052860630418 -0.05992727248325163 0.3140391681051495 0.2038522281353973
Ni 6.916776309906907 4.996999825265118 2.926675468628328 0.262537914902064 -0.03124250295404942 0.10763820540596947
Ni 2.330195764111198 6.5313875395804475 2.375146578708619 -0.24534649072444195 1.13798465736284 -1.6398894483671436
Ni 3.785659528545171 4.575203041639823 1.6904806225463043 0.7319519323675137 1.6890304288681683 1.603852095127612
Ni 0.25142810175872415 4.76596739674584 9.176279541111068 -2.962157410594518 -0.24554138034406744 0.8599823282765897
Ni 2.2371305438822424 6.308305545139331 10.106493225831537 -0.2349569199600018 0.03984721390392492 -0.8309478887174527
Ni 0.49053533383479087 1.9437199124159978 6.0268426749198625 1.264548753139035 0.06785038398507025 0.5230580280431507
Ni 7.726016263394502 0.3990952081265627 11.303571567746848 -0.4223407181267307 0.6511699279224399 1.1750615076104793
Ni 5.049833822296702 6.784281358676177 2.1249188727324952 0.380916389543673 -0.18448025136668875 0.9092233246905889
Ni 3.146151669444656 2.145990747433514 7.853183594663007 0.7459862989733926 -1.384804390198699 -1.5224969917878874
Ni 7.554625909292395 7.102584310975785 3.8225871298880483 -1.005136014129514 1.2026296470367352 0.0566866540587669
Ni 6.1472885268101205 0.541541560158255 8.016051415085267 -0.25219899486990116 0.9591664893779354 -1.2319610490110007
Ni 5.87632888937456 3.068001574096979 2.077835351890469 0.7055824412350494 -1.1158988812073942 0.05571914793917501
Ni 6.746878389548326 8.21308399191409 9.762595956085873 -0.2931121881444952 -0.8215312233892432 -0.9471848915360267
Ni 8.435926459951926 4.022541928836909 6.837714171715965 0.3573679127997716 -0.27060835061502425 1.161020456136381
Ni 1.430847820219781 4.317933259407215 2.5877944345206205 1.751242897841171 -1.7940206551283298 -0.0671934671273617
P 7.80765791669771 5.396843092774238 5.32820864442463 -1.0123533578135595 1.6433954046378727 -0.3733069526275313
P 1.7338763580331875 3.513308795459781 4.925644909727467 1.1213686460727141 -0.4623823074296488 0.26611946160573524
P 3.6519577327440595 8.05408452290483 0.9438980123910393 0.6289046887663363 -0.40897380990152143 0.38416883504269966
P 8.293813602374032 4.310968568604097 11.148889101529043 0.9605420295692231 -0.635392353373209 -0.9841319010740214
P 3.5323879947365744 3.9308493791498376 10.029771997604978 0.00792542549466377 0.5083716296755696 0.8838874170289616
P 8.678373242842978 0.07523708578161097 6.804800480138853 -0.09690924902423956 -0.6170071659978019 0.11559474124888479
P 2.20166221108859 5.384747009408507 0.17646555008549 0.6760481792213583 0.4038426593225432 -0.059973295229838644
P 5.852661838219522 1.7380312198747296 0.1731131016949419 -0.748274323676621 0.2735476357490063 -0.09912605416990025
Ni 3.0906644568690274 6.557698593725557 6.47828453597287 -1.099119090645894 0.3294326198420843 0.771500384084097
Ni 4.5909288712706715 8.5031044035185 6.278094816897714 -0.4800786962681474 -0.16496506415189655 0.345381944082489
Ni 2.4976707827750455 0.5635494303428672 5.032744534677942 -1.1626091407797399 -0.32385409731304227 0.24164255951029348
Ni 5.410855387366224 6.202711251507942 5.975848424916562 0.06637354232922762 -0.6440703407631811 -1.3800846161255265
Ni 3.6679599389940787 7.7543356543055895 8.639892404900358 -0.737982969052942 0.6403638384458714 -0.5381414047388345
Ni 6.477116384129173 5.432053474056664 9.422353306501048 0.5955178857757744 -0.8432591019846382 0.7699883183149449
Ni 8.384953398822761 6.445683149975422 10.444537760038555 -0.44216983703751594 -0.11215126278497457 1.8233795679064209
Ni 1.6320499989765014 4.26742082597667 11.111311093875717 0.2804729021139299 -0.4581782966506303 0.5759327645549952
Ni 2.3932280583902035 9.073877397431108 2.6520437071793768 0.1445391921973769 0.22971624038635274 -0.28851171325800634
Ni 7.270096179855522 2.9691416574193985 9.175969078042199 2.0808567804561258 0.7140765947489895 0.3843662957654864
Ni 7.356537573778337 1.8446020442271902 5.816500721367147 -0.2990159552234399 -1.065679580040526 0.39049272037819843
Ni 3.9958807976408486 3.07505839043982 3.6344115024482693 -1.5123488476102922 -0.1888297865846361 -0.4097798507425846
Ni 0.31751343642417545 2.1340697025932576 10.635693648688397 -0.3161248469895846 0.08875962333391164 -1.7956340223620366
Ni 0.785198872641279 2.172578178197795 3.284540812706913 1.0954611821783327 -2.658944643680911 0.9379818848805199
Ni 8.520129203259453 8.305439845487172 13.303930261985021 0.4049361494970381 -0.9159950961967837 0.1242182212518377
Ni 8.51415025573138 0.864773228833085 8.925553435965039 -0.143169822653676 -1.012873749093404 -0.9424640890215897
Ni 4.599468908803066 2.4647635399857135 11.710558249606148 0.6103117562554973 0.17221994594209694 -1.1245097628048568
Ni 0.936188947226954 6.476996620927531 12.331231042110138 -0.2720288851116347 -0.5332475669816429 -0.6870887533062361
Ni 8.874047889216271 3.7083017128391194 4.517270817239926 -1.7892592291839442 0.23249071780769637 -0.30531438663764193
Ni 2.8426625039326305 3.3923571743564396 0.09357467446362798 -0.7221298040707692 -1.2878468044350273 -1.1636170132189636
Ni 5.1170209784172505 6.683938220809043 13.297930125582813 -0.33812474829944345 -0.26232477044999336 -0.7802004829612563
Ni 0.28720874013204034 8.451182449330181 10.695115543065628 2.45808055163956 -0.38565364711834227 0.14432939017941596
Ni 3.7619556271742445 0.9629145663008206 0.5625019629562079 0.04604640073610135 0.3643461438898177 0.011298969952586993
Ni 0.9280911122852343 0.9529281577947636 1.0154113838570153 0.6792941969624817 -0.2644464447786865 0.7169282052651718
P 1.2924752595546738 5.8897700056202575 7.659385545533886 -0.3283602127135119 2.1440167009440625 -0.41671925817489525
P 6.075531943919273 1.2832442804743518 10.097499930643703 0.8720536576188272 0.5061034024666833 0.42413894767773413
P 0.5592637502349173 0.6697379337054742 12.41520623533455 -0.46957599696461066 0.8973761955440157 -1.2803173288272014
P 1.6821755051402063 7.746947186019743 4.358650905454328 -0.4909832589957931 -0.18451033327367578 0.3132017598055187
P 4.791983649163834 5.246383661297372 3.9393940229592173 -0.4441917525635511 -0.31182004896664367 -0.7023063415869388
P 0.3604780243851515 7.905071462401627 1.7822901716688249 -0.8504067687730127 -0.1700782170087458 0.167397327742473
P 2.9188503252841906 8.187095377158013 10.79943758299343 -0.7341386556061873 0.17010392804035868 -0.7854823001854859
P 5.334372764287547 2.445076312146743 6.580502428573383 0.17536671910119475 -0.3608895527997849 0.8343589712815307
Ni 4.143981815300787 0.5540604997513185 9.763621313342997 -0.3943766288136369 0.8623616271420439 -0.010851340892207118
Ni 3.7558108536746686 3.8060837607019313 5.985786006886566 -0.44550661472023273 0.7712687276892652 0.1888297865846361
Ni 2.141283132353629 8.420154567551215 12.855347977685039 0.15241088163596977 0.20264535231148972 -0.018635612823316293
Ni 6.51485100520003 5.0984945323787985 12.109494080548988 2.2308192005516037 1.9713653238915017 -1.9474571498153366
Ni 1.8094930010384607 0.8707724439798972 9.211067066166162 -0.4686347160972638 -0.6684024897506424 0.23888299448728537
Ni 5.280470110995167 4.011256550220747 13.428666400260216 -1.14667807137178 -1.6778291608357105 1.824059624692581
Ni 2.1446457145535467 4.109886153049018 8.353179300172032 2.483892884716974 -0.26882863300678217 -0.6716737043027464
Ni 4.331835003351532 5.505422253892677 8.515331305150639 -0.6238218749267901 -0.5964460540169987 -0.24881773710249408
Ni 0.2695086601849118 5.507789880263577 1.0430416757309695 -1.3473519017791957 0.8217320265461397 0.23978802280005798
Ni 6.080663336481888 3.458494099324136 4.682254761309642 0.3863185343958508 0.7572865544775603 -0.24574475460412518
Ni 2.3810674871466655 5.544280806548164 4.499027196608427 0.9550123580002455 -1.0572666733864824 0.6002762263963662
Ni 4.63564660825259 8.633029052190937 11.899071056521317 0.30455925363917224 1.7715826378397874 1.6610753384161392
Ni 4.958076784731824 6.789062674187841 10.587355377995333 -0.3687990374548487 -0.4361244021743845 -0.22349108541224735
Ni 7.713579315531793 9.192995720293947 2.299247110296394 0.31277572801169357 0.13342071368671216 0.4546643699601008
Ni 4.716864484073069 1.0439205533799343 4.890413339570904 1.5716240883318418 1.381507721725298 -0.24212129891892492
Ni 6.1459342813761815 4.543843507917851 7.296463430579863 0.5840800762524779 -1.4453037331353367 -0.5787062135350743
Ni 5.066407206893009 3.017249614263153 8.86410938599087 -0.7627941145593508 -0.4704139194848737 -0.25327011644689285
Ni 0.21176713565224262 5.848534614039897 3.6823849560040274 -0.3021218478422732 1.6238794460921322 -0.14907873193894325
Ni 8.6782995424112 3.10229991253614 1.63557564338173 0.07843098771439395 1.2498057905019055 0.8255742831103653
Ni 0.5069852702078678 2.8580935318363623 12.642794089923557 -0.2699612039493286 1.5843754744602392 2.764190437595304
Ni 8.011052683299855 6.664029891674736 8.157075348783625 -0.27793059530805037 -0.11729963975513347 -1.194147320597337
Ni 8.007284748725153 1.5148386747859448 0.27938267553250584 -1.5369391353551467 -1.4736480886059846 -0.9305920201743522
Ni 6.076701938273765 8.737038786539078 0.5807225522027757 -0.15210492035977674 0.49920718956748217 -0.6731127507421182
Ni 8.819279255850489 0.1150178150897334 4.451659929104052 0.7312857595384245 -0.2185298847522301 0.8130980050202256
P 7.660800593824043 2.1660464774313795 3.45130554345949 -0.4870507567106064 -1.0843635296032743 -0.017109663097093115
P 6.776423050137739 7.6433704417083055 11.959881282782185 -0.24038683272632147 -0.769904500351887 0.419090329510233
P 5.7875106565268695 8.469708895368633 3.894278303645691 0.9888665875455293 -0.08520790142691131 0.5493876670766151
P 5.6937913449658755 7.45075436325384 7.8002344407067685 0.9046922695894547 -0.6641997645232045 1.6926065762552012
P 2.558805290935741 2.317049449592616 2.0433850063107646 0.7999139022297836 -0.5194399716745892 -0.4224155372287241
P 2.7479758742045366 9.160733356282682 7.141511036530669 -0.9695596596868012 0.6848395522607431 0.9011570027426867
P 7.312584478776126 4.302244279992256 0.6133552608837306 0.06475451866856591 1.695855422209802 0.5009311142371243
P 0.5216562624088786 2.681203283012746 8.239620753631522 -0.3829884415813533 -0.9238220484403702 0.420203874289386
