# total energy = -340864.9082336961 ev
CRYSTAL
PRIMVEC
9.31579652345177 0.00000000000000 0.00000000000000
0.00000000000000 9.31579652345177 0.00000000000000
0.00000000000000 0.00000000000000 13.63460986721767
PRIMCOORD
 96 1
Ni 6.405299425374352 6.171817619055093 6.906066336995833 0.03244886455732476 0.44774527424276434 -0.0019247278265386207
Ni 3.5565288722710107 1.7647378996963095 6.7822771022453665 0.2016048268621173 0.23932779533418785 -0.25528174756028293
Ni 4.297414163599685 8.681940339763365 9.954329081506552 0.0252564605739436 0.3009545670070494 -1.0151170366016258
Ni 8.399457444139582 4.439908586033527 6.741155313574637 -2.3593920992277106 -0.638245763661604 -0.1331936852775706
Ni 7.615253699338276 2.4265600265900984 2.021740228881739 0.28449565012007777 -0.0160627098898175 0.26972569089975484
Ni 1.409759476131879 1.9036177931092089 3.0528433216230835 -0.4155154676747811 -1.774572573706047 0.2844249447831424
Ni 1.990003173550436 0.6193206687694484 8.185769842108206 -0.96442670933561 0.18627745247642757 0.33810546502573385
Ni 0.16841748920336616 6.120795001921847 9.789650021416858 1.1883841928613146 -0.5754535109257316 1.4383270447071874
Ni 2.333038746071445 5.642736275716469 13.310815198800242 0.0997084090359315 -0.498546930275664 -0.05849516802241538
Ni 8.28547867462611 5.638031798511378 13.00564554409218 0.051581985842349874 -0.07707447368649953 -0.7111897601194977
Ni 5.060200892372265 3.6144451787740954 12.561048227140212 -1.6131211791343638 0.013615019680273326 -0.1532313206547361
Ni 9.328652244822184 9.23238280435204 12.543200092729844 -2.63584508154897 -0.09651175647550475 -0.28287765490068056
Ni 4.448125118498658 8.30455742574696 2.1754154702097424 1.4071210514180283 -0.3308284717483464 1.300171130328335
Ni 0.6881606781847932 4.276425674207462 11.86947330955806 0.4144782846595184 0.4406135482939895 -0.19153895798568302
Ni 5.142720217288514 0.8777091884660021 5.4015819794445115 0.5266040935231963 -1.1053833263880513 -1.4522236001836215
Ni 4.746062920425902 5.646593015445001 0.3540198281101651 0.2716743299856934 -0.09025574826346391 0.5963357536913794
Ni 1.0519304188550562 7.498480190891088 4.4006928093155935 -1.2775348809860578 1.8372802371479133 1.8065303575595661
Ni 2.057021013180997 7.531299741769384 8.909972405161872 1.0072630877748459 -1.2298064645618432 0.21730089744113543
Ni 0.12064515345003313 0.6968187794014519 1.2980137030264491 -0.1338750276153114 0.16987612830026874 -0.7215502774182153
Ni 6.7198286607714355 0.7763989705390756 0.2318785577509482 -0.10316191480217073 1.0684774545006372 -1.0100640475587508
Ni 3.076252986511551 6.611989001115698 5.74190199730159 -0.9270572675482163 0.014738591761755262 0.38642343540483126
Ni 2.4092978557761664 3.133973661289276 1.2696005238669816 0.1411993291908665 -0.39816437799084337 0.9941795151180104
Ni 4.249707970001117 7.221810352249439 12.1188096698483 -0.6179332773564971 -1.087627545066527 -2.335807112818919
Ni 7.620591650701678 5.282606216717553 1.6344350600709912 -0.11970979185852285 -1.4452409982182013 -0.2375604190211199
P 3.6674893237360657 4.645731792705421 2.1003022034678445 0.21158276401043563 0.7233230530479221 0.5349013005349821
P 3.848215774783171 1.4078590536569509 8.926224743641088 1.0600280381817033 -0.6315922629008285 1.0776249253278605
P 3.30162073412658 9.145801792185452 11.800523373744655 0.971306724284895 -0.7909641492356636 -0.08272781531753495
P 2.2624156932163872 3.0662385053323944 12.863327190211164 -0.8261108723401257 0.9698841329057554 -2.1557537868753327
P 7.672024162878538 5.2875808520195715 8.793614381236162 -0.030610525797005343 0.2990856321191107 0.22133161586708333
P 0.5515026022241998 7.377859258511814 11.62840006071518 -0.08510942817583407 -1.6160437520977973 -0.5632973351791718
P 9.385851234998949 -0.05650775808049132 3.4128112857638455 -0.03290549247876914 0.8813991033894691 0.7721956103789088
P 4.275335726023312 8.016438473273514 4.776504148471604 1.6643090148620883 0.7179918706429956 -1.1307236049250526
Ni 1.8515052277918116 4.05339619150031 3.766206023932502 1.468322048407381 0.9698306539600008 0.2855929969493146
Ni 4.293529476481817 6.482797536006355 8.054291348971436 0.5236851201041883 0.57264303806013 0.27686178772390385
Ni 4.196719719817821 5.2105298996169624 4.1583647226914735 0.7693270305818621 -0.8331924617772554 0.7802943282266432
Ni 7.2874215066166945 3.181670539091398 12.816791992225824 1.4235719978852 -1.3207242718893384 1.7527613913682265
Ni 7.4522365773344985 0.9025600070646236 9.320524212423289 -0.2871983937632215 -0.9419128445038101 1.0499048337047725
Ni 1.3748252394604026 4.07428220713163 9.60736876394296 -0.6370604851042513 1.0406696882597497 -2.1478088209966426
Ni 0.9524097654253537 5.4057703615265105 1.6031032418850772 -0.5221157187345394 0.14089028259087996 -0.39614091980291133
Ni 2.6409444501956156 5.722908019928397 10.936566163991836 -0.28044513419978795 0.2472593914764387 -0.7387573853251213
Ni 7.6997759204903575 7.489471815728069 9.625584872312933 -1.3443403686463817 -0.5648320266561433 1.1440033527530944
Ni 1.137067482572556 5.149762959401485 6.220081828860762 1.8653762240531808 -0.6404826234119227 -1.3102228581373823
Ni 8.612528340446252 7.330795854868 2.540918880598555 0.7029982254476409 -0.342476597510236 0.8053695260277162
Ni 0.8708061832997183 2.764937700888243 7.213499730240206 -0.0881898668733707 0.3023290787570729 1.3126106416432686
Ni 3.1258130236028188 7.85079429667204 0.24914072856488048 -0.01688957666648704 0.730315168095039 0.048907781444296416
Ni 5.6607530260425065 7.929950619071383 -0.009381007020847171 1.4670313546204155 0.8061241448055535 0.8204217923751483
Ni 6.293975657847914 0.31386595069014767 7.267519239090043 1.2770808241677747 -1.7308193398794964 0.40033207506612345
Ni 5.058673101755165 1.3427416365013183 11.615569414270478 -1.3988901788678036 -0.4714868408340783 -0.09743735361356767
Ni 7.632478606966425 1.1041081947475737 4.78524329711734 -0.34926276719413396 -1.756043404553608 -0.6894230578663675
Ni 8.291384889572702 7.855815510956287 0.35172814218451626 -0.6224568762584635 -0.264743407193815 -0.3247838082161632
Ni 0.7650579199460473 1.25121393642205 5.370400145581374 -1.2479054881553993 -0.3781506538730778 0.0016329076177326715
Ni 9.254712768432448 5.482616366407313 3.8663256830736645 -0.7868007618865933 -0.36645881935744634 0.7590169069051057
Ni 3.8802900619458094 8.654011582019075 6.969930779529515 0.009611812058151188 0.008158110330760143 0.5200238692025174
Ni 5.610373198864014 3.498612565767925 3.0680867593472265 -0.26486579170429225 -0.29851407588635687 0.009208405972145431
Ni 5.719051280199867 4.427397471406915 8.271231095542015 0.32740119123435224 0.49589432314416537 1.0608672462535471
Ni 5.641413432621177 1.1282454233384525 3.0662869474739116 -0.5779652216039917 -0.10293077262797111 -0.5547036799728898
P 5.670301717399377 3.6784912793384694 5.400519047070054 -0.7003685011342777 1.3737846420494277 -2.905842023832241
P 7.183876429122439 1.2435749833365537 11.805076935047325 0.7176329446416801 0.2946383949810345 -0.8476551741698046
P 6.083941711182551 7.824104539855032 8.377990122810049 -1.6346410554840105 0.5923343458414702 -0.31815319027352307
P 2.283022234954336 2.931373720187603 5.568401809557435 -0.7465979644154627 0.23487335910726 -0.9836652458502477
P 1.5417084169891575 8.170205009406684 6.9241324610430315 -0.4601197366477173 0.12658132216737553 -1.3389094274387976
P 2.4659751613519703 5.440397176915278 7.9495911127179095 -2.0202178266178303 -0.30940578309819616 1.0201481712676304
P 6.399216210295292 6.360229602169924 12.013386527790583 1.7772138679836358 0.7900130981763039 2.7120559216835938
P 1.1832645171469165 7.645986511812731 0.9518480228996764 -1.901962507817647 -1.2976810169166295 0.0817112011275625
Ni 1.897916525684424 0.8952191594653907 12.853319230089518 1.0298481721642134 1.777227751940707 1.5433800058844838
Ni 8.624424612507445 8.195953870782674 6.252968453473468 -0.6428390394592414 2.303904864793684 -1.8224670833944805
Ni 3.531758169521822 3.485132608310958 8.522313236086186 -0.2568578337981512 -0.4864066953687043 2.855680315376185
Ni 3.7761021944967976 4.350430361172318 6.542540670192448 0.9876702532445829 0.39227398064833735 -2.186358656245383
Ni 8.187094548362786 3.1578221001903373 8.826174021393623 -0.5609653446118855 0.764389998291561 -0.2807680647568455
Ni -0.18771888785926813 2.0129852433820448 11.251565847109427 -0.3047217473589655 0.48512680021501603 -0.013930751148479236
Ni 6.069753753195708 2.751560217192179 9.957177852059656 -1.3022151573415575 -0.7071526139356467 0.10633851275793943
Ni 3.6771591204467304 2.0795931879689933 3.9612769383467374 -0.42967041901892455 1.3426742937978682 -0.4149518818618273
Ni 2.4573580496396725 6.34946985727511 3.26977002607864 0.8328574470353398 0.41032132506835145 -1.5208196040854647
Ni 2.1867714260770836 2.289301081758756 10.557919096397747 1.06786296084509 -1.3462260157048687 0.7956121895306362
Ni -0.06283970492465202 8.647909735347124 8.647492387666356 0.7215163388564864 1.4132176512340693 -0.4842060881729596
Ni 7.1583045678789174 4.413703250631697 11.073757103509124 0.7256403883271889 2.12127452215154 -1.9045426098399973
Ni 8.16116868685433 3.3565466699705873 4.549637489208457 -0.7193072470203096 0.5148430963325262 -0.48776629472039224
Ni 6.528882781023367 5.501769643899729 3.790366542014495 0.9907854018347968 1.0319752458095452 0.8782258478678102
Ni 2.24784578757527 9.057543936658634 2.0969895062517443 -0.5726227263451558 0.8824360292944157 1.7343960014871613
Ni 6.054867110475437 2.499185975680987 6.9950731825568875 -0.9098843553133557 0.8294736181647715 1.7646666274462446
Ni 9.103116812871132 6.516921298387054 7.481201251643553 0.4559838601024727 -0.7190172265837166 1.543530158309103
Ni 6.486607696752658 8.083009154674679 4.039484912667906 -1.1347350400772909 -0.7464735230224563 0.7019556431157395
Ni 7.339003071536686 9.266599724697196 2.2142334624194424 0.8241432070907935 -0.46591526028357183 0.766783438224402
Ni 2.674779422886497 0.1368462550487971 4.780621730500615 0.3757507861823335 -0.8365320676734497 -0.1940038745864078
Ni 5.328011408594027 6.125201373640675 10.360762375159311 0.254122180034543 1.9357018090516211 -3.496964094533164
Ni 6.504838710396945 8.625272349984007 11.374373196914513 -0.38973733026941265 -1.1991527442317282 -0.02036442258896493
Ni 0.06157834608590058 3.3132747954801847 0.2723212248607832 0.5272774654411371 -0.35898976467391075 0.9674156167606048
Ni 1.3970247823905704 -0.18254116819473298 10.63363230043075 0.737331194401556 0.3614824491887774 -0.6839044420409834
P 4.428794840873775 4.349657150067323 10.555219378587774 -1.0645742627914891 -2.2576597177832154 -0.43972806036524265
P 8.065542036338941 2.1871254263420212 6.609649804628177 1.8973538054010417 -0.31832159753058725 -0.5700554798386118
P 5.995870171584646 3.2860726698586618 0.9121254668550962 -0.21494525272476528 0.4876763061097472 -0.024594401509912482
P 0.06559904383187638 3.560227243459964 2.6506226311230816 -0.613402479365679 0.11807996956458373 -0.9551609677629679
P 3.9109483480486973 1.086100760217983 1.4645885276928505 0.2232612287896284 0.1448109578015248 1.1627510656742426
P 6.30943987994782 6.98427617447629 1.735262719742029 0.6652420897447897 0.24690715034334249 1.6152222846377664
P 0.21850945827168525 1.6119961011721684 9.137506075450533 1.796070852789139 -1.4220712449699573 0.48418860467146285
P 7.890898800370896 6.284734387773752 5.414126630938328 1.1460638348265488 0.28542099014782457 -1.3528021262604895
