# total energy = -381166.84414474276 ev
CRYSTAL
PRIMVEC
9.29440098065405 0.00000000000000 0.00000000000000

0.00000000000000 9.29440098065405 0.00000000000000

0.00000000000000 0.00000000000000 13.60329532762934

PRIMCOORD
 96 1
Ni 3.9073753708942394 6.737390278523153 12.489933770554515 0.22120948846692226 0.8379356328891957 0.1769983411673468
Ni 8.671359892773125 4.727503998923994 4.473021447431113 -1.093268031181756 -0.06715978567594885 0.4633307873858472
Ni 5.738716212031364 1.735515569375355 1.6127383943105034 -0.5879817252997293 -3.4365259438517652 0.33362171822276737
Ni 5.903245694158119 3.863143317711479 1.751165481362985 0.8524803634725899 2.1113379797641185 1.732411624067281
Ni 5.079129768205395 5.6044028267520885 5.43720956936957 -0.04254121579632028 -0.09834829546361128 0.2369217569958565
Ni 3.0730077209111353 8.92677002546114 4.957217901850633 1.0246064641493 -0.49775837293609765 0.6533065146494684
Ni 7.247243926220886 6.286686197216488 5.991312929611493 0.6623503700192915 -0.42238236999794354 -1.6766662508758607
Ni 3.907905151737151 4.41607651289862 11.82614718702834 0.35888023567924 -0.6814649793615555 1.4052336045873282
Ni 3.8282335484838153 2.8896849604621404 1.2905991114174824 -1.1188494791952859 0.5647227547717887 -0.9693454867934661
Ni 0.2844997481642491 0.9418202170866745 10.467667349152574 0.13337983314644772 0.2719941752189574 2.447906696430352
Ni 7.755703413805692 2.375918370047463 0.9324830620903725 0.8054289185107419 0.5466065047870522 -0.3358470080088603
Ni 5.3999910709949015 1.77452416933502 8.746034826181734 0.4512520018444422 -0.6139948615340393 -0.24094321945042377
Ni 6.4682244327209375 1.8563892511660252 10.825991593056548 -0.7724547775775664 -0.31435078580829734 0.7213319907598222
Ni 6.779205787510175 1.2609899389391632 4.123907025233128 -0.23414368003008706 -1.6178545800542912 -0.34649883129575165
Ni 8.245220912656213 2.7420062269002825 5.564632085930691 0.002569817609705252 -1.0228501435798256 0.2685648378224343
Ni 4.380478958015247 9.191418792497474 7.702702093512629 -0.5815254281514244 0.044839267801877615 0.5197289636699179
Ni 3.2235119523018563 1.751948069906374 5.898742556993368 -0.5983317010754856 -0.7576390527209726 0.5483635966874748
Ni 5.893811877393987 3.22087234248805 4.689409038558332 -0.409196724545605 1.2298874543114238 -1.1793861031277624
Ni 8.981569812299877 4.068605340753736 2.291366276958812 -1.5571773167788925 0.46428955175469067 -0.5738077477921925
Ni 1.5661994708608882 4.9435802276259935 3.5283134600305313 -1.0590759586810792 -1.571148948467636 -0.5143098495368755
Ni 8.78782802860695 4.741789492881107 6.981238176674636 -0.5108288329668106 -0.4977563160535686 0.09657474850295626
Ni 2.1828271944072344 1.3357633929957526 12.065469641453264 -0.5547003375387802 0.7361284323427064 1.0256307916487561
Ni 7.567789219384795 4.959213409692268 0.5699233597633303 1.826005178454726 -2.7647565945114194 -1.7639089233446137
Ni 7.344221703676007 1.2689552403843465 7.339018698134568 -2.0613691040451596 -0.5818277898831915 -1.7053885585112176
P 2.5693069665117827 6.368449040639213 2.1033275375678264 -0.04186424433395371 0.3768982695232154 0.006348053705214873
Ni 0.3383766010082305 3.661845186206493 13.22119212690585 0.6100636448004332 1.3776094151121565 2.844866255479817
P 4.515805432976581 0.5649898918437235 3.079499859836994 0.42615983476250474 -0.1403351814183583 0.5112926599771066
Ni 2.5518520818979513 6.676316771176249 4.421846476885982 1.937751235381482 0.7879806411273075 0.049307330875560246
P 0.7074581843435398 5.866272567963325 9.930922211756652 1.7850444197716484 1.0793825314489154 -0.02289953030599282
P 2.20884222211443 9.259769815633852 7.251032323967744 -0.6317799534316022 -0.5264806805714546 -0.7676627555055618
P 0.19325940429385516 8.821752591354812 3.456665712947122 -0.04450682416312335 -1.564426542142138 0.3544988187820927
Ni 1.647506888646723 8.287928684115508 11.989522304581593 -1.3117891741832375 -0.4339191669929494 0.24673308665932342
Ni 7.972811320991258 6.7776629169852045 9.568040923163563 -1.1460327244782973 -0.043136426178157966 -0.6633109341603479
Ni 1.481731956819088 4.229881782616998 8.43552562695074 -0.27575852735739603 1.9376504481375596 2.143690427952895
Ni 8.230870357893831 8.442252914215645 5.262326124804152 -1.0557682344640849 1.4713862891550014 0.4761017138982704
Ni 5.683693359574557 8.582905080808358 5.790746267445756 0.21720139574879369 0.32697850187463684 -1.1396890416484566
Ni 4.701024251179155 6.404548493163239 3.239529922559299 -0.24428873888388897 1.5121195052083054 -1.068300819713457
Ni 4.005821663668309 5.384432244134649 7.777003392010974 -0.010159199921188954 -0.7562228890997363 0.3533127688937915
Ni 0.18715298299924 1.0357215478926063 0.10644970126233956 -0.14255969987350284 -0.21933592559329324 -0.6433206070813502
Ni 4.922863008347915 3.939905773529175 9.390585717909834 1.0750599928141615 2.530066555059559 -0.9997755211485492
Ni 4.174635864542123 5.336844912280114 0.9683901205188151 -0.3722741404876427 0.23380480863342962 -0.4787543210297691
Ni 6.5350232909315915 5.248696815540189 8.051028350526774 -0.22035408244516244 1.9475774774432844 0.11728318469490123
Ni 0.9322283955097447 0.8799669095166067 5.295436498046066 -0.37058466860036177 -0.7571109481316445 -0.10443358242574272
Ni 1.3048780992940687 2.9886331508768635 6.627157756154409 -1.0514868334799117 -0.6665417823928197 -1.2484955563309141
Ni 8.091909772238136 6.45916239198692 2.7362892409972113 0.2747861361417977 -0.2462299217706598 0.008826854263010605
Ni 7.039607013402465 7.798141647643154 7.578966665730159 -0.6064967533847814 1.278435024202824 1.4064643916706359
Ni 3.7087819100083297 7.1551364147602525 6.512291975010374 -0.2630873596476308 1.3856888496861814 -1.2904618734603712
Ni 1.6130804282582079 5.571751596907364 6.3816731140303515 0.5703616982251211 0.08147106009229839 -0.2053097865175303
Ni 3.7742981409150915 4.36644441287846 3.320264805258759 1.491802390917508 2.377606308242892 -1.189934310957254
Ni 4.070464220904304 8.30859943138982 1.6275666812715825 -1.139849992706353 -1.4544072380985016 1.4506734820876823
Ni 0.4878491539153862 5.819884213805906 0.713574829478983 2.210354762049664 -0.5099813973648508 0.8885354573239341
Ni 8.426080656905707 4.5202481565364385 9.445992429117734 0.7704894263210795 -1.3563134818478577 0.1745136270722801
Ni 8.651572113570332 5.506040183584794 11.696004199366865 -0.7384473102838702 -0.11479512816572489 0.4980118837078004
Ni 3.37602377425519 2.988726094884392 7.875995266109236 -0.7493595863209997 -0.8766582462703741 0.9127305665128991
Ni 1.6940439532161877 5.933833567035711 11.904896785726995 -0.1622036993566755 -0.7081520017344385 0.48147634794662236
Ni 2.187121207555046 0.42604231834908257 3.0123413083172057 -0.9368901944782381 -0.29691433549940477 -0.0462834564475719
P 5.253176716703058 1.5051259635139835 6.286504026961732 1.532141456856187 -1.617906259227833 -0.48879010799921624
Ni 9.109795365086043 1.5467834676882077 2.937454462571431 -0.7607354322581091 0.6418530213968882 0.4207016398614109
P 3.6379213986686856 8.857322263035927 12.111789217045112 1.0190940189715028 1.02664200652209 -0.008456101187153179
Ni 3.7983613444641913 2.5394905288966756 10.388142597431134 -1.9372035904081282 -2.982680213138218 1.4426758085941864
P 1.6442073763794653 2.260519090300215 9.453405643158197 1.9218597609622061 -0.3105424678058007 -0.9269767920192681
P 0.8802132111365569 2.8686424371577135 4.392368355458278 0.03366911011767105 0.9711496298817404 -0.4964872195331579
P 5.778208120830176 5.567606294171599 12.656152045298061 0.48842424001936524 -0.9601550785434497 1.0930697991280207
Ni 3.3148108508969933 2.4267308589632335 3.669869971816494 -0.7051065300398953 -3.392088796584313 0.43503374021336694
Ni 5.983224012636297 3.251525276170913 12.895691988700603 0.5725111404679559 0.8103703216764172 0.7702706254420542
Ni 6.577061865536682 4.207361449592868 10.833106456832846 0.9011845135465124 0.0392309204761647 0.9496222973329258
Ni 9.016163571901945 2.0980715539420958 8.54855576394609 0.3685846074511975 1.4899617381643435 -0.5557431769809977
Ni 7.798466951669504 9.040291836256314 1.9719195819638884 -1.4148397602185248 0.7291044356163895 -0.7900745475418587
Ni 5.788088068830444 6.375800911634708 10.694515788327115 -0.36515269895151303 1.0965384744029116 -1.1486357093187831
Ni 8.42838566829241 8.104698867674042 11.362287810896106 -0.23862716972273743 1.1495217114681622 0.971886765158081
Ni 3.2070887461715896 4.085948692558533 5.595742304130593 0.36910345606914496 0.2389336452195627 -0.054536697595299624
Ni 2.4391295895675205 0.21293750956776575 10.029314597006357 1.7142400953645769 -0.39352790766009643 -1.5802246855166593
Ni 1.5618403969078067 3.4455458918864252 11.166958543554594 -0.6000648817165085 1.6252845539697751 0.004324852627599004
Ni 0.3067867917294816 6.818995117133079 4.624603829309163 0.17648026388034768 0.1670887953631187 0.13530404675235405
Ni 1.447221846823797 2.81926128595788 1.9335179063733838 1.711747925070342 -0.40099773367458036 -0.8767464351088062
Ni 6.346848853289615 8.014413058760965 3.394158079564054 -0.630791621376404 0.6405970375026001 0.7524382252463234
Ni 2.6845203582439736 0.8349364673091774 0.8755976117226971 -0.07408710892340144 0.029310576038659195 -1.6881367134093055
Ni 7.6766080633990335 0.29516042582775537 9.595329283773896 -1.363034088401143 -1.146590139643664 -0.8568072729827179
Ni 0.45451106785502826 8.24786052247002 1.2618282938870695 2.5958680269354004 -0.4852808092943771 0.5964627661875469
Ni 5.428813007729455 8.863800460360656 13.632270460042863 0.5992567839929163 0.06167819373608732 -0.9200792935684864
Ni 0.07365161988572154 7.079005978193749 7.209447316119392 -0.3802376183090936 -1.5772563469169545 -0.13037009978584643
Ni 3.256079532539804 5.7395341192976135 10.060044674215469 -0.05298015174145714 0.14029070133366808 -0.3481440802086585
Ni 4.4609405853325725 1.5761723628686843 12.749185279073679 -0.060860840041114535 -0.3293588291813554 -0.3089810368559518
Ni 0.5221185389311787 8.152211844322554 9.387334536526492 0.23940724242187159 -0.4847203088052169 0.8133535726744574
Ni 6.424345566766785 6.5946375773603005 1.0589538320144023 -3.6297343191200713 2.7679272789299167 0.8112064444244675
Ni 8.361503160474982 2.65959277542486 11.980340366077863 -1.9020910629757113 -1.3115230650060445 -1.9123145404759325
Ni 8.304519189459326 7.183354215445871 13.494291363106667 -0.7921841376856938 0.9717039597233135 -0.6183983899183737
Ni 5.4079470780393315 3.5213045524228157 6.865841685247613 0.4342189576215554 0.5998206269161862 0.6599762133601601
P 7.447361668830261 9.246804126583642 13.159351831496835 1.673137411786996 0.3714493305935022 -0.08989450826930324
Ni 2.391282014491906 7.19176564812719 8.384785634360842 -0.30207711064726683 0.5288604936575408 -0.07823738364634913
P 7.063159024910158 3.249434036001524 8.407271578102186 -0.1445196518133511 -1.1656155317062311 0.09719592702672294
Ni 5.131717487664958 8.992211901161879 10.44262358632405 -0.1823675758990601 -0.008089976096986067 -0.34005179011882725
P 6.389194143119549 5.190467394823654 3.7179712840326617 1.3331239311052718 -0.20629143370450923 -0.3094091255323059
P 2.3849618219799753 3.5302271771455414 13.281808349735716 1.687963678166551 -0.536090949967709 0.3986194632503909
P 4.805809325266662 7.320716164172078 8.779566235777752 0.28743133570963403 -0.7943916868599739 0.273319064677968
Ni 9.196028815270882 9.202423362988837 7.461407367247951 0.8669960405902617 2.110173270032056 -0.47782435301633197
