# total energy = -340897.9659197106 ev
CRYSTAL
PRIMVEC
8.97738074341435 0.00000000000000 0.00000000000000

0.00000000000000 8.97738074341435 0.00000000000000

0.00000000000000 0.00000000000000 13.13930416554680

PRIMCOORD
 96 1
Ni 6.283223894199023 2.082608693978191 11.24222487828716 0.4049304930700832 -0.39732774102216084 0.10857357273604527
Ni 4.732067162747621 0.22957047806434797 6.028220496493491 -0.7316050905510562 0.3804260801708158 -0.5353964950038457
Ni 2.9058434853711064 1.5705299190919486 4.935056514173925 -0.4644235062293937 -0.055351223076795 0.20566074209904578
Ni 3.36581754243263 4.420803417672047 4.86526096985965 0.3401561769071755 -0.7334598843716078 -0.04640249852393944
Ni 4.904863787263503 4.434565742349045 2.6719297505039328 -0.1865106515331562 0.022501266426309636 -0.37805706571800696
Ni 7.159200797449316 5.867939238469588 2.5198161134788113 -0.6694910948291308 0.10111634512705167 -0.4464712926263472
Ni 4.860506549018856 4.771567638011019 11.248059278031178 0.5008825203873761 -0.9472262862969235 -0.146133019047058
Ni 5.545723088889162 7.817916109370179 12.223152748836153 0.19261367910710053 -0.02713233744041779 1.3265588762932443
Ni 1.7817676879437094 6.497334424888121 0.3824480901905869 0.5341937329449962 0.6255249736608259 -0.3367985732888522
Ni 2.7486944354879754 1.5633569918793453 0.6000131169890844 0.0768045078545645 0.07187647442532782 -1.6001581912157925
Ni 0.4816068514347533 9.022088097774857 4.747375392388337 0.6487425494278698 0.27663733041792354 0.1839061240307736
Ni 8.676306323747518 2.09226835565624 1.3804805642667044 0.34864030311878663 1.2421282193519898 -0.14738926005166228
Ni 6.89118109540642 0.7742281676621514 4.835737057814483 -0.3034390239918 -0.20664213217570865 -0.7025153722739514
Ni 0.7374451455492608 7.47335525912371 2.5062566776065758 0.24765611269422508 -0.12195230803579644 0.07738043496269253
Ni 7.55660251074132 3.8163743270961303 3.794617644868666 0.5556950973518817 -0.7525115016864201 -0.6012007950931646
Ni 7.708957639308393 3.770446047221689 12.493625969035747 -0.6073331332431475 -0.5117528874429768 0.03551721907000335
Ni 7.966294258268688 8.691522984104667 6.891880433366198 -0.10929116762836016 0.39120311618166176 0.3604545221448953
Ni 6.744095689334714 0.8047234323035686 0.4092877653939914 -0.2869497680875252 -0.5500582107810785 -0.6329940283443615
Ni 2.090122761658978 6.485565078735776 9.1604735241698 -1.4180225288218806 0.05528386017396931 -0.1483696216870606
Ni 9.04058150210272 4.736843129302196 1.2924833804986702 -0.8353025661417227 -0.5635570165984618 0.38097166826164064
Ni 6.20552466387977 2.0487101042976024 6.933860461190447 0.48232095533510483 -0.5169801972801871 0.2936773166193458
Ni 3.3504662213643552 4.302553358542622 0.4883291141341243 0.07536417586361215 -0.46349842331196306 0.21881476298250058
Ni 5.87596501685265 5.410927717052818 4.664374121003047 -0.11933826745171705 1.2007527417289967 0.49212662857161693
Ni 5.2785113511130195 3.006426059200903 9.143746868371899 0.09487062132765597 0.022627250481212644 0.01909224074476067
P 0.1360935010915916 5.538541184295818 12.404462623509371 0.30207248266157655 -0.15038073857981843 -0.4934659162083308
P 3.882860808869022 6.168026144521767 12.688731384694707 0.13120313721010307 0.6153940558744112 -1.153622621010413
P 2.467504915897034 8.490914434051058 1.403054188141662 -0.20631817317738663 -0.6036124898584507 0.7774702285142868
P 6.417417781525674 7.759967116682627 5.6569824616350415 -0.8742848609421912 -0.898120529909208 1.159900740709641
P 4.696346164776472 1.0101259036732364 12.601788145425745 0.24390204496843154 -0.4552570092387772 -0.5969926705490881
P 3.982033933922375 6.0507187103702185 8.070384294754259 0.19417922382200753 0.5859328131905005 0.35101985909455674
P 4.786945891221519 0.9314212067109165 3.8157988769905886 -0.28848420245418055 0.07472679938992936 0.07756786838315029
P 0.07881870969773916 5.4975684185907845 3.4355601202005297 1.3045394345993597 -0.24769930722733474 0.33029702472490857
Ni 1.699561812492134 1.086496481642719 2.804111806806374 -2.069223567092572 -0.1800283862429222 -0.3125024197456489
Ni 1.714796427610767 6.399202676000802 4.662022047248727 0.6618312642910279 0.4481106280019831 0.19441422265094904
Ni 5.942029561730683 5.575186852483361 8.920168791952623 -0.1232687128543748 0.7244558811007846 1.0563709010450903
Ni 8.417497414345588 2.2957676223086714 10.050555688041422 0.8779245145773075 0.852772440791712 0.6072056065263478
Ni 2.263547802826777 5.231694310545151 6.967063303863555 -0.1582421436057662 -0.4879521854789532 0.05172391073685286
Ni 0.5265153008569398 0.014195034428746447 9.16898767206521 0.670281194830594 -0.031952641647196585 0.19569951712127587
Ni 1.3581520228859947 1.1848347102870957 11.382579044278755 0.14744453876962993 0.21256286853551778 -0.41443380457482815
Ni 4.178728345972613 6.7838385538781365 1.6632653644154423 -0.08641914812619311 0.2327830522371346 -0.5660427591347928
Ni 5.575914020323436 7.864948607075847 7.81608562143695 0.5043951615263248 -0.45756945942203775 1.0075757339192584
Ni 5.2268285701831605 2.8089595924068815 4.831874090881337 -0.19115072140832887 0.3872384751069589 -0.21248522122004695
Ni 0.755617159646572 7.161139911689518 6.864445557819619 0.18734985960499992 0.6900599201194181 -0.12914419779854533
Ni 5.015824213230684 4.359820070293807 6.912403623479754 0.1558175933246736 0.822820631624628 -0.04372469458146018
Ni 8.24872265640198 7.071473832841606 9.113999419546264 -1.0904570440955221 -0.23287689750252152 0.14754069802786204
Ni 4.611536848909809 0.35171312948336686 10.439807735096128 -0.06806095733397956 0.05523063833853069 -0.5657578809045224
Ni 8.122419886747267 7.069741198358462 4.588639141590076 -0.07011475453921474 0.20714041196836583 0.041660870073895996
Ni 7.238444137256136 6.032054735808263 6.910144016747074 -0.16442307560549746 0.168095125140446 -0.6650379441537837
Ni 2.0961106746136795 5.330077426093236 2.3882920991847354 1.0095444276098549 -0.48547055670768 1.296192605296561
Ni 2.36335832191279 5.239450767505964 11.404719060663888 -0.6761715921731 -0.00362731233994214 -0.13810269254341379
Ni 1.2840706770056407 3.41253583181234 3.856963758643494 -0.9142128074853804 -0.1674731752857309 -0.09137289258704263
Ni 3.5563534712940736 2.488772330874077 2.670563393155049 1.8261473604595453 0.6190254819794113 0.7029442322812538
Ni 1.127110152118085 3.291143689423325 8.145317594066999 -0.6153488044587725 0.3221389143941485 0.3563039903116315
Ni 3.5692539674198698 2.5789860299472323 7.1991429598452035 -0.1291943343101904 0.07914755416544433 -0.28575009135246915
Ni 4.090516602804852 6.7447420607481146 5.9744809976357125 0.0614287967294426 0.32511599474460134 -0.5467659131830518
Ni 0.7420146323467764 7.305550058300203 11.24025434321436 0.2698629878085675 -0.29554162352159424 -0.04270242396453291
P 0.13553959669982985 5.440669779450008 7.989774597598554 0.9681730637519197 -0.4477259909690547 0.14298213212290214
P 8.550694812409914 1.524018109469298 7.988420808582709 -0.42526380531079666 0.9883359118530398 -0.5423155907211821
P 1.752959273143654 3.281232661084509 10.397420134186207 -0.3123280989513137 -0.6225571492817537 0.1085496614766453
P 3.875230035238593 6.1284987371161455 3.7096853388858415 -0.5750400775373967 0.05214197211087794 0.3519025188098262
P 6.848547514264175 4.035431394573895 10.247763606270084 0.17635659381828983 -0.10852806421009052 0.8238948385254133
P 6.34723261888721 7.777634601982255 10.160821264739196 -0.8366166569674559 -1.019648348813076 -0.9864350952859011
P 2.3889707891688063 8.331090124706906 5.812420422748808 -0.3033685757651807 0.45093909858971376 0.032228521016402556
P 6.633584132404617 3.8415648574572883 1.5319119203554583 1.2675926821716814 0.48098449591186837 -0.6229824097446304
Ni 5.251713869599101 2.9180617005605347 0.07813463328522305 0.256019654167572 1.1037162230982733 1.1164737798742577
Ni 1.5599007002937981 1.0236368616894667 7.097392428780913 -0.6305360537221721 0.2542635907084137 -1.0641484881079804
Ni 6.83137378490534 0.7346890896615645 9.104709625954772 -0.6607244043800943 -0.4019037904286175 -0.23625404150487053
Ni 2.648165725942629 1.5555017837303744 9.271224777165699 0.3089237012554551 -0.2418816721042931 -0.058599297700447465
Ni 6.282056834702603 2.0137521836894954 2.631145509794475 0.22441822521220706 -0.0003887507979864272 -0.5225216959237066
Ni 4.073244122257857 6.963556738945854 10.429913763780721 0.5673853892056163 -0.5252532359222566 -0.3994201047748153
Ni 7.987005075639747 7.2180026413073275 0.19893696175950892 -0.2853286875443344 -0.05214942831004567 0.4157700068877484
Ni 7.533826895799675 3.7776010196728094 8.059044965139442 0.822822431396841 -0.2679248902455902 0.15835707191707565
Ni 3.0029338580923897 8.55857695270111 12.26533027903672 0.6894564822074642 -1.0407128827928591 1.0021319371958677
Ni 9.07128414423927 4.815844079828991 10.200318149050299 0.10201957366761139 -0.2955115416146072 -0.06394513539339311
Ni 8.605133649227469 2.2804342560018798 5.8678683171617285 0.28020936403989805 0.4242196803169984 -0.0199396763467205
Ni 3.6467467179820625 2.5422954748559814 11.328800044945712 -0.07715829164955744 0.6161072798913518 0.39222770079143415
Ni 1.1727511558087929 3.3621817032322494 12.617752621598678 -0.22286322202026135 -0.15209437883681548 -0.010529438776414124
Ni 3.145952510688114 8.413708959672599 7.9156690127901985 0.3380517289696629 -0.5310089074591113 0.6184942920662897
Ni 5.512183594438242 7.7493648300267015 3.619064066727014 0.4395138874719076 0.02880278316430523 0.3341351675240762
Ni 3.100006276052189 8.336422688867465 3.6984115441504386 0.3354027213825901 -0.6437733783480526 -0.07459310202554251
Ni 3.354919002212229 4.316773529637445 9.336185104212504 -0.045166055013677056 0.04264174592992657 -0.732974460094757
Ni 7.131577396907162 5.985408265474487 11.341242694653682 0.2784738694060301 0.3013906261032035 -0.9857828064138829
Ni 0.6908148345008197 -0.13979936386175762 0.21709371430955932 -0.18039759665688287 0.5420371402488148 0.35619291865506403
Ni 4.619948654664764 0.2766954427916555 1.5853363131492038 -0.06380501027110301 -0.4841276695265404 0.507326733350823
Ni 5.911901471961601 5.505576242212364 0.20439251603622863 -0.014509763580400818 0.18311679536025882 1.347894147435911
Ni 7.90981755602277 8.80003258512937 11.183295555622614 0.11300358348294086 0.1624620952243847 0.46001740674189806
Ni 0.0976110608043006 4.75726667048952 5.637365986976393 -0.24652174197946577 0.06366000005280649 0.5880485739819228
Ni 7.943410914758141 8.9716980596718 2.328718200582938 -0.039212665643719564 -0.39934322879029294 0.7704901976520279
P 8.474252415394497 1.7578788777900956 3.5731286049479793 0.4132415840389399 -0.7544426572708619 0.6509480417196208
P 1.7936806721879206 3.136463419244157 1.7213804386467162 -0.846327970717949 0.9755387600883715 -1.0574955015678367
P 4.729535541378467 1.105932510948459 8.347728802173538 -0.1015886567777799 -1.0578431147152427 -1.1407035989559
P 8.450722700470552 1.519457600052524 12.369248847550125 -0.454654599768088 1.203169321590289 -0.0028310416908918987
P 6.36138994831684 7.619848158066465 1.5714079069284852 -0.671174910289457 0.7970388946748338 -1.2682238879977772
P 1.826313451183932 3.2560331533426097 6.018642528980191 -0.10377358024424063 -0.6728031899214993 -0.22913877061632795
P 6.905356379597535 3.9454421300192823 5.871061571491544 0.05135315766099543 -0.24503050214591995 0.8064198216691015
P 2.394482900944199 8.463174327559262 10.228842878618917 -0.12976949008737007 0.026268446778225728 -1.04248205887814
