# total energy = -340891.37912301626 ev
CRYSTAL
PRIMVEC
9.08339715710158 0.00000000000000 0.00000000000000

0.00000000000000 9.08339715710158 0.00000000000000

0.00000000000000 0.00000000000000 13.29446990327650

PRIMCOORD
 96 1
Ni 6.325232697126092 2.219573513510063 11.572676720679578 0.31791921988584604 0.12344071965586483 -0.11735851801752692
Ni 4.799167473534301 -0.014660603019398998 5.776500132873673 -0.7654942870993332 1.6548098171224017 0.6696103940158145
Ni 2.604727719971374 1.3594303026556835 4.765508945350669 0.2075942116763328 0.6050991017063063 0.35491867992833065
Ni 3.617617337501227 4.462818360024187 5.131598917848465 -0.6507693500499115 -0.5603297679104157 -0.7008832359871672
Ni 5.262983899418163 4.621359974088988 2.8964128612964295 -0.09708459825983924 -0.28424265356900724 -0.9786397676111985
Ni 7.1202297835349135 6.303705045852252 2.666644696725856 0.8663671487570113 -1.645397008448934 -0.6122521678113196
Ni 5.053720595600992 4.6817009814358705 11.53874932393995 0.20348636015554633 -0.46805416100344555 -0.8980194855549695
Ni 5.7065080160422115 8.031557937396922 12.61548159842262 -0.776732579017314 -0.006130538377770087 -0.5235416525477887
Ni 1.9016909464302072 6.588060794007324 0.47702913539564396 -0.9191254142956493 -0.3944072249412562 -1.4438942543823199
Ni 2.6422694004417435 1.59475387293051 0.428699104116018 0.880880768992154 -0.05443899567517076 -0.5821700037139587
Ni 0.4516183318350686 -0.07678831458803798 4.418536798859646 0.912002944318255 0.050262752810294076 1.2902741829295972
Ni 9.035781994034268 2.477769077838698 1.18221504070533 -1.4597618175421956 -1.05959326463713 0.10631562993980398
Ni 7.017641895987769 0.37817724910121187 4.723976928507052 -0.15632332931649853 0.504425500543628 0.23873875559993726
Ni 0.870620001140981 7.661645671373375 2.4187024711136385 -0.29551334138682006 -0.7600816007241943 -0.0838848117401136
Ni 7.64913783348136 4.056790506884698 3.658558025189601 0.21909681299929362 0.21148506209030676 0.09291144071875612
Ni 8.03233910955285 3.895078787210373 12.419587238548417 -1.3284427235795184 -0.159087522325197 0.23556704274017493
Ni 8.419954916645052 8.86361528422653 6.914759706372575 -0.543664905660225 -0.8154436224342666 -0.17204562514776175
Ni 6.902518920357123 1.0458532658305955 0.4668203053253202 0.9448457018798889 -0.3004963964237083 -0.37969768664522346
Ni 1.8725604917318104 6.3650997272699215 9.44819365869918 -0.16150667328965088 1.1985174246405745 -1.362572318273376
Ni 0.06460293729527233 4.821939550219328 1.4185332429693907 -0.3860123160093417 1.5033666987163399 0.06945860901245457
Ni 6.544596738587358 1.4035574460684719 6.9246769593940005 0.051670431791098106 0.9163097992237251 -0.03615176733020871
Ni 3.482265636390902 4.765304568914525 0.6630852678037304 -0.24067325361848874 -1.5106421493318307 -0.1681573458369491
Ni 5.857374159505159 5.389733623416115 5.088604474061772 0.8365757764271916 0.1591613129859259 -0.08191868915267828
Ni 5.215650316807204 2.97110654449892 9.389113426878378 0.8234847475711883 -0.8247798122335279 0.12087141626679185
P 0.326251100885167 5.717716928140066 12.348887525078041 -0.1652100902831671 -0.3825744939723863 1.4467350662652245
P 4.047171189290185 6.367534077709326 12.598158651695053 0.5211376710919864 0.7371658724682852 -0.028878116486930915
P 2.4842364566180115 8.540682348324626 1.2172606036355935 -0.3702216288339882 1.5838280865972014 0.38379653930494545
P 6.261131163354158 7.479950477942744 5.815333472420473 1.2564232958184234 0.43433157194001976 0.8720323174625886
P 4.613157666451741 1.1567161281922838 12.514270753885228 -0.2847584168631612 0.6871977680802746 1.8313664427666394
P 4.098592300624025 6.2196291217211765 8.011127560500247 -0.08213671870075531 -0.8265775275638989 1.9918637009551696
P 4.68179181540749 1.0340357661228892 3.8245135080179917 0.3481983304853616 -0.21475010599482372 -0.4325940204236227
P 0.028660843065123703 5.862124776220863 3.5243771739734524 1.2812208144780772 -1.6820902501049095 -0.8310810718612074
Ni 1.5334409420872985 1.1546269468450336 2.4543057546296465 -0.112717933921722 -1.214625643056347 0.5157758925594408
Ni 1.8613243294424695 6.430191351332508 4.684878353763123 -0.33615296928505334 0.22916345320667633 0.4657854195739269
Ni 6.074458268278775 5.578958953094007 9.098044139880903 -0.38958692073447737 1.1179701619141262 1.6908165742343138
Ni 8.429029230409848 2.369649401419921 10.046564263422546 0.8197954716450591 0.6740805139720262 1.342867640755597
Ni 2.4477484502184295 4.968963416682769 7.183254934743154 -0.9155382111650232 0.2965597803734635 0.1047966221921163
Ni 0.4322361789708842 9.12972248748323 9.306341878579758 0.4049397490414639 0.3193058158207275 0.0596292816268586
Ni 1.6133294201267125 1.4548150562533966 11.497269990799873 -1.4704069559608677 -1.4620948365507465 -0.7097255168691454
Ni 4.011200936528835 6.988111771814245 1.728041826205638 1.3417777501255277 0.3474560530026984 -0.7777167973074541
Ni 5.686506375491581 7.8445307898322225 8.055199295190349 0.12039576218195394 0.4928858753351447 -0.06277656900658866
Ni 5.128658622187139 2.6008400259860567 5.398591752328454 0.08341095742748861 0.17324787298597905 -0.9908879888509322
Ni 1.0524296453758526 7.078391656206938 6.80058685408507 -0.8414197347830542 0.3389387595603066 1.0166154755240233
Ni 5.1429831395115455 4.413014093385176 7.319669393321427 0.5139365253578568 -0.04700799331842227 -1.1672620661707187
Ni 8.328884776699269 7.025589868504481 9.265341240470116 -0.4683814624358772 0.4285779572856942 -0.5043571091995379
Ni 4.840751265741742 0.5076156586591026 10.536877867167552 -0.11824914815259634 -0.9434711901298656 -0.19990198523839764
Ni 8.270151530650052 7.0772925651503416 4.976518986442084 -0.5448848941102552 0.40534264090683736 0.5164924590104911
Ni 7.329111584671281 6.065393037911142 7.0438493134794475 0.28769667355587875 0.010683447855775149 0.10014601079398236
Ni 2.3030499334284507 5.450256298706235 2.625671308807699 -0.6903000611546821 -1.138738247699413 -0.010418110009530444
Ni 2.588041519384859 5.392603976919292 11.476637054146488 -1.5731130141725425 -0.0532125794672374 0.44679345185245634
Ni 0.950577512998826 3.219010619843057 3.491619718788286 -0.2853060618365151 0.877210262119102 1.8209470472055285
Ni 3.705562788823297 2.7381174072947165 2.809068730866481 0.2911951736274404 0.13387991271131783 0.13829038307418764
Ni 1.0939407704059971 3.102824886744462 8.46524019319599 -0.3169098047847252 0.2944090525790478 -1.4039578231986982
Ni 3.6315785189391554 2.7158085838649493 7.4216114513303575 -0.530604215821525 -1.0334749702835235 -0.6885198293258078
Ni 4.035317355993831 6.894834366358107 5.979041722790995 -0.3803548606132482 -0.9763869670212797 -0.8260396527825581
Ni 0.5183885676931839 7.559866206173645 11.36479045987216 0.9171484930749365 0.4903795639735231 -0.01853559691034227
P 0.25601373233033264 5.433815349843093 8.06818764479223 0.3355248487827512 0.0677295421364898 -0.1853297438511776
P 8.43391609808298 1.627081683429916 8.0044676137011 1.4349727835229737 -0.12717319011510356 -0.7208967029946166
P 1.724165032296915 3.492266456666217 10.452790134620166 0.3908313346645398 -0.7148610383234978 0.38475941743884706
P 3.987111767255324 6.205695190474733 3.7889901583970094 -0.4623015747903845 -0.8380091664396084 0.33146790510455815
P 6.971062235341251 4.016805392577762 10.392539961244903 -0.835857153093612 0.6324695232994592 0.2029654546550698
P 6.448085643741562 7.820477954147359 10.274086103874968 -1.1844568327824503 -1.366969676010123 -1.3326919857741757
P 2.3889425369919177 8.450447880917743 5.691349642858337 -0.5308117038466407 0.4643671990701615 0.2869610809414348
P 7.057227340819578 3.834329026991203 1.2252939600856285 -0.1540841555733346 0.10824421442108455 1.0915078539575396
Ni 5.156163148793546 3.045108981177386 0.5133409238902843 -0.011998310012456754 -0.742035798966077 -0.13361740307855052
Ni 1.5282089053220111 0.9202480498750507 7.155774933309084 -0.019145719690515414 0.8550301264776371 -0.6165968179332607
Ni 6.87907467228211 0.7874506000466681 9.24489451345855 -0.3414900652272506 -1.044961630766884 0.3635670996319481
Ni 2.999165158332206 1.6978595141158868 9.42062100661406 -0.4965227007567836 -0.9485961700612566 0.13074393818549743
Ni 6.32114516840321 2.158215165681042 2.7259910720835037 0.3648909606496941 -0.10140919377712214 -0.02799597099229372
Ni 4.1446178740436626 7.196457652518059 10.305381132117057 0.42698593020822595 -0.7085903748234377 -0.20892141512818857
Ni 8.054538932216673 7.133691378128934 0.28518506231595836 0.24809268601101142 0.25573734704046275 0.33576678959022815
Ni 7.581484691419102 3.877902083177112 8.103577468474933 0.9097802256353233 -0.755866277091266 0.738614946209986
Ni 2.9376614761485933 8.33013828550762 12.31666144862685 0.5196145495792406 0.34841147493743224 -0.21650616945398196
Ni 0.03553152467842816 4.915117038306686 10.289893031616206 0.0560662468659486 -0.7888424749069706 -0.2974774070917264
Ni 8.678922569732453 2.4755527289311803 5.497608956451234 0.40955050834059786 -2.3717179677829154 0.2519146308602629
Ni 3.3508379628545426 2.936644135666454 11.727065405561934 2.178828666416925 0.48758914571257966 0.37286266600126106
Ni 1.2052668860229452 3.5800393234422097 12.763143119366829 1.422402403057131 0.5890261074038436 -0.28138924328061216
Ni 3.084349256917041 8.173358850492237 7.877864132397457 0.2661667699039029 0.7082682155973286 0.8604520688241568
Ni 5.6296079756690816 7.666260037131649 3.768450780734392 -1.3078476730369861 0.945598006664881 -0.5933892694685458
Ni 2.9852493938800877 8.362602346964454 3.4616672166467315 0.9780941795203737 0.37676200105566726 0.5626041657668892
Ni 3.4264390774335127 4.425004177638959 9.39873819451119 0.30059641233668233 0.2632279989905531 -0.2524491632074942
Ni 7.238304863243195 6.1084483404588195 11.449304203746442 -0.2036812497751718 0.12520166821102954 -0.014947365338451675
Ni 0.4408290726860958 9.228004844775606 0.24219334354841468 0.14722573789060453 -0.5584855156128252 0.041165932715348456
Ni 4.8304961103458925 0.5335178740061399 1.4228542149993337 -1.255007389307503 -0.7204791558412238 0.604620619407991
Ni 5.749554235192727 5.540890435588246 0.36280178272516683 1.6479076906859298 0.6020448882610148 1.0429674831549909
Ni 7.660092410458681 9.009094973172438 11.441938476987811 0.5362377599582184 -0.48582973981931166 0.7279415256565399
Ni 9.17214195222957 4.689594453569612 5.902811128788702 0.5332516807467009 1.0044233043332056 -0.04327089487349322
Ni 7.8829172262386535 8.627147205909298 2.6159393570883784 -0.7833513698854122 0.10769528389615002 -1.1064158814176235
P 8.455580000314248 1.4428068052052891 3.3377097289363657 0.32931846286172317 2.106189859904276 0.10154237692087674
P 1.9956223564820073 3.367823915547403 1.6972118678982393 -0.0956838612575707 0.22035048290073664 -1.881063809991767
P 4.871516731929291 0.8722368458358094 8.318841264457292 -0.8330407666907396 1.0858167171100332 -1.088831335566641
P 8.558222388244365 1.6056902831135067 12.198806187129884 0.5564322326282224 1.81147253205619 1.5746577329518427
P 6.199800065716623 7.827099750678427 1.4455745163205376 0.30013592776049597 0.21959329301973793 -0.39832404349715916
P 1.9871384635327392 3.098210520986188 6.0146840649148 -0.9581658160275628 -0.040863313873265104 -0.3296413934187807
P 6.993443725948314 3.7113852464041117 6.051815175833449 -0.8527181905150089 0.3592612731677426 -1.27106084322594
P 2.4236229473562707 8.622251254839002 10.14732366312099 -0.7605863082747546 0.38881867510988516 -0.13584423552654024
