# total energy = -340887.1073846011 ev
CRYSTAL
PRIMVEC
9.07618181586987 0.00000000000000 0.00000000000000
0.00000000000000 9.07618181586987 0.00000000000000
0.00000000000000 0.00000000000000 13.28390952204205
PRIMCOORD
 96 1
Ni 6.188385829095244 2.179899199738992 11.42631389687735 1.378852286380322 0.8191454967658861 0.028846749028363223
Ni 4.7991945142668655 0.35440765574419025 5.6305709547245755 0.0862204018518257 -0.01879810654310956 0.5451990829165643
Ni 3.027378602000767 1.3747964904448546 4.394808863271808 -0.7107943244532919 0.7880114943652429 2.3450152616807483
Ni 3.4775390684408842 4.557822534660662 4.922618788128296 1.440257686070997 0.5723980119288593 -1.6835688915329652
Ni 3.553125510727132 3.0060404985167413 2.6907094360265384 -1.7593596134110343 -0.2024095821515998 -0.7927109567234412
Ni 5.300544646232252 4.261839168979009 2.7637572702547333 1.720518986394753 1.6497750829119715 -1.2361208368156453
Ni 5.203729014643947 4.908045162962707 11.081370883546235 0.21346172620070336 -1.2038203249107267 0.4080901217449875
Ni 5.8017495592883455 8.176922811115308 12.2244778651619 -1.4897480794916407 -0.80560503907729 0.003465847061413386
Ni 1.9965330982129286 6.738819952401172 0.24882352488922574 -0.6996658186402983 0.4945270104829935 -0.7026637249263575
Ni 2.3117670455575423 1.5834669869149693 0.19800235234628463 0.0643372286254892 0.9071031930237926 -0.10619375964995906
Ni 8.331009150055463 8.85273531023082 6.784663746828144 -0.4469312629819013 -0.31780146336105913 0.02721409852094668
Ni 8.798250990700998 2.569884580641427 1.4055838068328446 0.04791636406530458 0.3832008147024755 -1.872825995463007
Ni 7.165963221718579 1.024964137961531 4.776628403381142 -0.10790328614189804 -1.0238688146523272 -1.7328494829356482
Ni 0.28092325716993793 7.549631580066832 2.401106626171882 2.0386150981780955 -1.0956272754425516 -0.5821867158845071
Ni 7.5445852229689505 4.0849806898255725 3.756543620771808 2.1495373736519756 -0.5650459424391624 -0.11582434076118762
Ni 7.78364277620832 4.224354538018129 12.181092808392869 0.10969200261120464 -0.9410196432655794 -0.08037422748369383
Ni 8.575784697848189 7.15691426843335 8.830651144600308 -1.349707803605882 0.47441764132762804 0.476830878754811
Ni 6.786297459557675 0.8341092788069394 0.289807023945848 0.4973531670778789 0.952237880578902 0.29209068885851636
Ni 1.8643929669394563 6.508974723719984 9.30192462521505 3.0323125314533645 2.4758890405758907 -0.45626282479547225
Ni 0.05377456211065784 5.175629155696034 0.922493137474504 0.44703436421866877 -0.442540075892741 0.5754635382280606
Ni 6.62732813479259 1.5314332364794436 6.879936427505227 0.4156653629890842 0.9930824253990896 0.42479072232911996
Ni 3.590700903506318 4.941844864100313 0.3612265911536112 1.375963137757985 0.1638936854645887 0.7543804365743588
Ni 6.22744971569467 5.7760821170710654 4.568682186221121 -0.7458168632750639 1.069156739955849 0.8626850719197335
Ni 5.348920695389996 2.876187565064611 8.936059197527756 -0.5522621604109328 0.7291797689390151 0.4155154676747811
P 0.28697525521466294 6.121058712274953 12.243553276515527 1.0277406389029076 -1.3286103595056344 -0.269400189239536
P 4.30766481104232 6.464410670931142 12.280363547166383 -0.9264096066618883 0.6554778112691744 0.519955220748111
P 2.240546246731872 8.69962012274655 1.2553121871161403 -0.2699894860841028 -0.48850780087210716 0.6363452042047815
P 6.377451772811001 7.9081226100166635 5.670542459507072 1.7996883949370683 -0.6651199623446287 -0.015283665631947873
P 4.571028379224361 1.3307043991112104 12.433540452687103 0.13806001223093642 -0.27281410001709144 -0.19879641087904473
P 4.406876554633936 6.192588101282868 8.01151212010496 0.7358306985966295 0.5872055092553371 -0.24178319885321584
P 4.783955604973085 1.3044107003476109 3.2261696745481414 1.3062168223017827 -0.5614939634218459 1.2757708471070996
P 0.20300060568046288 5.693806528775577 3.5029142576032153 -0.05914591423253686 -0.32774006263100974 -0.0007800726991341405
Ni 0.9320512645604367 9.082081348911316 4.3777256738300245 -0.9387215912600221 -0.11782054525560998 0.45982663088733067
Ni 1.8872830975165358 6.331072483656015 4.911725554695064 0.1323472781168753 1.1085776649556327 -1.362172511731796
Ni 6.414183080679931 5.671106998016943 8.958987448068525 -0.6299716965782699 0.2855300049218631 0.21438526645623723
Ni 8.848061076587998 2.75085457016418 10.051708913869122 -0.871785234448789 -0.7136870726200547 0.6468399330885183
Ni 2.698539458091902 5.353486014850849 6.991600692568592 -0.49854950137882525 -0.39033228354093424 0.7886825522903386
Ni 0.7242656958188174 0.19172617261034083 9.263055876524986 -0.20914227288974305 -0.6192309131219982 -0.8102939599125272
Ni 1.3721643977139457 1.261734493379559 11.246928608702241 0.2655893001338781 -0.33951314400653787 0.6215379639886199
Ni 4.009303485721017 7.305400603183951 1.5306653914965647 0.7767258941490947 -0.857113234258911 -0.6779582517598776
Ni 6.018697533588078 8.275599059978909 7.985622311432827 -0.4231806975295228 -1.0794185268931733 -0.6521135227826318
Ni 5.210427236835018 2.918046915667898 4.712081321055602 0.6589544569638651 -0.9323033464385041 0.5953307094656328
Ni 1.0623489309222722 7.274151309140778 7.0787565438344595 -0.20051930710742238 1.154629722118689 -1.140401751444765
Ni 5.130248246542427 4.389767951883026 6.7661456130389235 0.1713750814432984 1.2540062017364986 0.8296636226883904
Ni 0.9474898498544937 7.930740455138822 11.21329318645577 0.8597216184160354 -0.9740557477849419 0.44765297163927426
Ni 4.963872757403474 0.33417503120714626 10.206505917846624 -1.5651037707148208 0.24999478812973072 0.40088306247358707
Ni 8.544544479986845 7.088162191065636 5.0954556111125395 -0.6515897890686778 0.27802958277975987 -0.9440283481849161
Ni 7.464025033039468 5.842655910799406 6.87839529183037 0.08002918543944926 0.14912681156805932 -0.38839701419143435
Ni 2.3862552698422723 5.554995403856524 2.4088776530553453 -0.4177127324364161 0.12111875639090754 0.7373183388857496
Ni 2.6378561063716988 5.3006898651415435 11.19755236430675 -0.2389652697884465 0.46797368547449725 1.0477348226366472
Ni 1.0605790754652817 3.583321967677942 3.0316407769884735 0.07085291825681991 1.181258380449811 1.7849680580077583
Ni 1.7330061587579342 1.3200489616419435 2.522827300703686 -0.7881763020778813 -0.7496444645512703 -0.9515539671379998
Ni 1.1675055736130098 3.223415053362517 8.056518182948958 0.6519949949268965 0.6638683493257147 -0.36745615027370915
Ni 3.53800459179715 2.7884934962161814 7.2192068271921395 -0.48467197206578466 -0.5705810133247786 -1.0562819408757098
Ni 4.2691636477164 6.977677829640265 5.868525751871512 0.4383399217684645 -0.4845411029148752 0.07493917251105159
Ni 0.2009548342958183 0.19958160798483016 0.40494111332309746 1.2124782576960411 -0.5056678575911614 0.33828184270259803
P 0.6495505669883194 5.4361155742377365 7.917289553665692 -1.532579315724554 -1.3592779637928203 -0.6597005911012703
P 8.757852905372458 1.5639078150697647 8.037057941485708 -0.4525447525139367 -0.010699131585058995 -0.5290990920309081
P 2.1023704545409703 3.130502179961423 10.185477312163027 -0.11600688908563891 0.911444500711624 0.15338970060947132
P 4.350431779828679 6.063070986558475 3.4108699748033207 -0.47891861452177514 0.8929901506611782 0.4218105566548736
P 6.859977903659471 3.8797137615419777 10.090205539104126 1.6081517509442302 0.15570395056494477 0.40045086003217484
P 6.772764872448069 8.110594074296396 10.072882738462013 -0.23604089705279993 -0.6209720641828208 -0.8371339629235065
P 2.466670240862464 8.328640266597645 5.7747415650146685 0.21138324640511982 0.7875654079667598 -1.0927255284147246
P 7.114582956374865 4.1729651964925845 1.3056423382220395 -0.4125507286195024 -0.5268203232990604 -0.016719626747526042
Ni 5.327836724997231 2.8230465204457373 0.5458197924631881 0.03354646849687771 1.4367879823548417 0.5895323576163009
Ni 1.5140523482736123 0.9822062453570027 6.802171701579606 0.8378767546268021 0.14074115860752537 -0.037923257408334694
Ni 6.943043119774233 1.1259548131919674 9.373458552313881 2.126678466775931 -0.02051534634453241 -0.7142843398844214
Ni 2.940319865880488 1.457380668922588 9.12029388965502 0.2676001599163198 -0.12819314673918566 -0.16249140580042337
Ni 6.713914909457672 2.130833360762112 2.507922394901275 -1.0125629027212046 0.3992010467854738 0.05676790091866352
Ni 4.5147832804193815 7.024120652068066 10.125433831261889 -0.19471838415492917 0.0717386632958829 -0.5981638080390537
Ni 7.894762470361842 7.352923491249609 0.07704589232462737 0.7836421616529536 -0.003367373810336136 0.5109298773210491
Ni 7.643061795832278 3.459295942961134 7.914141933806798 0.3586035849790856 1.0612400562119337 0.9691958485894793
Ni 3.302078321289379 8.75234366300121 12.558514938405219 -0.22635272323075853 -2.2021172046312207 -1.546157568629621
Ni 0.39110719697671203 5.123622633806001 9.984811100449425 -1.8142092142610624 -2.2059633178501876 1.9749198740119795
Ni 8.902327567753881 2.3683661154539206 5.8408688105969375 -0.19579027706286928 0.625655071480787 -0.74794033737597
Ni 3.633567710292815 3.2097644758891124 12.066638525034742 -0.35188040732263914 -0.2021848677353034 -1.0993612885636872
Ni 1.113692891538663 3.514651575946704 12.094587719364263 -0.3883311939505054 0.6902645799310564 1.4270681839639163
Ni 3.08415919553376 8.322041882406712 7.874369197406395 1.851558344333482 -0.2575749144698338 -0.00043760175805085925
Ni 5.912996319987497 8.16373511891527 3.3637518844473138 -1.6469337568084346 -0.091497591090365 1.322322983835026
Ni 3.291277664910821 8.022627719993045 3.7505124979452935 -0.1314779881380445 0.6173282967826466 -0.5986664587070851
Ni 3.626996554647373 4.513231253326328 9.16642902951876 -0.24757769404780589 -0.297360679008204 -0.1800605250324383
Ni 7.618174905252439 6.414219385407253 11.062667595647667 -0.9296278564888698 -0.14598003840896148 -0.09521514915126827
Ni 7.8557621170352325 0.04752288806565698 2.5404813819826217 0.22472495781934848 0.6852519572078134 -0.2736440521175545
Ni 4.528470162620109 0.5700831493512555 1.261421365106399 -0.4543956896797465 -0.22897344868305727 0.08442114385955785
Ni 6.150147875042416 5.689912846770197 0.013114175127209277 -0.9102512517344711 -0.02038190609046167 -0.04230441719516585
Ni 7.9170717253017555 8.967567162753106 11.639826536354153 1.0788906794141613 1.6044992417933077 -1.0437113032995509
Ni 0.47856165462481065 4.788629838615906 5.836166440790441 -0.9092636910102211 -0.9756542026203132 -0.29483508437287287
Ni 7.166916220810805 6.314962260906484 2.1196869018558036 0.20704296715855308 -0.9103818637750644 1.7339730550171297
P 8.820433179095282 1.8504791801929605 3.469252514429436 -0.31839127442625814 -0.6748554444648377 1.1304117301115888
P 2.1423601116871285 3.562564739831082 1.0518940770714644 -1.2325662866951677 0.06585186549780271 0.1450860658397824
P 4.8965184120376914 1.102193369159139 7.920159442360567 -1.9055558815958602 -0.8718603106610984 0.2785705428848944
P 8.558240438369404 1.8774989735030179 12.566219709161318 -0.10492774845334188 0.7411487683754332 -1.599449595184542
P 6.186280154910516 8.070531807695591 1.2472833966686845 0.24372412462967058 -0.41906590403020083 -0.34789982540833636
P 2.100682284720456 3.1958960700517705 5.587384666337637 -1.639804601962821 -1.5696381682500644 0.8408173253123647
P 6.937370506130031 3.74825434390581 5.903621531774545 0.9355794460866145 0.25832413393103254 -1.0648066905172695
P 2.820260132623706 8.501360006836272 10.039620347288785 -1.2336011557175852 0.5635140791756682 1.401641516360696
