# total energy = -340895.9340270375 ev
CRYSTAL
PRIMVEC
9.03079201301945 0.00000000000000 0.00000000000000
0.00000000000000 9.03079201301945 0.00000000000000
0.00000000000000 0.00000000000000 13.21747695750629
PRIMCOORD
 96 1
Ni 6.4424226519984815 1.9992367738825425 11.460953978656814 0.16577367609612095 -0.024657650647680114 -0.4713875962520526
Ni 4.7541792685856885 0.3109599765386654 5.888386260695464 -0.6417314082173593 -0.4829621884635295 0.703232452945634
Ni 2.8841279769074535 1.5705360380754319 4.765151681090283 -0.16666404912087424 -0.166951498454306 -0.29507034031213053
Ni 3.4366589351532557 4.376656032090134 5.053530161770726 0.5328055943482178 -0.09112195291850111 -0.7082335057046513
Ni 4.991201440269315 4.395024663394123 2.72042138849733 1.2051287593095052 1.2794678363427126 -0.2964934459119023
Ni 7.0988799667075595 6.021768352028073 2.4967684015641587 0.6173108132811498 0.1297085549424476 0.12468667624782398
Ni 5.0921386045194055 4.346339662725585 11.644372980248031 -0.11329746057427585 -0.2060286669614258 -1.0665588973216855
Ni 5.517281208205684 7.70739280570726 12.664973509751588 0.20518328824199503 0.8983475583183496 0.0955391081495903
Ni 1.8373688547612548 6.419493470641141 0.2952084688098465 0.7276921286498952 0.00040546296853478556 0.44563311299576797
Ni 2.516204472504397 1.5728208284981995 0.45910018845975964 1.381639619317472 -0.08979294969443245 -0.8213751574273532
Ni 0.5976578267935074 -0.025595974289526112 4.643643275322317 0.6648050022073712 0.55969059166452 0.052412709273761356
Ni 8.657748221280162 2.407825935493988 1.359721225312246 0.020530772963500126 -0.1360578941992431 0.7387085343650569
Ni 6.849946180132114 0.6678144389607489 4.56970456738806 -0.3521534584783677 -0.3276886405677841 0.5829032823355574
Ni 0.8929051280097487 7.46292023047113 2.552413433769561 0.13233108016695916 -1.0065259524985053 0.23009342122011342
Ni 7.594236979631063 3.888559776083251 3.8899830289315833 0.651876209960845 -0.392037439157499 -0.3310958664771201
Ni 7.605001683915407 3.9237618040198043 12.643667161749867 -0.062225581599125085 -0.9929178747967674 -0.6006570067745526
Ni 7.779747512692294 8.871181963776957 6.6780378262597075 0.31201673835848204 0.39284168022634924 1.0361185785539573
Ni 6.885166269653037 0.8679087983212967 0.3934273646122972 -1.0498647244954564 -1.4082363959693942 1.0476666884028731
Ni 1.7160040385890283 6.622839818267455 9.227160439357109 1.3647685545937462 -0.5837756576381817 -0.4812986847181775
Ni -0.03625682446374393 4.965192758776941 1.0966867598193717 0.3905875940848499 -1.0580107506413585 1.6770292906422344
Ni 6.417551850321399 2.013369963651836 6.92360493350864 -0.3278238805940677 -0.5342829502246927 1.1494222097758204
Ni 3.413603322705328 4.039048897051625 0.36018140626298295 -0.14015443286611992 0.8552180741187271 -0.24548687295704816
Ni 5.927541066371328 5.533735311566485 4.612794089218863 0.28006229693907253 0.3924195050872661 1.7791200838674133
Ni 5.292251928543541 2.9353596609721193 9.19091806416086 0.4892747609451186 -0.3752033983192958 0.3508681640080409
P 0.10395796423592414 5.643748421962352 12.191258790299083 0.768156921533161 -0.3147544490046192 1.6125521940047713
P 4.020571896241418 6.022328261143533 12.651650382041275 -1.0814103605122214 0.38278223910781817 -0.536071152473367
P 2.435577559878038 8.376384859968914 1.3853632566419147 1.0119018720984378 0.43172961554079836 -0.006368365420189033
P 6.181441788648442 7.652720389820165 5.779605853432829 0.2747619677720816 -0.2872583004668795 0.34512149133225084
P 4.784974269936033 1.050768793876273 12.595132072231598 -0.8365683202280239 -1.6719901855564299 -0.6994459893200082
P 3.9339575683965022 6.183627240357176 8.262562561429474 -0.1160058606443744 0.1026798329594296 0.433546357034563
P 4.72905560472743 1.0310003897836322 3.7701137119451684 0.37126832493094764 -0.07010215613372443 -0.5048057667011822
P 0.11235118249252563 5.595280160306251 3.4591058722079238 0.18802348863325685 -0.05673036281250875 0.5023503631821542
Ni 1.5572427119793297 1.0943784893369235 2.522912544939305 -0.6424608301842161 0.12592466241998312 0.8593770905924233
Ni 1.7863177865402862 6.49034906612349 4.767530391751773 0.12952163574262207 -0.07504561618192881 -0.3074610006669995
Ni 6.039820905605593 5.614289977855365 9.29041933245356 -0.15425333416134723 0.4009856494897223 0.22297995010378371
Ni 8.542108927353134 2.349225125006483 10.216898236568932 0.9626099678418453 0.14576766528783927 0.42717516340089656
Ni 2.296440144686023 5.302221923115618 6.970883839833997 -0.6167395141587121 -0.4839163248466828 0.7660023370840033
Ni 0.6310518901346532 0.06994890394698988 8.821807010585497 -0.06784678444064444 0.5492467706233767 0.4482340409537248
Ni 1.3729242434864997 1.0414219239649514 11.539399954970529 0.2446057559036755 0.7987764461912308 -1.993874046516979
Ni 4.119693871262354 6.76197723345947 1.6453904683372331 0.03529147621244245 0.6598792827709796 -0.23916581583502686
Ni 5.416271797618114 7.966811342009319 8.231078510635426 0.28019188053840133 -0.3096022153797184 -0.5524938168057646
Ni 5.321213679080362 2.8935832163249935 4.959025630793905 -0.43124727658774115 -0.24062748798221784 -0.7067204114942344
Ni 0.6464963509291871 7.455812997021651 6.979924565890252 0.7361168623784806 0.10533372564250891 -0.7911852641075342
Ni 5.063592270423087 4.593864645720194 7.202454122275628 0.40833206255246457 0.1129066528937604 -0.5741844144053209
Ni 8.394717368104162 7.209516201764182 9.193495452250419 -1.556250434089249 -0.43349647763323407 0.8525487548166801
Ni 4.812563340060756 0.4121030428505712 10.369520430651368 -1.012604040371785 -0.15111298876015267 0.09995523493941494
Ni 8.055529844433305 7.39790755753238 4.625429973643908 -0.47645241236946984 -1.5136428838313676 -0.41175548641171666
Ni 7.383927891230229 6.324254736259692 7.114769645556807 -1.1174430857660627 -0.47495757299149804 -0.5652446887135297
Ni 2.2584837251330896 5.1394780171524 2.5200308191531184 -0.32205818175488404 0.32013371103866156 0.0057906385398480914
Ni 2.254130883299991 5.316698282987936 11.311861018160217 0.5229886082577961 -0.5619745026026902 0.4341973603550006
Ni 1.245409457836389 3.2632677252040962 3.827662435143138 -1.2724230136807892 0.29163303249580746 -0.751351419940048
Ni 3.8529062085374552 2.637397703625111 2.444956037562007 -2.4226805748737115 -1.7972522746917496 0.17857185630205374
Ni 1.1411850852310117 3.3525009827826193 8.350788885679387 -0.33860348770807497 0.29139803366686584 -0.9140235742927098
Ni 3.6464352068151835 2.68602851954054 7.044836093956531 -0.0072497395838778365 0.34310986021886075 -0.3878313714959514
Ni 4.055349476945283 6.746697133082701 5.9496096132334495 0.40742986245316926 0.8272951224562141 0.25696890545471873
Ni 0.8210480176740996 7.491845857839212 11.436224057337814 0.8466637567908127 -0.11521833174607253 -0.8176174901571338
P 0.23212477308178114 5.507654383736631 7.888415035052619 0.5897655566730294 -0.010636396667923617 1.0480299852795627
P 8.496259595430638 1.7700262374388132 8.048386487815087 -0.17765602935600372 -0.7905846544090578 -0.3402736763216462
P 1.709312221580053 3.088982466828637 10.463787451793728 0.1591839386937452 0.803215455799191 -0.08855342086037653
P 3.9284487851637424 5.992111230493019 3.743876551410518 -0.3812760868759369 1.2297213610472046 -0.15193908420587382
P 6.959263919529748 3.881091310946378 10.386346602650185 -0.8350565115691876 0.8264219758226413 0.029097431586588597
P 6.338008632757221 7.80134916759846 10.32603536012287 0.47065457474077005 -0.8199173419349041 0.019947132545888226
P 2.4004116551102244 8.437595569397839 5.751492997361384 -0.0683535488737339 -0.07542819633232815 0.4108975092867956
P 6.914579559799099 3.8656396255180967 1.63152549309583 0.4851080311619388 0.8086245426299041 -0.0563557530819094
Ni 5.373339411571328 2.6903271766205292 0.4767653210525487 -0.24706347341554868 1.674954924611709 0.2716694448896869
Ni 1.4865677323406776 1.1549931664816506 6.782865455783033 0.12643399795623386 0.3416962677007857 0.6826212044531856
Ni 7.005916991956694 0.6440923540495795 9.28567455423964 -0.032340106893602366 -0.10277444955576492 -0.5967700130153206
Ni 2.808784077709233 1.653393556371449 9.09367720315203 -0.5502039923303234 -0.6522024829520122 0.8418460236871953
Ni 6.342876229744857 2.0480662672260372 2.66452439718997 0.7913297601051984 -0.15408441268365075 -0.23227963023815482
Ni 4.176903939753391 6.969369375984598 10.480507963523982 -0.36225763679190515 -0.31383065163876916 -0.2835037185204537
Ni 8.303208350895057 7.068328796746206 0.44403682709542647 -1.4125594488247801 0.9723495637271123 0.13963764113070146
Ni 7.654707164100833 3.885064859507713 8.12339534462325 0.07176128900370222 0.31548772762621796 0.262891698697057
Ni 3.093190815986778 8.395620447322647 12.385053269031477 0.5704632567999918 0.042217771018630515 -0.030867379002817812
Ni 0.03819212322895773 4.86085098587316 10.264507669888255 -0.44999910327394754 -0.6477107657292458 -1.3298372899342001
Ni 8.58223273703043 2.140758318211359 5.879741986416124 0.1971755874461701 1.3960197992985441 -0.9341046613133008
Ni 3.547584155559793 2.4170373435225367 11.38053838656758 0.536178881695825 0.5342338421543122 0.31194860412470793
Ni 1.039362903346805 3.377055706733232 12.612671676813017 -0.4798382981225671 0.0622903733987895 -1.144181015981539
Ni 3.0017901682838906 8.563855074934256 7.878779179791381 0.305258593699042 -0.9446032468517797 0.09814646386545033
Ni 5.561821075261375 7.740165550546087 3.6024362842113655 -0.2765350005121044 0.4916391474122371 -0.17332372052923697
Ni 3.128239320456189 8.361122821176513 3.684543343676822 0.3572599264669976 -0.33968052282233757 -0.7333506124872532
Ni 3.3561494228252995 4.256113018006729 9.31594215732639 -0.29080436594692494 0.5600795995728224 -0.1571303985988262
Ni 7.060219145364208 6.0612690370446165 11.633442109387486 0.02812761147415156 0.40570388090099807 -1.2043499721619517
Ni 0.7331865374284559 -0.1449803377356145 0.1537492369471058 -0.4071881787560084 0.06474989068287558 1.6728484197916673
Ni 4.591236685194403 0.37781854339999893 1.5661651346579633 -0.1937025412959051 -0.8893494685847974 -0.07171578047774746
Ni 5.852224259549661 5.359287498931699 0.4810883612714374 -0.031270270868191306 0.4298056590452082 0.15268624678454348
Ni 7.9202576082964065 8.681047665117081 11.701459326886136 -1.2153908033571457 -0.19094477604510987 -1.1305407994902854
Ni 9.04180975131755 4.994895034272919 5.700314594970609 -0.21406079323728297 -0.8479035427351849 -0.08060074167220312
Ni 8.265324177679602 -0.08275547034432855 2.293826633427727 -1.055206448423344 0.8830682635617758 0.38864872519092425
P 8.513914794152024 1.672195665700311 3.6650350263991047 0.6304126407704304 0.3527522684046312 -0.8118967856232727
P 1.6522285841796034 3.3214621500432826 1.4672725417585226 0.8637114563017191 -0.4870422720701741 1.1377879679710017
P 4.6885434709861835 1.111202855177303 8.119549130231722 0.927704414213912 -0.719642004651909 0.05225252954681323
P 8.511738373235476 1.5324802798084654 12.517347149905813 0.5487351210942808 1.503822812417152 -0.8331911762256747
P 6.440426846925629 7.986814546698766 1.5405231033282947 -0.10580475174165647 -0.9458360908176162 -0.285693784193237
P 1.872561851905623 3.173068172861794 5.850253740694927 -1.1606417326407237 0.28484814836349004 1.643299759600273
P 6.870030661951224 3.9824348608447875 6.042832674799241 0.3706124365145037 0.7810934270891708 -0.4224510184523499
P 2.302824914760713 8.556648502770745 10.132134318042693 0.9138919338108518 0.20362648527783642 0.5471052988003416
