# total energy = -340889.2559102995 ev
CRYSTAL
PRIMVEC
9.09614480480947 0.00000000000000 0.00000000000000
0.00000000000000 9.09614480480947 0.00000000000000
0.00000000000000 0.00000000000000 13.31312737424831
PRIMCOORD
 96 1
Ni 6.693543477268176 2.0955060996006085 11.415526739281468 -0.6790054620774694 -0.5473328414301154 0.07800649858246565
Ni 4.635649935223568 0.2616569641810509 5.9513808600261235 0.16916059029048286 0.3923662832518275 -0.17765551513537148
Ni 2.8592911619614925 1.8103783537359428 4.509555541544172 -0.4490534515312266 -1.2214092416370836 -0.2285602724050386
Ni 3.7615013515018725 4.316657243341734 4.507851833677125 -0.9495893872124612 -0.179769990375213 0.8666761953569978
Ni 3.9105052947485097 2.5922920321087033 2.4631813569092174 -0.05339589912263707 0.585863650515462 -0.29817160494527356
Ni 5.338008733696744 4.684414365950949 2.7001286445241557 -0.24172406348050626 -0.4940297591316008 -1.0668666583700914
Ni 5.117654632900102 4.83517386508835 11.259364130304101 -0.40321093927581525 -0.23625352728423826 0.5559612065290748
Ni 5.704892626432832 8.12225670343647 12.17934090930479 1.282635949658049 0.4911411247298961 2.8900225403014805
Ni 1.5052936668125427 6.587355086238248 0.3256537985077734 1.9864600134410948 0.5532219532210408 0.15524552287128748
Ni 2.9117395312161234 1.4881201459743978 0.3851616855179575 0.16764595341816935 0.7239781701334176 -1.2319762185196523
Ni 8.197781991317358 9.020946685050811 6.711919508410772 0.7109928136173432 -0.41447545644604106 0.5670151503503912
Ni 8.693085252270041 2.4647731821987704 1.2923783929975934 0.5394819779271289 -0.3663636885404787 0.11609584925501942
Ni 7.028763690958935 0.8693112540703576 4.905447948742616 -1.0080668146230638 0.3396956923309892 0.4915159915708116
Ni 0.3286036781729272 7.792985368256382 2.0997467221719766 0.4130927171659015 -0.46490687362371547 0.19993232425570082
Ni 7.662437502224043 4.339997950158831 3.680214565687255 1.260783629669648 -1.2528515193067649 0.6857646351781738
Ni 7.66563024894766 3.834998199156645 12.600488761740051 1.333734053885445 0.8707385383518295 0.6791805542027528
Ni 8.270942281625196 7.518354573158252 8.983645215637111 0.1801083475512382 0.9145107983417734 0.3086308526053846
Ni 7.051376706215094 0.7597627472577971 0.4359809352905378 0.03621270247513118 0.24402880035428295 -1.0879851855162617
Ni 1.8472268351529582 6.835361466350547 8.816418966090128 0.12472318591271422 0.10116956696249027 0.7565345068028843
Ni 0.17822166903276287 4.749779260412234 1.2487059839678787 -0.11193529011942657 0.9647676376147966 0.29255554431007685
Ni 6.407824482010248 2.1849302962954193 6.80953114478059 0.9406825716411347 0.3501433700268744 0.5797541951836145
Ni 3.4560710110870265 4.539258091832773 0.13296016355684917 -0.4194207162664583 -0.02632089728271596 -1.0053105920341654
Ni 5.894419893479223 5.500129317329295 4.875146872145144 1.6404895438449878 1.193311454959603 0.09149810531099727
Ni 5.470475886221057 3.0021643038072243 9.41283315020629 -0.39047009467037913 -0.19247869619113303 -0.5306888051155313
P 0.4981030542333928 5.496881993738607 12.094656713515041 -0.7893677512828212 0.2764900062067819 1.3521963743556904
P 4.192913293404168 6.401175200372173 12.596960367283952 -0.0252294639907501 0.30228305601048583 0.1856138507504997
P 2.4119791594526934 8.673337522535077 1.3398466231320525 -0.3692379247644802 -0.9967639880157351 -1.3363025859435698
P 6.468504862047994 7.960108831370384 5.9409694130179975 -0.8959374062149603 0.43300951069448657 -1.1287024607299658
P 4.991327377921206 1.201646170721996 12.640187974847043 -0.550649050287542 0.3360313561055245 0.6783032938041221
P 3.967992928062639 6.422542043830225 8.294823299426291 0.7002162918271296 -0.5386563967020401 -0.8130476113982643
P 4.836165344840128 0.9946724985021081 3.8713909637336226 0.5146574626842814 0.47896463726836225 -1.3590249672417498
P 0.30036287830736125 5.87088816762738 3.228845682726225 0.45043747636294684 -0.6220791812040705 0.21387181715492845
Ni 0.6492827952472358 8.916231869431783 4.324063324203184 0.8646658497951882 0.49102593930827043 1.251648243027283
Ni 2.0512351642620223 6.559984787402455 4.414739150382808 -0.11504478228268575 -0.17020857193902297 0.3937063422194897
Ni 6.144127252615216 5.62844862795626 9.083919293505513 -0.6781436282978064 0.6705514177728451 0.23476408722290534
Ni 8.970117429519268 2.4938353639137456 10.139237606696222 -0.4965162729988804 0.34206110723937216 -0.09344340196282616
Ni 2.5020855669858837 5.443860567379738 6.861705720085417 0.6830297527455139 0.0658814331841575 -0.4475478135199776
Ni 0.8549257015250576 9.419876294901721 9.35432220063459 -0.3438673072101755 -0.30846604489274615 -1.587916397733962
Ni 1.6420451034018806 1.3171035330093759 11.331547494691378 0.9791100223793976 -1.9128169340336478 -0.3946977595984815
Ni 3.947699429656971 7.072261454014024 1.5836633190822487 1.338060706285257 0.3907868545798496 -1.7321020632466622
Ni 5.618160888513494 8.102754569603322 8.141270374309338 0.11459226812629941 -0.09224912454440887 -0.34902879680645693
Ni 5.648041723234525 2.9026615789934174 4.4847794631231235 0.13957901997862412 0.39015256342996035 0.9001869255199335
Ni 0.6482822193509455 7.127938954570319 6.566181081043845 0.4664554490577579 0.6726630647992092 -0.7417288092486194
Ni 5.174432766942316 4.726183861548809 6.99415740916406 -1.0929960084672916 -0.19807521644230403 0.941295008414153
Ni 0.8179225856513431 7.516890093891862 10.983276132855192 0.0705263881553366 -0.22260045527717792 0.7984285759335088
Ni 4.771864699286714 0.6800614194315742 10.520125923522569 0.018585476311671217 -0.3285499601268148 -0.5043879624374733
Ni 8.1581864742578 7.116796177543451 4.528806621788796 -0.4530725999929488 0.31211958248493343 0.9014601358054022
Ni 7.242104664337034 6.31031381284451 6.994903293014023 -0.021422431539834075 -1.0304948046092768 -0.506246870023083
Ni 2.934752776830799 5.211854305463571 2.2879404944329482 -1.7698463718749713 -0.9671970729918955 1.3314259745775587
Ni 2.545701579919626 5.699380362858724 11.309754042055728 0.04782894655782085 -0.25312921999365434 -0.24329500751205196
Ni 1.164324689790371 3.5891021245710673 3.494323027602202 0.03842102298035964 0.4026684365087839 0.002816900623504826
Ni 1.5308356406014787 1.1932959100602285 2.390504981489403 -0.06790617692367015 1.0185651430512264 0.3253815897011622
Ni 1.7564655052149232 3.451713957865908 7.9267559982892255 -1.5130409885813103 0.023067680452740918 0.02901361362353068
Ni 3.89235848644761 2.6006150043369356 6.616876623251065 0.9998056030555361 0.6554294745297422 0.4001490125210399
Ni 4.216217615643219 6.976087918091511 5.843424178503116 0.1279550625864506 0.3455040714826501 0.625758944048503
Ni 0.6215723006067037 0.005161152395955192 13.312807838453569 -0.23310752545608887 -0.11328949015447587 -0.2651416710734982
P -0.06291803158763142 5.793434497110005 8.058609161058998 1.3513391685617178 -1.0876352583760107 -0.6754665956862754
P 8.821450043619564 1.6040868923544345 7.855570480954884 0.383243752125269 1.1165426854389804 0.5221812818651523
P 1.9551616859291376 3.3415232632508203 10.089779140142596 -0.22299923337749336 -0.03478599733093364 1.7196874916323932
P 4.272231673546448 6.274575061057925 3.7488704452328854 -1.3721077685676368 1.6751834956827472 -1.2060155327898325
P 7.07166110847625 4.0788203527935485 10.449926428253297 0.2926797285927669 -0.3379668825653405 -0.16275545809508746
P 6.561740343293219 7.970596685992407 10.149142398455043 0.42853064898752646 0.22543175407838595 0.3304096390433729
P 2.402691995906218 8.536504220645133 5.739488902468744 -0.1516896871992291 -0.491896771948998 -0.603489076906709
P 6.984092525261833 4.038315221282818 1.5045959925284933 1.4996846218790625 -0.069525457694648 -0.04784771561089824
Ni 5.333924564810977 3.2217543284648804 0.3391824942400683 -0.055799623468123255 -2.3094029117937773 -0.21699570749589084
Ni 1.779624289141786 1.312892018100445 6.730131808952156 -1.2392786657183368 -0.22547803393528912 0.09456825959588874
Ni 7.064184077687608 1.0380793001120803 9.175060842284138 -0.35436717830023484 -0.3430013596654544 -1.199853626953495
Ni 3.052711578858904 1.7267393049505921 9.140526420030906 -0.03014232791133518 -0.10267854740784897 -0.021425259753311485
Ni 6.570827391660436 2.100554459804618 2.423468499585459 -0.7810389197021517 0.6648479396301648 0.3553639949958654
Ni 4.570585213531168 7.286994137502417 10.451004321377939 -1.8666170384388174 -1.7071135116221245 -1.6121102213713463
Ni 8.278364735546768 6.823618343785904 0.007666230594485434 -1.041772177295309 0.7762335278937083 0.3870279017580496
Ni 7.780341727385078 3.852471892763677 8.410155134919409 0.5263770651140548 -0.33309901295007793 -1.5015602416352205
Ni 2.9707371245192 8.250485052618318 12.393748860434114 0.4979478632390844 0.344028258268072 -0.09360435302072266
Ni 0.26522811051635575 5.037808676376143 10.043289655157599 0.3609265766853074 -0.6699469514196268 -0.22696490289346075
Ni 8.788358269885894 2.6377181778002794 5.744640958720186 -0.31730961132630514 -1.3338574668371868 0.09353647589726471
Ni 3.73592299313489 2.8565805108969973 11.5028342631484 -0.20703756784191443 -0.21503524133541027 -0.10508150042238679
Ni 1.280982743153299 3.149048845382629 12.51449926921287 -0.0007111671344116784 2.732861545575035 1.0081439477179024
Ni 3.211057262519087 8.788985903857203 7.885857913335589 0.21190312346433182 -0.958398500863659 0.11249604771890304
Ni 5.848729959596807 8.087800508026039 3.4996879336352196 -1.1266355508986081 -0.71341376435401 0.7597067338832787
Ni 3.2233370576099216 8.502848485951734 3.295398533660743 0.08879921832259545 0.44178082912921335 2.2652539851907054
Ni 3.633236617741978 4.487055318479959 9.39615173078623 -0.1885114840132689 0.696072444862085 -0.9756045803293006
Ni 7.210240870112446 6.024240067950624 11.318926594181354 0.7742080128232472 1.3069467584892718 -0.16403509613845943
Ni 7.774938617545112 9.270244717683774 2.98070286044625 0.910011110699207 -1.3789409894393865 -2.7006726195473165
Ni 4.769899932072181 0.46055326007452324 1.5525235779607947 0.6482141877282256 -0.7840373402088432 -0.1942347596502913
Ni 5.962877477074498 5.442859991483447 0.20333157595739157 0.16541654986701834 2.220774928941724 0.19600676394904953
Ni 8.109449331963955 0.09775626506755453 11.116154431111434 0.6313372094672289 -0.5419283825850925 0.6818804696324192
Ni 0.45681838313800716 4.788437874587085 5.6679440874261875 -0.7165312269370692 1.5425189434357693 -0.06909068415007455
Ni 7.275714918307873 6.276776328029764 2.439684196406519 -0.01940540110980529 -0.20982978587507087 -1.1036156929646672
P 8.9195792506121 1.8415508409776389 3.5905365865605674 -0.6021130224947888 0.30052467855848247 0.7864806595430132
P 1.9897725157962676 3.4207233935144465 1.3669649587648711 0.13396758732911765 -1.2701648137742318 0.18224519138858292
P 4.926526444419647 1.3118823460596432 8.04679963663942 0.0663455173047696 -1.0649511865149337 0.8931025078693264
P 8.709421927813107 1.7900666630412512 12.432157330634892 -0.3442964243277941 -0.6939443427754888 0.0897996345626518
P 6.6749509578862005 7.992745797878468 1.3575659126409012 -0.174427495116377 -0.07593161833130793 -0.3716372782345922
P 2.193608018159609 3.4848694046111617 5.690842721620015 -1.7653507979974628 0.20225120219686457 0.32270172887615395
P 7.076727660969284 4.163123420128255 6.135833388049421 0.6833904785190424 -0.3238949778533067 -0.8587664535916177
P 2.7738146919847724 8.567094554638079 10.103118636069047 -1.2950536065961116 0.8494361773296274 0.5596533106686813
