# total energy = -340872.49825098313 ev
CRYSTAL
PRIMVEC
9.23468901616899 0.00000000000000 0.00000000000000
0.00000000000000 9.23468901616899 0.00000000000000
0.00000000000000 0.00000000000000 13.51590083183342
PRIMCOORD
 96 1
Ni 4.784298404002762 0.1489555323735657 7.1480056875814935 -0.7032082845759179 0.9861664150055467 0.5564340324004352
Ni 8.857165607848852 1.7214014239074327 13.050602757248305 -1.1192012061077499 -0.7292689862187117 -1.8772683475050767
Ni 1.9632394574969516 4.854158825726632 10.987588950190057 0.331353491013881 -0.27277399080777537 -1.3277724369853714
Ni 4.250856598202451 4.184662347982133 7.62778009868937 -0.03191124688629987 -2.026586963368968 -0.20407591411042916
Ni 3.4462012133395694 3.3541498341269405 12.805708041624337 -0.7895065908535306 -0.23878863500126618 -0.7881482770534233
Ni 9.212257866424695 5.592296746256792 9.701267889927289 -0.5931025914660625 -0.16620819253037827 -0.006966918236136388
Ni 6.095873568070983 0.0017878357760398216 9.29948042679801 -2.9251183555633493 1.4861413359769888 0.5206154800399292
Ni 1.9726219014455904 3.5849893532058013 5.806120427520927 0.06529599299433271 -0.5182156123491849 0.850297239778342
Ni 2.508427787610913 7.828291975866927 2.1754249049456447 0.10524090881838649 0.7873322089100311 -0.42381781689288944
Ni 7.313402660118599 5.43470677973758 4.063271438583264 -0.4854021653635898 0.5725383941614655 -0.5918355518281807
Ni 1.247412545411586 1.2070477201168026 8.812515886892486 -1.689803559588767 -0.5878590836789359 0.8494647165747177
Ni 5.594882459156024 0.38384076867083056 4.916868827815236 0.901957387156795 -1.260528062015416 0.43500211564448305
Ni 9.209071898745284 2.6606893386199246 7.098267653026997 0.8263592409055058 0.1589114017586489 -1.1277537236634514
Ni 4.552914038277278 8.67318290037963 0.7598773017304459 0.9726820073658666 -0.3699061544760984 -0.21977841244735052
Ni 4.046936197342371 7.150789022823737 6.714023328450108 -1.8736814014847667 0.7055832125659978 -0.7990386987136819
Ni 2.2538181792369776 8.837154036946588 10.485702999918184 -1.6397107566974343 -0.5622244138299672 1.024568668932829
Ni 3.461207582844036 1.0362244443668822 9.296547489595167 2.320300275432572 0.839744146852844 -0.8429652248933031
Ni 7.598662201037349 5.052492239786587 0.20604714971969687 0.7370018360865952 -1.1378036517002854 0.569347912248626
Ni 2.055207724509248 5.616297702775013 13.22074081907993 0.32851782133729873 -0.49860298032458 0.8606467013334662
Ni 1.9578371644753438 2.387213260770527 10.973451564913509 -0.5296310532749782 -0.8931773269713198 -0.013520917304570263
Ni 7.027819905087445 3.1817658959485553 7.9987643334376655 -0.5338749161529966 0.26936419379527804 -0.8069702948559329
Ni 6.3220957426869315 4.4512493478928645 9.907790626126667 0.2789662356614163 0.6688532041348159 0.5180567181738175
Ni 1.5693984441883448 6.97407401553914 6.031240903748024 -0.15319763920332324 0.3291729384227944 -0.966051903643859
Ni 8.411010081775443 6.916597311664802 6.3913318994394155 -0.14536014543677547 -1.4594738539881318 -0.20215992803463892
P 1.1026865005660484 9.09641792853914 0.8647593577366167 0.8428734365104452 0.33476148825416535 -0.4197534170155287
P 9.311521537688394 5.0802794187643965 5.241818138268291 -0.1469891963997662 -0.11657998798028954 -0.15422710890910213
P 7.495464552291249 5.301579504182879 7.683776481928898 0.5047088361120018 -0.06599250484072505 1.2988639814811371
P 4.041866353122093 4.743859701196572 9.940607016693479 -0.6014139395452353 -0.7568762064130191 0.24565373755221565
P 9.020499550879927 1.306385268891908 10.772767922521933 1.2581927290140202 -0.38814633163320894 -0.26822262399166713
P 7.335002597516104 1.6734918577602498 1.244116684933959 0.221082990191387 0.45411209700105665 1.0435896901200221
P 3.15127295311548 5.4050726629746055 6.144219935004359 -0.2984927357301182 -1.168778245704929 -0.9230064945176103
P 2.6382398098412425 3.1966429798080607 2.2982979819171088 -0.37106546489152226 -0.7240560745592046 -0.24307183575765237
Ni 6.5959504427822875 6.71259379860439 1.1806679077312896 -1.0822323421928846 1.0575968030323915 0.6161237349515841
Ni 7.116288224996852 2.2236669198941574 10.428247535828374 0.9590389626611354 -0.37309997882304774 -0.09166085614110664
Ni 8.050931091179654 1.0422454615465204 8.385467855675502 -0.3826369717792055 -0.35171071451399427 0.7805866626560815
Ni 0.15042846525723488 0.20572301213840039 6.686991547026431 1.013771835427641 -0.4183771054932923 0.0598748219787614
Ni 8.2768669904389 4.100414280911827 11.711433419200823 1.4457351642458003 -0.9002460608926431 -1.286738658972513
Ni 9.075547531566773 8.90311741994376 2.483479352008903 -2.0285482008603966 2.1502891642163355 0.050446586686326025
Ni 0.6662680304960303 1.4810686446128234 4.622870500765976 0.006933236784723544 -0.6909981156629712 1.4136277421882943
Ni 2.1199336591903593 0.9777134553328516 2.8466381113614547 0.3655769309731252 0.4732372478662817 -1.1612073753362067
Ni 2.4889241245995697 5.728212897867092 8.631713606289317 0.29138312126853044 1.2455560140866162 0.1569995294479167
Ni 2.4994609046639367 7.999623159507768 12.99482246572964 0.5962388231021989 0.997885760325004 1.0233054859496893
Ni 8.200459174266621 6.447031849164425 11.813883981612825 -1.0857200436311687 0.588780824162257 0.9439797543351678
Ni 0.2242034716167624 3.1021259386522364 1.1730465189608057 -0.48673965322809076 2.248529216236857 2.190621545286795
Ni 7.310844651286145 8.916082923195619 0.24829123421088573 0.056420544881573796 -0.2601043657599069 1.1969169129226742
Ni 9.21624725204065 7.220289291679499 0.8998114664923726 -0.230970424508428 -2.2904423115308745 -0.041123766623503366
Ni 4.76302168071766 8.813540937363252 11.32740610981369 0.08380870708653952 0.34655205313119025 0.6757298766499911
Ni 4.986981356546781 6.110584427529824 8.531668680342495 0.977495112483794 1.2069161902272312 0.5342276715067251
Ni 6.147366193521387 7.543457230638763 6.873889645789537 2.444689217934319 -0.19936462467768892 -0.36958528080156994
Ni 3.322890412113021 4.363113476784786 3.939385316236637 0.9240724738882795 0.7194157475737158 1.1267761902415305
Ni 2.117975905138084 3.4011082273147633 8.517437101238905 0.2902631487314743 -0.40955822165008177 0.10567516814232769
Ni 4.699828704398237 5.680451086742723 2.5154987889214175 0.7283230773656747 0.08822869053110612 0.2525594635331134
Ni 7.370870129304011 -0.09494183684641222 11.369494128062033 -0.4642093333360586 -0.23254111142965755 -0.030760421111308313
Ni 5.383112572708992 2.408092892431819 5.995153586363683 0.9310278221601902 0.6982493979087459 1.9473242237818982
Ni 6.40764590089578 8.622179713442295 2.839812752776377 0.6062581550114139 0.7710327004190591 -2.2188630566309913
Ni 0.6141345176341749 5.097936143990575 7.427649614164449 -1.1283738737459532 -0.8829296811013827 -0.7164738913365726
P 6.244755222933144 3.8478178347237213 12.218833402230308 -0.2727750192490399 -0.805886831983767 0.0515804431804531
P 1.0944122192885088 3.7481570718362125 12.646287759760025 -0.35087716286910536 -1.6083983197373977 0.6289795078683298
P 7.4955199604248035 1.2598424367057472 5.90394810465666 0.43915290458806305 1.2738291499996965 0.9133849122674462
P 8.929408579315584 5.2278866865547915 2.034575582511169 -0.8725537371836972 0.10973159759988844 0.07987826168388179
P 6.166565111798179 7.406737661091917 4.454097325957589 -0.2707129945136886 -1.9956159689087503 1.7489026797437686
P 4.392987695459831 0.18766919528841147 3.1973485100419934 -1.374403249470033 -0.36541597991522873 -2.025974012375317
P 3.9602686417734985 1.1368917883473062 12.560177979402274 -0.6859574679152701 0.848205647356636 1.1185329763961318
P 5.242080403433786 1.9776917456658685 8.293869899689131 -0.30955644974344754 0.30505650499056497 0.568362408406905
Ni 7.891438778741722 8.630888025099349 4.995909453800269 0.16403098237340136 0.31476087676252246 -1.599423112821981
Ni 3.1304210255209655 9.145851218359084 5.218016651030869 -0.8245988065709735 0.750715586128262 0.5751858590866417
Ni 0.23125508008052278 8.583237030242088 12.47271624058578 -0.637781679540992 1.724867493171436 -0.5510786816257929
Ni 5.99772729416731 5.031981995682329 6.186876810090531 -0.4984443432595287 0.6463660787758932 0.08040610916289377
Ni 1.904469897172998 5.578832569802938 2.4155886894329117 -0.3693731647907639 -0.7408160676263629 -0.7458916823770573
Ni 2.423847271739277 8.622308999087258 7.703238588840075 1.2202419608018598 0.6004526040732304 0.14066582528489968
Ni 3.934743961582517 2.0024684160538584 4.267821645228085 -0.6643838555095525 1.3926148873820534 -0.828155156463664
Ni 5.163280802829716 3.945751710782101 0.6685019017471875 0.6428506094234671 0.758841814779822 -0.5625339746505861
Ni 0.6204067183525955 7.41208454597997 8.080873646552751 -0.7864140679711359 0.1199656166230708 1.0256454469367755
Ni 1.839688554358332 1.7330186625761212 0.27970210512318866 2.1656257945734056 0.048579708680916336 -0.7182746919907372
Ni 3.35386355877024 6.833688274488741 11.174405783690613 -1.0659662580430094 -0.1237464238217417 -1.1461651362911034
Ni 6.699249673106572 3.672820479579328 2.3366828899061955 1.1472704535401403 -0.48963522960833095 0.9558703351251666
Ni 5.009957262594234 5.594199092175512 11.853364123708513 0.46744352400264017 -1.7336321267379433 1.3380319099298505
Ni 3.2183444987837504 7.027090364662304 4.325331593982556 0.7101322653892608 -1.296003629214207 -0.6319383333863375
Ni 4.94072479971732 2.4399895079816205 10.678332146628655 -2.1761043255072265 0.26649252867443785 0.47571964796850325
Ni 9.158031773052247 7.898540254525681 10.16626864569163 -0.4662677585269841 1.9201965143271702 -0.15775543377733478
Ni 6.2245866623191395 1.6744799694753132 12.811600696627906 -1.0019054230073583 0.41804363341327355 0.41875300077547234
Ni 9.090286095092392 3.2454667801589 9.41323055457965 0.17334994578148208 -0.21077569472810795 0.40954845145806884
Ni 4.195439229958572 1.8122338241818527 1.449269916765636 -0.09482922656675927 0.09997786064723427 -0.05848642627166701
Ni 7.732205037593713 1.5267618854178082 3.647333661612942 -0.5387134751922206 0.025814647070258764 -1.551825822658992
Ni 6.278304847800667 6.8847284001817775 10.380278867672065 0.8417004992482665 1.2967675039634248 -0.3164768310123646
Ni 0.8205390498153012 3.599183070084795 3.720549045823564 -0.4968209487234927 0.780825775250081 -1.2760570108889506
Ni -0.11106837411758133 6.932628731640035 3.660308399553727 0.1267427874459043 -2.33977123967299 0.2838616160805047
Ni 7.734596822025502 3.3378967816174874 5.167615565811498 0.41621866438939287 0.3448993480191157 0.45956386414424727
P 3.7247656047870965 6.43549772269607 0.8163437306362986 0.1258480435457768 0.5811317922574314 0.1414016750096597
P 2.134505998315312 1.6224517320672125 6.860901055815362 -0.39360426942398663 -0.5199536780862143 -0.35548586528571036
P 7.567993799114682 8.097603209010776 8.633795105173197 1.9116553096253783 -1.6185912011099994 -1.3492388343892636
P 5.627748717043037 3.82777855975468 4.375421470185127 -0.520707268422787 -0.04791816383751747 -1.5826140116844423
P 1.0499379574217331 6.834011488601144 11.684901234448034 1.5777358576565343 -0.895558939829619 -0.8279039596848065
P 6.061538994644764 7.447859730878618 12.597049321876417 0.5978516761152736 0.11138918780796944 0.2949530980079759
P 1.1818554887271508 8.537479146614624 4.028725390780643 1.8341134093841571 0.2108314876667079 2.4593414206298547
P 3.9787841930697794 7.943771760884375 9.428854724773254 0.215318576903784 0.6076311240995406 -1.607786911405644
