# total energy = -381170.8597327415 ev
CRYSTAL
PRIMVEC
9.18990951674824 0.00000000000000 0.00000000000000
0.00000000000000 9.18990951674824 0.00000000000000
0.00000000000000 0.00000000000000 13.45036150804930
PRIMCOORD
 96 1
Ni 4.410182391814516 7.40673615681045 8.548659597643312 -0.2868430673063318 1.305453718883513 -0.13867604854838053
Ni 1.148573259290097 4.9136515794592 12.983297257418789 0.6281811803367504 1.1616786585456702 -0.24067556761133393
Ni 5.796755925296855 3.967660683451743 6.737043563517467 -0.585375912245766 -1.2016703684472594 -0.3188180775510316
Ni 1.910563788864737 0.9116482045001433 0.15836603309310562 0.13237453181038494 0.6821807744816575 -1.0577017040413719
Ni 2.6290676670578925 4.203482949111144 9.077205291125836 -0.47871755425456264 -0.7612331978301341 0.6789450411531791
Ni 8.334889438631208 -0.042473923363260065 5.829211928399981 -0.5557974272577009 2.1851558941865337 0.826547445656912
Ni 0.44945549502112636 2.9023480035184197 13.538729868895143 -0.3557823134802066 -2.4065330185795717 0.3827470149945086
Ni 1.4340577954620806 8.46289568696018 1.7405302467703778 -1.2262976800776364 -1.9326673931006715 -0.0028361838972144706
Ni 1.9862426929489567 1.4242705419284203 2.5301741327845835 -0.6889129509991685 0.7418432233392966 0.502228235781993
Ni 3.369471099401952 3.172724328601823 5.943849615493822 0.15367714994290307 0.598226542956189 -1.113870537923456
Ni 1.209254231198792 2.003970028222601 9.683641899890281 -1.63756722799187 2.532700136027664 0.44498108123406593
Ni 7.943619855110899 1.2482837765109573 12.454712047325753 1.6251377439792654 0.2833926468638861 1.6308895588613783
Ni 3.8889031597113957 6.559803294454943 2.100448454299998 1.370781850667362 -2.8109397779357006 1.1184445304473836
Ni 0.9734687251770766 3.9407066791191365 7.1032835097379845 0.022231300594374614 0.10238826986093981 0.09316803681425244
Ni -0.03931535149516702 7.492808848450135 10.170127215933503 -0.5475552418535667 -0.7702667687873122 0.2987868699317693
Ni 8.529274402710069 6.130303687742121 3.2471056174757584 1.3647083907797724 1.7003929050688393 -0.07806486262422685
Ni 5.86246377765899 5.231429457337553 11.633136902036377 1.5510724894327352 -0.1461805844555418 2.759671723789344
Ni 0.9483986522758318 2.2866332622022525 5.313457669840933 2.085439514730802 -0.34191404013854665 -0.8121487537330788
Ni 0.6532095717549792 5.019096600158938 9.937490172879517 0.11599480490078087 2.1017639629224383 0.48725798762540606
Ni 4.662059429232888 3.238505700239327 10.410499405747377 -2.094148869579342 -0.8517157173924234 1.9740369571863938
Ni 0.48973578700552756 4.23842298473084 2.119252846957816 -0.5006290096156734 0.6041303100351337 -1.6234945519488877
Ni 8.479180206454686 6.127344536908469 11.94584470688701 -0.8213713007726111 -0.5940940088450543 -0.6720570557840941
Ni 0.1420318880877271 4.313394265789622 4.349107172791648 0.40749105470840785 -0.6582391760643955 1.95097878981535
Ni 1.1890731901096667 8.454440970292605 6.76060924824645 0.2463206817122532 0.6182592932373481 -0.7605436279622773
P 3.0686577943152775 8.99869497594892 7.80844547743333 0.8760100711634138 -0.1224989245678858 -0.5791700405453702
Ni 7.268143132828166 5.150843141622371 5.0414777055635165 -1.3338410117769544 -0.003812688877870853 0.04282660824722302
P 5.532500079888023 7.031898131335386 3.8748609781156835 -1.1148460144628478 -0.031144543923604426 0.45306025869777455
Ni 4.401644965962149 1.6728484018645535 1.5958185810954062 -1.546025928147763 -0.03173666898164857 0.8757997549248207
P 0.6864117955031125 8.729963644651924 4.459547828252792 0.5332259697150882 0.6717377247714624 -0.7219233444869179
P 8.706318007710978 3.533198525651431 9.04804478954118 1.1942661055633883 -1.5777366289874828 -1.1778971772870617
P 7.793594583808546 3.49233099845501 2.9750990024610204 -0.38558602710520046 0.4535917057212124 0.8888653298595273
Ni 6.4474474618704045 5.570390076431949 2.5758654434362334 -0.5049068110554208 -0.8273748266542138 -1.0654620647130812
Ni 1.2862748620585183 9.081808516754954 9.085355821791566 0.16871321834041914 -0.5171298354841739 -1.6148762141522575
Ni 4.77257727993317 1.2927169885628336 6.989318524013782 -0.37854120444327716 -0.37674734576764796 -0.4213513576302679
Ni 4.5618526569032785 4.018039766899186 2.5347341658394216 -6.530602029666172e-05 -0.5540637323960458 -0.6572511011195131
Ni 8.892680180865064 0.764787938002477 1.4226181962144744 -1.1132794413066762 0.5141596971122564 -0.4018909349128111
Ni 1.5177503005616542 7.112732574604943 12.11424244510438 2.474631771130022 -0.8634977976290161 -0.6477822423971296
Ni 1.671368826447728 6.369342421698968 7.520217753299095 0.3925385471636336 -0.2611621176004599 1.7819693803907501
Ni 5.4184533039699705 8.583430538929656 2.292707792329717 0.3674456087507478 -1.5282356940438777 -0.7149134888279882
Ni 0.8883793538454688 0.14094839776695847 11.303226505740053 1.63560341939728 2.3026293405153697 0.009553448016389998
Ni 5.2980471107323925 0.757197072820502 11.840487909317716 -1.286362763690333 0.69664194421231 -1.2053046227657371
Ni 4.594973090457562 5.486320785046104 9.932365879386213 -0.1216059804399712 0.1948384546725612 -2.716037532039161
Ni 6.95811234859195 8.356062989937831 12.051739114157447 0.09694498735818143 -0.8915392771472647 -0.6532229537967267
Ni 4.289987566493628 7.268804806306497 11.273891395876392 -0.10147501401805104 1.2857732097354502 1.417269709816256
Ni 3.5953039335204235 8.241501579092187 0.7648274546129885 -0.529744696034707 1.6294129743158519 -1.28377751946166
Ni 4.344355070629906 3.193438384437383 13.174561328258184 -0.8187639450567512 -0.9629354695020643 -0.7470134546863263
Ni 3.7878692955338713 7.414262692626477 6.2599595248122135 0.012552896964346123 0.34402671560617526 -0.6874091127601322
Ni 1.8889675017247352 6.8935624248168965 4.668109146604915 0.8496428940237948 0.15556562521486755 -1.0498012182473728
Ni 8.02398561299997 4.557634488478913 13.581905901338189 -1.5001420211314551 -0.27067571351784997 0.12433700621788911
Ni 4.326940192276584 5.250627178118601 4.7994256003074325 0.8924196228696889 1.127327177648994 0.2618897397951038
Ni 8.475632901418072 1.5351743688243964 3.847489751895351 1.1968487786889002 0.6899053968194248 0.03987678159027971
Ni 0.11677158406146179 1.6208335145401234 7.255461057826802 -0.33623884413064026 -0.9679131252223137 2.7949104923869803
Ni 2.487304124325267 7.22508840718948 9.834756175459056 -0.9036432594996501 -0.9167083202137244 -0.17935707120751046
Ni 7.978311763176222 2.871258539946238 5.92286629531222 -1.4404806007150803 -0.45129031128154534 -1.4293994032002544
Ni 2.538868706088054 3.7217019477006734 1.1563166769684654 0.22160569546407638 -0.4916525171486758 -0.29506956898118214
Ni 7.882405868455771 4.566806018081347 7.378976197421598 0.15453924083288226 0.2468685837959232 0.6082461319757202
P 2.369268927718379 5.1870789544704685 5.96327157006475 0.43490544216561877 -0.5989773050792846 -1.1079675421754596
Ni 6.3687083179489 2.8878095668139587 12.195335124828675 1.0074497498643553 0.6162798009134741 -0.33473217767812674
P 2.8563616967743477 5.189982965847592 11.14309968600183 -1.0806462286526872 -0.07345127511161545 0.013690353002899001
Ni 7.556301932641741 1.1003446146472329 10.280326176776867 -0.9008962928821324 1.1150694433275634 -0.09271500843723388
P 1.7964710633995777 6.255479443969341 2.528170732530745 -1.3918754381128675 0.4109016230518537 -0.9748124234453082
P 8.283765972520643 8.997812744644477 8.91762986595289 -0.02603987570718741 -0.8955021184497545 -2.0755826765413805
P 6.3486559355916725 1.3034140431292007 5.391980850891039 1.2614184350401694 0.44956587239127094 0.5147083705268749
Ni 6.759022150889395 3.507356500358799 9.781062291683359 -0.1340629752564014 0.10027816549647246 -0.07773781830211128
Ni 3.238827347069072 8.535128375011421 3.1030390834421606 -1.0477289090993762 0.4754486536953037 1.2520747890417403
Ni 8.7771170698925 3.2572255457304693 11.195609909444068 -0.23062024025786088 -0.026939247593005217 1.473351126190856
Ni 6.136810143612385 0.7181886643000056 0.44655699758965545 0.6077959318121792 -1.0492173207194446 0.29258665465832834
Ni 9.14113857197872 6.487524656856596 5.808673399834369 -0.953235725715797 -0.33294089010565886 -0.313880273929782
Ni 5.761779130039473 3.3010246540322776 4.44963467296006 0.3718640495334177 -0.8415842853853763 -0.37790151397674915
Ni 6.406919961322572 1.3379313429155186 2.9288562972440944 -1.0022041851946997 0.777806528807783 1.25753658348726
Ni 8.477645491581331 6.632072742143869 8.00081325639422 0.3668025758501102 1.8908787391996595 0.21902122256635184
Ni 2.419648011165822 4.468804824012844 3.557015094907613 0.10977659190521094 -0.5083073520965374 0.9797823658560738
Ni 6.100923547322297 5.998612285735215 7.849052930193128 0.9571152632758613 1.2786335133668754 -0.7925520625480738
Ni 7.036116299759752 7.56198129666409 5.272716963394525 -1.9104566613315874 -2.257808070435621 0.7823586669548397
Ni -0.15414878365968138 8.234296690105905 12.777453395282537 -1.3985410230585011 2.0447849744342332 2.2025033843260458
Ni 3.9992464021326737 5.31155627758167 7.535968339056223 -1.197864621547924 0.31262583269739064 -1.3180184429224011
Ni 6.607351885800632 8.425658173985166 7.637222761059857 -0.040368890735349834 0.46465721950675465 0.2306346384355641
Ni 5.213343715596478 1.2470063791013997 9.356515127157662 0.13976259674433994 -0.058459429688473515 -0.3430558670524737
Ni 6.795184444462122 2.7378853845152387 1.2710710759119568 0.0246818190173962 1.9144902079710124 -1.5584690390071225
Ni 2.4107613687554466 1.9227863683950361 7.683007808787604 0.990145968478585 -0.2982559371289638 0.5196585154432986
Ni 4.84386340731402 0.0016312089222767455 4.564555409264076 1.7500445066576957 -0.4165773332803922 0.7973029469694979
Ni 3.2341221134453777 0.9984560888935299 10.322439855690813 -0.8866809206136987 -0.6977423763653403 1.2560499716394045
Ni 3.6595873499222598 5.89203690617666 13.025101236385238 -0.9660789002270523 -0.8256485879917265 0.9137546369020392
Ni 2.085025029318268 3.162440819959414 11.68243249516305 0.6956001332113568 -0.30152920856359683 -0.3240497582636161
Ni 7.267444699712149 5.7954417682496135 9.797982752909814 0.2686028901492213 0.33590537205062154 1.0132483588240033
Ni 8.966006468137437 6.653981486204193 0.8099829935453774 0.2714079636981842 -1.2751252431033009 1.887604439323762
Ni 2.8930661950029295 0.6858999175483472 5.496194423728324 -1.4603254033551494 0.09314232578263959 -0.5743397090362624
Ni 6.803207235386897 1.8897854036632287 7.928194592147286 2.06021416450511 -0.025441580001556184 -0.9787202431401466
P 3.499407228709394 2.2820842570387203 3.7439617463008923 0.6500072750729063 0.24651608555251092 0.5559642918528683
Ni 5.634728632290313 7.204760327549614 0.04406285870219894 0.6065929126430134 -0.8294857023496296 1.0426160133528433
P 5.272287794624552 4.828663297131226 0.5708027349834421 1.5377546892779064 1.0766206524330622 0.5986577169563367
Ni 7.666406237418065 8.62575926172406 3.340827989717715 1.2153164984757843 -1.3934309555254454 -0.45425350767492734
P 7.416403941521634 8.183504060734505 1.2086853758056149 0.3992642959232414 0.012623088080649228 -0.743631682698287
P 3.3330882480031145 -0.18015071337624378 12.305722478815175 -0.7239339471590435 0.4940307875728653 -1.5700405458948057
P 4.426430151671334 3.338997359760996 8.28204654046792 0.41045347977084146 -1.9899947660672308 -0.279999304911621
Ni 5.801433589192286 8.37533422999425 10.077804466896406 1.6387309092826683 -0.2205749402067169 -0.8901354548212025
