# total energy = -340863.06259382976 ev
CRYSTAL
PRIMVEC
9.28966108532162 0.00000000000000 0.00000000000000
0.00000000000000 9.28966108532162 0.00000000000000
0.00000000000000 0.00000000000000 13.59635801170089
PRIMCOORD
 96 1
Ni 8.972595495976313 7.212929346592882 11.902903839055528 -0.07509909512768358 0.09362492184601297 -0.9702415162451742
Ni 9.135043796354665 1.264294981219905 6.065266987096557 -0.4977755993272783 1.1053180203677544 0.8801220364492585
Ni 5.915080110156725 5.429202975445859 1.0211845551375893 -0.2373588445332751 0.16518283658965743 -0.35226735834841266
Ni 1.7530333314918463 6.059636523617439 10.072413314874558 0.8748553887336804 -0.7271084882322832 0.9937593968614562
Ni 3.6243612050445337 6.8207663111681605 1.0265400446536939 -0.12153193266892619 -0.546606247676736 0.3134478143780537
Ni 2.273607349711212 6.44471154776586 7.489607962382818 -0.639719262883337 0.20805958134852556 0.030113788666244916
Ni 2.331435488892046 0.8551151449355128 11.89618741421573 1.3333273053653294 0.14346241419343037 -1.341352232552335
Ni 6.171623385918637 0.8166559487574162 3.444120417120311 -1.4533610562221744 0.7939394298139036 0.766753356317415
Ni 3.1271599736812283 4.644170890367061 11.391409535412121 -0.09093220550519823 -1.3847861353662538 0.09334518582206505
Ni 4.210752470829555 6.357249390273885 12.338789592531416 -0.1314175672137543 0.39915245293572543 0.8544092050641866
Ni 8.783913193180826 9.192295976558919 4.30606160489439 -0.7095272848154104 -0.7310348198698828 -1.4405672468916157
Ni 4.550308156506315 5.914894316938473 3.2199850524180387 -2.5472163273659683 0.5422076043884082 0.5850295846499409
Ni 3.993086425986806 0.4589863532672096 5.124466796801646 0.6089223321071384 0.169358822344218 1.2530806045984355
Ni 1.3581855840633885 1.275739843464208 0.35955260975718734 -1.0644539351635411 1.974764579381038 0.5760181251799499
Ni 8.909026346351503 4.058086183392154 0.6719713379761075 -0.9356745769035821 -1.0285075989759191 -0.714225461622028
Ni 1.610938678172966 8.251522726280653 10.052127482339749 0.3836294175994619 1.2145305122393792 1.8238210263192138
Ni 1.8630693650014005 3.633966714428145 1.5619087768424404 1.1818841869592678 0.0004990511236055922 -2.129765333231371
Ni 8.227629718413487 1.9097592007480462 13.270670779384155 1.0504190543370295 -0.6481249704485289 0.31219234470439783
Ni 6.361792034460138 3.2760453691272073 13.4230453714689 -0.8802356792089872 -0.22564695541298557 1.0167933958627844
Ni 6.31944976002058 7.818875348598891 10.932150995080173 0.6369882371054191 -2.4786558046877505 -0.16103436163892265
Ni 0.32423424793363537 9.245126278168781 12.293609326683065 0.6841970335807378 1.236694449930928 0.9574731608359123
Ni 6.0863628780629435 1.881258521068239 7.72622584445333 1.0572515038778307 1.2051177035659117 -0.7524788486762718
Ni 5.997943885496971 8.006507919711257 4.748976844782829 -0.9396921827034075 0.31252093168841016 -0.5715801440132543
Ni 4.08589942816443 7.306736342488153 9.557084239206437 0.2815982739676247 -1.2558442833865016 0.2279558060518203
P 5.517677705977307 7.471349133859135 2.080895192011846 0.4938484963587302 0.48437218143717875 0.02970832569771013
P 5.649089249246716 1.2808584466270416 1.2260968245134518 -0.4843770665331852 0.9311800314673383 -0.47319919553949474
P 3.221004128220149 8.303925703488538 6.699184158110357 0.30083192538625614 0.2060736612667483 0.049210143176063634
P 8.27222009079389 2.457932801538698 10.30066864419156 -1.1437740103511076 -0.9879206786924921 0.5893120140753786
P 2.193446865696527 5.615971608093354 3.3205707138812213 0.8711684268003964 -0.8627902300390302 0.044367213261465525
P 6.855500353320312 5.652777244629011 12.503659707509678 0.16245952412122344 1.0632475735602658 1.2324670421131418
P 4.063790035192481 5.222266488957144 9.038029080546279 -0.8283505603039217 -0.6108763705097157 0.3810194907804406
P 3.996858028317315 2.2424684063322315 7.9080765306137035 -1.3086673407248042 -0.2563428418349456 0.24475616543861076
Ni 9.099482974381294 7.191953292252268 8.882731961138434 -1.0539854315320494 0.734451815971232 -1.2383921493483252
Ni 1.035360577690192 3.499851879833174 10.809240420511868 -1.6553896008852718 1.6767960915855058 -2.8339555221045836
Ni 3.3326844317112303 2.9489099600905724 5.848881057527562 -2.532016479697078 -1.0730799862696552 1.5975775749728098
Ni 1.4017912523870564 4.3156513218544506 8.544331909279201 0.467229351109305 -0.617077357114105 -0.9012842723491704
Ni 1.7978373660732376 8.348906241627267 0.3728674807431936 0.3915527862115966 -1.3183035782629877 -1.3067760372393624
Ni 3.3668146459040633 5.189427537631161 5.396870310639612 1.6219899423789035 -0.07246140039452037 0.1233288766683489
Ni 8.895184751591753 4.959945044107606 7.086938320465965 -0.15974212519006037 -0.44293474022799845 2.1103288217733143
Ni 8.049008118386329 4.909790164840567 4.995084115475544 0.707015317026834 -1.3350741128531072 0.77341354194641
Ni 5.070510588289177 4.115161860039069 7.26260302142465 -1.4102922500571582 0.40429208815513595 -0.9802135398562215
Ni 3.8062899243565727 8.72194186523298 3.1055577961951064 1.9420403496751395 -0.6828163511831272 -1.4884471012920302
Ni 5.294716554414385 3.2356725028011186 4.763253195673288 0.6975001784475471 0.7311844580738698 -0.4599464442946466
Ni 4.020472346357103 9.219942007434767 0.38220358996034026 0.9924882434585166 -0.313576369536118 -0.2667622373960567
Ni 7.688820095822721 7.351150211311215 2.9840062990183136 -0.80226980405647 -0.6522523623533413 -0.2438475375814123
Ni 4.364635703846504 8.497280705723055 11.473055436206728 -2.011444965521207 1.7009654897428577 1.7379734344257745
Ni 5.610657922051356 2.775917894576438 9.786509136832336 -0.7067857175145312 1.2708806088943339 1.2446751541435597
Ni 6.555583650757547 5.132509785219761 3.5246794275881457 -1.0593538949328143 -0.21830517033593372 -1.627333980299636
Ni 5.97118966206873 7.689526110052077 13.301629503341431 -0.25254532246572636 -1.0669407061411367 1.8093811967448
Ni 7.451004776460577 9.287533580234726 1.8309262092777694 0.4511962089058423 0.708318866329606 -1.7674565314865562
Ni 2.540657231965256 7.3091423646645115 4.876769136160696 0.3052629645744162 1.4789178216453562 -0.35283840036053427
Ni 8.241452733851412 8.911218706326872 10.63277309285034 -0.4094931727401012 1.4672229018059313 -2.6535394135049395
Ni 4.6245789955024215 6.646399375838965 7.340523768193311 1.9008559050170293 0.19934405585239862 -0.850132946286336
Ni 0.6540023468728968 1.2510850834022107 10.134888142443865 0.323755624061965 -1.163587702642925 -0.7187434040970396
Ni 0.8393255082823943 3.74659456333231 3.4445152277090956 -0.6424963114078419 0.11612001762473549 3.271197325712863
Ni 1.9017700923632241 0.675593376765924 3.877340966880378 -1.1043286598712916 0.24452013816840465 -0.105581837097573
P 6.631489470074268 7.542628702041391 8.773675057889067 0.18647851274364013 0.7973636250041042 -0.7372221796275175
P 7.502153649445264 8.979767114200827 12.779543128325496 1.2415533206851261 0.4820823569617374 0.365180466865655
P 8.870697205426183 6.843442373455778 4.701321813267366 -0.04571112888386966 1.9972905283976956 0.4579708086255145
P 3.5585067988352277 2.263305115759157 3.8316980759185806 0.1463343364245867 -0.6505497778399377 -0.8450136227818995
P 1.074971691821449 9.033266271396398 8.217230871987942 -0.7599759283842653 1.0031914888086337 0.4021562727590558
P 2.0150760865140076 6.737373025155897 12.359782368261671 0.5802393623501491 0.8530778878472728 -1.9760138784071066
P 5.587953990781002 5.729974326812582 5.51631398375534 -0.5440184323449018 -0.12134449924846845 -0.877268111940231
P 9.081711853055522 5.306820982583481 9.697221560971036 -1.148895390738073 -1.7302351852412523 0.13680454255728053
Ni 5.579974172057093 5.157127386638107 10.753998522929098 -2.6456934350979595 1.728494805511378 -1.229409743344057
Ni 1.6077616141408624 1.9141810793424359 7.949504702419461 -0.3395995330727571 -0.49888683011358603 -2.343068679477339
Ni 9.14049682731035 5.148460133006667 12.077739902260811 -0.0456314246858698 -2.590162749020507 -0.10022571499198223
Ni 1.1934334477787163 5.69268562790947 0.31816717039162695 1.3308765298319918 0.6357070564001502 0.6271175149589264
Ni 1.0838154490102285 5.479785179114877 5.336217185575261 0.4176152876266034 -0.8207295534235542 0.33336512212727104
Ni 8.044428315556425 0.08794800675770373 8.171152295929344 -0.3669509285025164 -0.536914988530901 -0.5506966156960258
Ni 8.694518786219032 7.638498002659254 0.6146597039420136 0.22256445983291992 -0.21818252871514038 0.46462559493787076
Ni 3.078491440160202 1.515989053985448 1.793495378562696 0.975623606492694 0.4164351512755731 2.328280722534887
Ni 1.799147208261912 7.690445786482422 2.600180734262636 0.2530037501593836 -1.4179392250794547 0.9230062374072942
Ni 3.5808019850254285 0.19368106933254897 9.470339243536914 -3.115033147682048 1.2408202991738437 -2.133001066559849
Ni 0.18896006365677392 5.77329201564796 2.331109421794014 -0.9858239440644635 0.13473531873307765 1.142201523657665
Ni 6.587688718871436 1.27732837548026 11.712650654599722 -0.5569338548549893 1.1334859981615382 -0.4697305202646039
Ni 6.758386238140161 4.519930965322166 8.710954983271668 2.3603112686078704 0.7364068828150737 0.5192399398486413
Ni 0.8167181894855307 8.443762969205661 6.236567405358509 0.2671383897885528 -1.455861968267157 -0.5349496372744141
Ni 7.260445962160747 6.954871856102219 6.300402239285419 0.7727833645615788 -0.35725529848130727 1.8151584655482096
Ni 7.562880162830823 2.500321524282817 4.5103737621753 0.20179560271668473 0.2572350146319118 0.8068353119399654
Ni 8.31176617729876 2.4687273875191202 8.182070434399904 1.5710615309601523 0.6046782121188037 -0.17226931112279364
Ni 5.727261745826107 0.4725269630133916 9.643311800763131 3.0489881923368327 -1.7383475299357416 -0.7249755010496804
Ni 8.838044047318451 2.060539687020192 2.5669924916863396 0.8089716415566777 -2.3679093926701027 -1.17348285026945
Ni 2.698107694772637 2.5518698526867447 9.781532665481464 3.1194114792554015 -0.21002544682564472 0.5458562568845889
Ni 5.0548296406687365 3.298944383276726 2.1120722230005677 -0.44337002799320413 -0.22407575427112375 -0.06944883882044169
Ni 5.420312769952517 9.214015203772538 7.319558861445792 -1.501247595490808 -3.7838161607005607 -0.9535404014404094
Ni 7.240612536112382 3.9668617132305823 11.307342748983695 1.5863948188831132 -2.415971538284652 -0.09428518113783117
Ni 3.7053020205758758 2.202225595258919 13.246863236397386 1.0142264064665565 1.477370017542262 -0.5011995374071626
P 1.140380194306951 3.0977024589274254 12.66954889829005 -0.027647586513939483 -0.949880436090319 4.467606188650867
P 3.601991701567032 4.436621286258115 0.3837038701977225 1.170288254591552 0.3004519163390181 -0.34732749784463407
P 0.5832030541598227 9.226324004481713 2.0063605266458215 -2.0223071050466914 1.7186024860983307 0.26799276736904815
P 0.9394726977505029 3.1063139745933905 5.973110763945453 0.36732553823311576 1.4238481343647218 0.36107621488929426
P 6.694649874618924 0.7057968512910073 5.718627934973952 0.7392551508971462 -0.30099133378225584 -0.9062256755148457
P 4.36591767705244 1.3881075818628206 11.006184018756917 -0.5303879860456607 1.3211873275686858 2.0716283198793226
P 7.862323092687046 3.8966690353750995 2.4873178569373833 -0.1473074989711334 0.47220366439544487 0.6180176095401873
P 7.100663794464308 3.4674867012137325 6.657415984715198 1.01133391541011 1.3727469448135325 -1.1358344437890566
