# total energy = -340879.37454809377 ev
CRYSTAL
PRIMVEC
9.17110452738313 0.00000000000000 0.00000000000000
0.00000000000000 9.17110452738313 0.00000000000000
0.00000000000000 0.00000000000000 13.42283850527728
PRIMCOORD
 96 1
Ni 1.380196212662729 7.598718699760151 2.521855663641454 -1.8040559278771446 0.6908443636939263 -0.11748578762401057
Ni 0.5049325877506785 6.99847907610364 0.16039619933101829 0.5715564898641705 1.094186429230967 -0.7072629142612658
Ni 6.20542614975718 1.3012238311243371 10.878110353041095 -0.17435344734533198 0.4553886497206351 -0.21417006512163758
Ni 7.214586984426792 1.2189590230417247 6.878546707290046 0.07886961791370933 0.3007879595221981 0.5046661557995243
Ni 8.954272154416417 4.8862452958652 0.8834699292902358 -0.10228285463132707 0.3760652320989588 -0.5020963381898191
Ni 8.8464199645556 3.5693939025365404 9.964994828196003 0.3494712836605142 0.7764510432211531 0.6938489548482051
Ni 7.557155253803585 8.886616915929745 0.5508358003945014 0.010020874571111773 -0.40611577162743606 1.1092746910226574
Ni 0.5627619047903353 1.4374972740785776 5.74599508026972 -1.0037190791773294 -1.4294554532491703 2.149528374790911
Ni 7.830958581039526 9.151377534049805 4.75069178462049 1.6118456548560496 -1.4613330186840574 -0.22047441007311064
Ni 1.0767060199013232 3.822708982140759 5.948183086061347 -0.3067302931485621 0.06928403110780325 -1.2916633499676398
Ni 5.178436687784044 3.439824537030281 7.506910440251589 3.0822970909016076 -0.723664752658057 0.5732554748331483
Ni 2.138848325729604 8.72335291219656 12.125225584253881 0.9884451837373944 -0.23965792498009694 -0.6902167574122564
Ni 8.12660747938503 5.848147428634065 8.257528665706383 1.2737252774319805 -1.3895321346916714 -1.7097692040774168
Ni 6.684937352722553 5.215038566162829 3.657280597726694 1.1191181594756403 0.038303009345256614 0.14676705308663113
Ni 7.788147864860079 7.955832341000824 7.080614571611675 0.31009175342162726 0.041224553867425774 -1.0154546224467027
Ni 8.090427471816925 3.3945743070325545 5.374290211642264 -1.0588530440369956 -0.9773562729130845 -1.4375811676800982
Ni 3.0689817522333445 3.052216973061102 7.70296481130011 -1.153070348051369 0.6290975215034327 2.02135219733259
Ni 4.633297060444182 1.4755206736672635 6.095418750320063 -0.05470819017615739 -0.4737491545056938 -1.4481990524052606
Ni 6.297393986485434 0.5600463407241968 2.7305679932312934 0.26942821426399405 -0.06849958753329494 -0.299618107583813
Ni 2.7785603834984407 -0.058345650227510835 4.389375943261259 1.5550960087698313 0.4997291235092232 0.31885767253971536
Ni 5.928000236212138 7.155946941742264 2.5619095457841516 -0.5683194709841116 0.5363598873583796 -0.8338745754459446
Ni 6.480632655993862 2.991550116264393 2.91805838682301 0.7450571022909039 -1.6473011674501823 -0.4539794280779343
Ni 5.856832464671327 6.73704756894612 8.206307129516617 -0.2978157642677516 -0.8981922636874079 0.7451820579045424
Ni 6.511630989474266 4.201356376935276 9.79613553355856 -0.796119468184358 -0.3156576775451789 0.17971136922313566
P 0.7680836770169484 0.21171311500841605 3.619052682505874 -1.6113430041880186 -0.25372725858896944 0.2754209415123192
P 4.435118661574932 7.7377526451929715 11.892742668703134 0.3124908497814231 1.7746059980471436 0.6143373324751226
P 2.799800661705724 1.5007045268439472 9.822833536101403 0.3214866255221302 1.141370028895305 -0.29715087699024306
P 4.603096613062237 4.1191007399572435 2.8683665908771885 0.4275986240915604 1.4072974290948925 -0.589570667053404
P 5.267625679824557 8.610117283947284 7.307044558139618 -1.1713917720683762 -0.17596707168935502 -1.769720130709752
P 6.6282048997906635 1.6075570663055434 4.801739069823236 -1.7796427891401028 1.7862276414464722 -0.3700478222602853
P 2.5793731631253904 2.3959694137345227 5.864196861649068 1.1139952364267782 -1.8298811164703646 -2.9826077080290694
P 7.507374498143338 6.132561723869069 10.121505230516476 -1.2034284887889468 -0.4781094883569186 3.3421710858182636
Ni 5.4890895132224315 6.056588293528336 10.948727858307105 -0.7184119888995498 0.7758337213521285 0.7920285859444359
Ni 3.3329169709412048 7.485097885118514 8.587341762833308 2.2731159044372853 -0.5300498859799516 0.46606464137724246
Ni 7.170684906802325 8.247464295540288 11.647426626513592 -0.6431671122226214 -0.8991903659346191 -0.8239490888021165
Ni 8.523092672587651 1.4468242874364392 2.365037112207094 -0.04236998032577864 -0.5173314099720187 -0.11415106682382277
Ni 4.68781927717229 6.2082141655495 4.657215301188825 -0.3797275114418944 -0.8568689794585888 0.38484323540190496
Ni 1.5341423741426323 8.882636656542026 9.711504580494308 -0.17050630568509992 1.9524654016632053 0.12260999622445337
Ni 4.02759145845799 4.932972073700307 0.712925902741446 1.0214596909902023 0.7699492375468934 -0.1705836958902546
Ni 0.6394002402131168 5.34414937644009 11.531170953526123 0.334664814775301 0.7364673037393639 -0.7206635039378879
Ni 6.492032338986803 8.999274764590483 8.962335389563153 0.8801706302990067 0.003203594538962225 0.8354177515633483
Ni 8.470762349854162 1.12308429576239 9.912752548066484 -0.0563441831176836 -0.5137737745277474 0.05364915278402373
Ni 2.402123224907704 0.7243980374605697 2.2284325923775157 -0.18797438056287627 1.0726500978210882 -1.196980676281074
Ni 2.996722619247514 4.466768143480516 4.417201074556983 -0.6319218783261051 -0.16805681570334283 -0.038143858059573016
Ni 5.364105700006172 8.518021051754909 4.713107680941186 -0.03763709362648357 0.7895459287318983 0.7239300905043017
Ni 1.2579362175067306 2.300168055291828 3.8712947428742326 0.6174931044952848 2.189604931096823 -2.3328341462335245
Ni 8.18555933962528 7.26156138208556 3.1979641670464845 0.11837873175192516 0.5953489642980779 -0.23328724556706273
Ni 2.2915839014049473 3.816500144340098 9.98810876306898 -0.9986712323407769 -0.9241259528340342 0.16033630713063352
Ni 5.557267504670161 0.5080425093137569 12.99403275154161 0.10459710458680051 -1.7776414424393578 -0.26019229748802286
Ni 1.2864583527505349 7.368945845612796 7.7637426384622374 -2.1672368478142676 -0.6107444729175417 -0.8883788771414118
Ni 6.74096363060178 5.080516804183369 6.257619823032425 -1.524399093906607 0.2759261632835119 1.1559034466247902
Ni 4.0241614653450695 1.8051485144816735 11.898111433324267 -2.4431067039385472 -0.07073593306298141 -1.0693140914693198
Ni 2.494485419132898 5.365545563425233 6.909634000484876 0.6086063435286163 1.0491296461016448 0.3820839274892129
Ni 0.9392678466654222 2.1450479924256847 8.506576430349526 0.19116949046140624 -0.3182874018585422 -0.18856804828281717
Ni 4.119586808499983 5.054058167470066 9.263597921022077 0.38439072124551865 0.5708908312557136 -1.2626337955045095
Ni 0.6827245382490433 0.2822489974436647 0.47751648771922234 0.5427843028274846 -0.32343757860091393 -0.11932001261927193
P 0.40459520098271523 0.19726770818445588 7.582239141940346 -1.7841409341207726 -0.6915434466434799 0.18786048069283132
P 2.3521407049466965 6.583917635773838 4.442717838829921 0.0957954471347705 -0.0882960534339318 -0.16166196792059254
P 4.664818146885646 5.338289040613468 6.939017302448743 -0.7202706393748434 1.2085670955670926 -0.22392765872903372
P 1.9147798986310098 5.28702256601126 0.5310839924605524 -0.4261919735520209 1.1993368352180764 1.0302083837171097
P 3.966273453236101 4.3340255757895765 11.369546743291842 2.377451784942899 -0.10353549609150556 -0.9875632953530735
P 0.052118470217689894 8.697297804084776 11.673936621412548 0.1408270334531123 1.2027738859240835 0.15289656302313667
P 8.674709373504234 3.6141580639915274 2.5261917618868788 -0.12830678949891453 -0.1682473344475941 1.35289905684967
P 6.628003135489904 2.093653122359357 0.7051744851504288 0.5632225160771784 -0.3289587655294593 0.983631564398835
Ni 0.9519331420904041 8.049093303474859 5.429980827093864 -1.0146102721685364 -0.5387993500378075 0.04941865964244393
Ni 2.3872476932789417 3.777156105691892 12.56172338962859 -0.7418193120798967 -0.8257342057269972 0.452513127945053
Ni 3.385100556001413 7.709441445354508 6.153445246108189 0.22683917594887384 -0.5025887044452054 0.6718477679867656
Ni 4.542117938709808 1.7333846211431625 1.2443739880538245 -0.6937543382518697 0.31976552906596545 0.5376058439503387
Ni 8.818659030991936 5.775704873556634 6.010827233005504 1.8047254431403434 0.8283027377851218 -0.9401845489587938
Ni 2.8957487578216985 6.242138081390925 12.169413800341243 0.07274242197004892 -0.2948587385219567 -0.1855359463247127
Ni 3.4732165288060663 8.429400668198356 0.6510007703963606 0.5352334870634202 -0.09968141245273801 -1.0741937881591241
Ni 5.735755542006149 3.1793284825399213 12.401695868701685 0.8059865907864249 1.721135279822513 0.22774471848227876
Ni 1.195893695023021 1.9232815125766713 11.52284909323023 0.3306814046475208 -0.7518545848287116 -0.6157162151005203
Ni 3.4158696118673175 6.855253935877759 2.354124414867351 1.8003527679939446 -1.6328343412925748 0.7823041595678204
Ni 5.694879928893083 6.7706963516501455 13.493308601987342 -1.0248931421517833 0.5927020135935341 -0.754154950827114
Ni 7.883912538884454 3.5154219520832326 7.788736649774115 -0.24349349667610326 -0.730171186318007 -1.0905421476101607
Ni 7.4836396794902935 5.15064824090664 12.257440813431469 -1.1062898973627204 1.1670646054479321 -0.3060857175860277
Ni 4.6335538513724215 1.202405179274822 8.390401463082359 0.06911073875473259 1.7941836630687553 0.17673814552742464
Ni 5.422039567638041 3.5960451324460245 5.033954189120244 -0.3473118141153502 -0.6575683752496159 0.00889678826899758
Ni 0.5535339393619378 5.455055544126046 3.3056696192340205 0.4622604371398039 -1.0822202580080265 0.7927119851647056
Ni 3.803623913509776 2.264648367253483 3.6341666628537164 0.6157493823313007 -1.466566756279171 1.571102925721049
Ni 2.789180522602082 3.354038024788948 1.8518010063696826 -1.9812910676456459 -0.040508758747323785 -0.4660242750576103
Ni 0.5605149841682349 2.603814156831094 0.6017702810109131 0.3485006922171288 0.9162843453024285 -0.12518444181984892
Ni 4.335382899267416 9.095617218203397 10.137612441490331 -0.9432732151864465 -1.3687730477674491 2.5070376982645532
Ni 2.5130935903257208 0.5531615925159897 7.401514272197296 0.5185984496099004 0.06254054173638261 -0.7025829922870933
Ni 6.411711805075151 4.714507191500094 1.181699576464553 0.33877935116430685 -0.020176474947874928 0.22009542946713706
Ni 8.082742086178884 1.5406171739761132 12.434621968364807 -0.9183597397742184 -0.7915634733825593 0.3418291937342242
Ni 8.541278972969794 7.796411030086661 9.493893528130492 0.9213558462880648 1.2814190465318123 0.6755226457351914
P 6.837718783920796 6.895340833996944 5.1627054920979685 1.0678740165886835 1.0271330872258955 -1.212946455581711
P 1.6686091094946127 6.792156736367349 9.81949066848199 0.08656261568259285 -1.7500301084799925 1.0927733509335245
P 4.3709301006195025 8.84401713515564 2.646017745887345 -0.7415436898210068 0.2872372174209569 0.21656581904732378
P 8.770061347822509 3.5162198381816925 12.151212826191772 0.8333001909997132 -0.3289353684906916 0.5412658093004291
P 7.605991385692092 6.768403575505144 0.8994634185673003 0.5108013221629849 -0.9459476766948162 1.245781499833861
P 2.556775561440267 1.737190629543863 0.10858587822721644 -0.07375209418148589 -1.1974897547070087 0.6217757910310389
P 0.7446918576751967 4.320351458860794 7.920333746503013 0.25462174537878085 0.9219353729406187 1.7718526036717228
P 6.678664317189831 2.1683059136405682 9.005892633655412 -0.022187591840632754 -0.24329140796762616 -0.7478722031421959
