# total energy = -340875.7188597628 ev
CRYSTAL
PRIMVEC
9.22441607056974 0.00000000000000 0.00000000000000

0.00000000000000 9.22441607056974 0.00000000000000

0.00000000000000 0.00000000000000 13.50086533754277

PRIMCOORD
 96 1
Ni 7.991978683424089 8.68178051255316 10.709521157712373 0.9720376889136484 -0.9112814927711984 -0.8564169795228348
Ni 0.18364982075840613 1.0117616210800218 13.371014235448717 -0.052148656979097284 0.365062710340868 0.6264611123218501
Ni 0.40382740646958326 1.0507901252127458 3.2575019673307612 -0.3751509478148055 -0.09942224525408037 -1.0218008763797046
Ni 4.378950196728393 7.664087591979559 13.289198277659734 0.7265958102619229 -0.13324999243680277 -0.21582379867497667
Ni 2.5353584132336575 6.31308884776433 12.065102591800713 -0.5783809689851717 1.211010672011579 0.7033967464376403
Ni 3.063530025058643 2.10326831855508 11.026710081703635 0.6493781261293397 0.16204506229162413 -1.6344762477713721
Ni 3.1952362368305725 9.281238411293224 6.469979560123158 0.4106961919092669 0.49577656661937847 -0.5509766088302899
Ni 4.755518531450727 5.882483884063151 1.6744445895851763 -0.3230056332698179 -0.45533028567887396 0.1468719540956116
Ni 7.018526062028115 2.1723038479640393 3.3095073799044963 0.9341709957748622 -0.9789169325319851 0.3569855897596884
Ni 6.58439737141162 0.4760499716095414 12.414680285281651 0.03877737787851386 0.06910636787935841 -0.5319167639853614
Ni 5.772888597464027 6.190219626528716 4.113011205639757 0.061773324553054905 -0.30124972964996505 0.6305579080990431
Ni 5.628397345104067 2.7304824850652603 12.155598725053867 -0.6191643215501208 0.9614470578819957 -0.97279667856686
Ni 1.8407875610280977 4.697118753699776 0.3232927200642038 0.4311158932161995 0.2088075152581436 0.339287401148977
Ni 1.856874942547235 2.5542684660514507 4.492939072672452 -1.18201685588239 0.6761271120884097 -1.1729845704767927
Ni 0.5993241447079368 7.015223721097008 6.785494252608842 -0.6152284768308244 0.37425466125278123 -1.378122350192833
Ni 0.6401375733383404 5.09296611788025 8.3980651493742 0.12348957061592925 0.030762477993837342 1.0855128127163691
Ni 8.658055314578839 1.392231883774027 9.223763842467944 0.17233358870182577 1.0082015404287152 1.644385279354968
Ni 6.424141592092826 0.7951953942362429 9.729398361100522 -0.42329871116462586 -0.4108165195372151 -0.1347098648117809
Ni 1.2844261338805867 8.553136806896115 4.75543643414825 -1.4533628559943872 0.11926730500446556 2.288379515464575
Ni 6.498905483843175 7.648728939325107 8.85857935954192 0.5618644593873872 0.6285725022378982 -0.31060417428167153
Ni 6.936816185023229 7.226924068496208 12.603395232870422 0.2110662293853333 -0.7264076055105166 -0.8025163728496373
Ni 0.7986831459291246 0.9382245766588267 11.058018672078694 0.25629270532330056 -0.43622878896273254 1.3160525774452818
Ni 1.5328581058263497 4.78296116907655 3.027798327207421 -2.4103297666178425 -0.200070649605778 -0.8088911660277295
Ni 4.9246389745538615 5.699323879794805 12.040516755812781 0.635028542275887 -0.7335113064348335 0.0798713197053463
P 8.713392586214907 2.469376165523571 4.84442068561758 -0.25238462851814597 -0.07061509121440097 0.10647349567390695
P 5.082284244142199 3.68028370381498 2.996328309552209 0.06453391801732757 0.15051135062041174 0.2773505544348643
P 7.594664637098235 2.1001135682801118 11.300453851177213 1.5199156042139566 -1.3860410908192775 0.24785203075511508
P 1.1195673709734622 0.08287768807158415 7.037609533866871 -1.046576797772804 -0.4280848196993595 -0.695164588335835
P 3.372824693829675 5.577377100160058 7.75611221096535 -0.04430910633002046 0.1387855775430513 1.0211519299417962
P 3.692616748018585 3.9310033309308956 12.632449375972962 -0.1632200564363318 -1.218098946316928 1.1862869440126538
P 9.235300819569998 8.205320976872835 12.354952191625449 0.025947058883064988 -0.41004004638250674 1.1044798407371752
P 5.016163630191983 2.285690369542731 9.60999659784257 -1.8748332557010228 1.1627472090195008 -0.16217130345684327
Ni 7.657095484644979 4.341886493205518 3.754483061305598 0.38538908060304594 0.9851585425663227 0.8566936302229892
Ni 2.1294103135236786 8.883850569639302 12.955983775736595 -0.47854066235706616 -1.0116535035330578 -0.8245784948559993
Ni 6.886192589967595 3.835493727577026 1.4733495532711551 -0.16348565139289264 0.6503438324767187 2.1926221206565915
Ni 4.932710338561457 2.6041817810744172 0.9426845817990234 -0.2391437043478398 -0.028712794553660225 -1.563258747086282
Ni 7.257687495885155 5.355825076463588 8.101099835040367 0.5209918895427414 0.14890981046124677 -0.30290269187235574
Ni 5.377050457699561 2.619983205697285 5.08465491905643 -0.6639326269047469 0.25983362859702347 -2.311573437082535
Ni 9.060507360621527 4.533136310313475 5.935763188487684 -1.5950198415479626 -0.6179384195628197 -0.22865463189105784
Ni 2.3561280101850097 7.377623352830009 8.166201151021625 -0.26111840884671805 1.6375895965893734 -0.7766299920011785
Ni 7.249523887717473 6.401532548455552 2.2261034094514622 0.38191937688689065 -0.6946303130989199 -1.1120435120170462
Ni 1.2439217231864739 7.5779868929545415 10.309152907246046 -1.267293662874024 -0.22890968532465739 0.3436148248797372
Ni 3.429075182650604 5.011044079307165 4.030683292762291 2.346654339946068 -0.4578067722438245 0.47283589866280495
Ni 5.198318173115382 7.976398644785429 11.03093578667721 0.5825132459859904 1.1829789626853433 -0.05161926683818852
Ni 3.118599788630461 4.570615112556742 10.705470716642962 0.2833718209282797 -1.090832939377702 -1.95874172159022
Ni 5.009189971689421 1.877989630791103 7.192531755849446 0.15448987565218555 -0.4899154798529111 0.8300055794088415
Ni 7.797592564873181 3.6444929697013024 12.927564272455452 -0.34965691730875914 0.11757269091086203 -0.48816635837228833
Ni 4.522638924895598 4.343602234583132 6.541317503767883 1.0190693363811547 -0.1041816143159367 -1.0302438649407353
Ni 6.351158012632152 8.631848748698177 2.9330220649262406 0.029610366667265135 -0.07774553161159514 -1.2263015367323784
Ni 2.9809253797009156 3.0740550837245464 2.1632980506147654 0.43948560533713343 0.7752225701306906 0.730974913166225
Ni 4.891975317467128 1.3791793351217452 2.87494145196919 -0.16237596326848164 0.2079708782894612 -1.1765414345901155
Ni 9.098078407024879 5.869311418002756 12.760977776429902 0.06970414936435737 -0.05122743071640855 -0.3934793138103481
Ni 5.147094991019182 4.405867042641721 9.021737140137045 -1.7682186064635612 -0.5694391864108516 -1.0826570884351288
Ni 4.953216215348752 7.030102704119008 6.901075262755999 0.6479743038032776 -0.14813693685096424 0.2911056992374277
Ni 7.10925741788949 3.9134677160983955 10.313648887608675 0.2897196175231785 -0.8428315275289162 -0.48857027867892633
Ni 3.0575249302369922 6.83829942205053 5.592382457681379 -1.3227230474869218 -0.29434863165475755 0.6235547373083326
P 5.449591265191819 0.2175735330719268 0.7928035031651921 0.20182619884430403 0.2352381986458465 0.8371676443749195
P 1.9363063887979763 1.2967130560041482 1.7753504763041243 0.4063453711397389 -1.4934049595179377 -0.30974105495042786
P 1.0279135735112201 5.122862450164382 10.904756844977683 -0.956208435190876 -0.37750222165580144 -0.26736336131516536
P 5.810708703099613 9.09603981108696 6.8370679625133715 0.44204616697545807 0.11622260464087082 0.878411738626371
P 8.815709808583183 7.3999833372350485 8.61803426328358 -0.9676575575680818 -0.4413918212209108 0.9853524037446837
P 3.0615006535367333 2.4066778099125745 6.093980371868559 1.9727832872849507 -0.07607508588770769 1.553889132945924
P 3.1311080967382305 8.642927272324602 10.433968480259491 0.01823143540636215 0.13749179843229226 1.1899826476966862
P 4.08637016976509 7.500824653041936 3.8694967698682206 0.7684178885040314 0.9789930371855592 -0.9089903827441764
Ni 7.990908651167082 0.989521554083095 7.199363358345474 -0.6049324942214549 -0.49770103733560095 -1.7548532409002489
Ni 0.5960771502728816 3.199562487938643 12.09149641332635 0.539822134875367 0.1924414151952944 -0.35394500316115174
Ni 0.381359496397242 7.060736989683833 1.2903233030349355 0.2933122199704432 -0.41984032030238017 -0.13436250877469116
Ni 6.903543716479922 3.3074512575761617 6.7126435047386925 0.5289671944387341 0.5662754439708892 -0.5259885714263844
Ni 5.21978338916758 9.381323324987399 4.732688101829245 0.09686991114587189 -0.7311250655908441 2.1945339929673238
Ni 7.410480722652927 1.5029986712062535 1.0410583663235886 -1.0346188540799794 1.974890820546257 0.5467186048848842
Ni 4.19312433623354 9.42799886999132 8.748425995774273 1.1675495155041504 -0.47058386940383473 -0.11250941745534172
Ni 1.8331312957408936 0.6201002968842863 9.004213517045356 0.1235368789140969 0.44729044609353286 -0.48478767170804243
Ni 3.374983207175706 8.747504476615005 1.5257054936532197 -0.05845762991626061 0.6648055164280035 1.1733717786128823
Ni 3.160967531358327 3.064295651587363 8.254752777380148 -0.19707814263635734 -0.130345160085182 0.8909245263814011
Ni 0.5157232624212722 3.0183303866161117 1.5288916069426177 -0.42386743918390235 -1.7598213835388015 -0.6901044002041082
Ni 8.386322467795148 6.885768266831196 4.41892789326841 0.35532722822065904 -0.8123143327766654 0.1988177510352834
Ni 2.038070146205732 7.156947648654363 3.136129868813356 0.8193013056174598 -0.5296084275671589 -1.113180710945283
Ni 2.3548273675277858 2.1792682820505926 -0.23252262165559323 -0.0007600180944761104 0.6123529550552421 1.3066266561456916
Ni 7.741978560756851 8.60843718086815 0.7776514774293348 0.2895915765857464 -1.6892857394120842 0.16933825351892773
Ni 0.8608068204227802 2.5512613064326213 7.323004663201015 0.44547139060692315 -1.2540776784043821 -0.4808765095790944
Ni 2.0401271909756673 4.421613120768537 6.410845518857915 1.2902451294638746 0.7395963362866488 -0.6255774241653161
Ni 3.0631979460823304 0.33184836591225425 3.702369723064562 -1.1721700449952974 0.39143322991459684 0.5934669167840165
Ni 8.081621558196439 0.28005050269871484 4.7860974705195005 -1.1067976902370746 -0.42050675024178547 0.22289201837566777
Ni 7.40081353467583 7.618998646529133 6.410791094803463 -0.3711001747841996 0.5778235538198048 1.291708858493595
Ni 1.2724067198212772 2.9675684253203474 9.858939602435214 -0.9004908299135976 1.2217743382859862 -1.2001724437454944
Ni 3.876293319583416 6.683642863249005 9.665391060857894 0.9000396013087918 -1.125337400912475 0.26765441019302294
Ni 4.137694820437383 0.9304483939635098 12.551403656920701 1.3145649371561619 -2.0994846799699585 0.7959826854961776
Ni 8.172574300042022 5.990428000196721 10.395396584719196 1.572608306621982 1.55616070258892 -0.2891814856315213
P 8.503610917345512 8.232791287746682 2.7989451782400803 0.5737444986544248 1.460216131470795 0.09079542281701783
P 7.066539147353293 5.537693662490719 5.832266163311898 -1.2973133491645659 -0.4708396941683826 -0.10492054936449027
P 6.054131817152664 5.903340288658775 10.137597218316618 -0.5477604158858373 1.4191468722343108 0.4789234996177817
P 8.382522008399572 3.373322812294144 8.277042656223522 -0.23298102718055358 0.558900748773373 0.8162326939944653
P 2.547184114556785 6.795313643450083 0.8089646800123991 0.9233911315505388 0.18188292295315772 0.08372694600601065
P 8.945045345440882 4.870141124774582 1.7005423073569332 -0.8839005296550843 1.9552918153684067 -0.03534752626135848
P 6.452146919095178 5.395619207125033 13.62574832841161 -0.3876028004249131 0.9035702401698696 -0.10713401207604129
P 1.1264580097319459 5.944508857305514 4.861621454148965 0.8387151913676977 -0.21294313469307197 -0.30491175188258457
