# total energy = -340890.2765710763 ev
CRYSTAL
PRIMVEC
9.12326252485090 0.00000000000000 0.00000000000000

0.00000000000000 9.12326252485090 0.00000000000000

0.00000000000000 0.00000000000000 13.35281689862714

PRIMCOORD
 96 1
Ni 6.750840364170132 2.0341226576004514 11.653283979377393 -0.3881429891990993 0.02050763303504855 -0.3228382544540182
Ni 4.701171666882959 0.19996823408062206 6.302382735521883 1.0978854753491094 1.0623461447919187 -1.5586819263488771
Ni 2.765343041902652 1.4286573267265101 4.892471889046707 -0.03332741050753615 -0.12915962441751305 0.06945552368866104
Ni 3.2754976470681614 4.463474179795042 5.032543166346095 0.45328600155533544 -0.12804068032172142 -0.6788488818949471
Ni 5.082779500225764 4.844032837924248 2.521919795127301 0.22714590855601524 -1.6624706761017691 -0.42488019671913274
Ni 7.199294343513287 6.16319276540192 2.5980844416769586 0.8442001257416688 -0.21680827407543307 0.10568725232718572
Ni 5.294156374346436 4.2000582150798556 12.140554704644899 0.105555868955644 0.3944169951332691 -0.9915515905768599
Ni 5.2449090021463665 8.15884262408283 12.60352379498663 0.5714081372117643 -0.03698891851952339 0.1476759380541457
Ni 1.9592297938749306 6.598345027689186 0.18051287631540427 0.15768704243324455 0.20777418889762284 1.1461270839643165
Ni 3.0037521434832715 1.3267687285919485 0.4791364242201573 -0.6957060626616017 1.3649444180499781 -0.6616376602229832
Ni 0.7746014985688406 8.839784707496817 4.540491851409668 -0.22905469554295388 -0.057839536716287485 0.9654356102160986
Ni 8.635514855040437 2.4580806765217513 1.5447736530837477 1.2446049630272566 -0.4695222609085398 -0.22772389254667233
Ni 7.18123028331393 0.5634116513340719 4.818711222225601 -0.8742336959892816 -0.014381722642968778 -0.5529000511052479
Ni 0.5781274741126399 7.3408508879846215 2.1537423168448373 1.5058814947183936 -0.1806066273438954 1.8711905167421128
Ni 7.855247810318162 3.9424902617726443 3.8735585379129116 0.11387338768240389 0.0034565910900327566 -0.7397616582199195
Ni 7.745485836450245 4.063574204684706 13.00652567942413 -0.533915539582945 -0.421617466807461 -1.8389005463601555
Ni 8.00286220124019 8.906904551378977 6.958379993987848 0.06295268957313674 -0.06674583806698181 0.5517101445622047
Ni 6.908326125362717 0.8780976155958906 0.38518962628940445 0.07295376664990662 -0.6779412824790131 -0.7230042362559226
Ni 1.7560273631576055 6.566231142890327 9.225715142719649 0.5476187481016505 0.12081459488692742 0.9124377178628287
Ni 0.09802307171715344 4.844005468136066 1.4612784649329873 0.3710299836678965 0.38980983537856095 1.0086486552684628
Ni 6.383373588054097 1.9550148464950805 7.03300919542056 0.9350343722164218 0.3245624362339765 0.08172071420925926
Ni 3.4237597896438023 4.587486690042454 0.5213178294382039 0.28658467143862254 -1.769088153552708 0.46311918559567333
Ni 6.0620249050227875 5.555045195286256 4.823437984644433 -0.31713297653912476 0.23196826964532308 -0.3481674772474262
Ni 5.323889087573561 2.729826180106641 9.640466877223187 -0.2494584560102865 -0.636434164374162 0.2722006348028086
P 0.14669294138660594 5.627401791973686 12.707408563005849 0.5073894682679585 0.17495045749938257 -1.503645149188707
P 4.0664206626555135 6.159178529802063 12.766121320285125 0.10566565506063091 1.3291852581724979 -2.0938416227515684
P 2.496471366076751 8.461187550853905 1.2046876130638318 0.10733867188767966 0.03020300594594153 0.9380988700743587
P 6.497961767904571 7.67102176607289 5.748026834770581 -0.4205715420414499 0.2738325139792767 0.29889151383043366
P 4.678856166252843 1.4334196698699773 12.24649585608277 1.0064547329409377 -1.4007475437915167 0.9109765599362698
P 4.062552399259287 6.146871248383409 8.258329979467659 0.6774946818598977 0.6359981052780079 -0.2946383949810345
P 4.836122969139982 0.9821466023441936 3.9554379962347292 0.028906655732021183 -1.0058631221035257 -0.6113134580471343
P 0.40232402601688655 5.531297342408009 3.596767870040019 -0.3040733151416892 0.4141512403374029 0.15639223488122098
Ni 1.3090239825880337 0.7780291083753553 2.553152372746737 1.0489769225738643 1.1914324927693352 -1.15953487272979
Ni 1.9273439906442456 6.477324947616213 4.9061321503277675 0.47079829940748597 0.8907080394952208 -0.25434020958262
Ni 6.0427474508807455 5.804666786758295 9.49964840470646 0.12297020777734952 -1.295462411998756 0.03490272541445602
Ni 8.955641020866336 2.7589385114683336 10.616063889255702 -0.9701939508366904 -0.6348290246705712 -0.31218720249807524
Ni 2.3774675270664334 5.290689534510195 7.297769016735424 0.1510818784119011 -0.506374653850199 -1.0140731687181437
Ni 0.035163791528477845 9.132021059166433 9.294775504583832 1.296638177474412 0.29305048166862435 -0.13742777796357625
Ni 1.258572339708008 1.004918266110657 11.233071059805507 0.42134492987236466 0.31529438066848925 0.7201904209562112
Ni 4.231834539157818 7.090444695918064 1.5462032683530607 -0.6161399329015002 -0.39714570691834183 0.33551842102484797
Ni 5.909310610236396 7.612085488856803 7.919662606801783 -0.5942089371563638 0.601669507199467 -0.049142523162921815
Ni 5.341615587052021 2.9597324008257444 4.382181347266567 0.44642989786545056 1.6204781337200673 1.733377587524976
Ni 0.9235478858490029 7.5207068893836855 7.22341989946843 -0.40331635450542797 0.03265146748643409 -1.2172977905718714
Ni 5.408835786824178 4.442782619930322 7.606378888021096 0.1745845895195316 -0.252110806031469 -0.49275372063265455
Ni 8.01578074126155 7.076924020556726 9.319518705425589 0.5450707848688162 0.8279957480676643 -0.54353506495058
Ni 4.461211610638759 0.05883774597863667 10.41557106756828 -0.307881890254502 2.44609843957702 -1.1220970395983063
Ni 8.35096941384964 7.038807028883535 4.860264946968034 0.48871271779406156 -0.08312813607974716 -0.4880195483817789
Ni 7.399303632276181 5.842181643091508 6.814704115585044 0.07471574364633583 -0.0004975084617088206 1.2880771752782785
Ni 2.4612282021625482 5.299539099355335 2.6490524612273294 -0.43798742352505216 -0.17835048431986705 0.034274347801837746
Ni 2.200549216265447 5.52441840231189 11.420210161839494 0.3661690560311694 -1.4445971939866153 0.2333039577376111
Ni 1.263225203698752 3.2151563873921236 3.8432483221551705 -0.1108590263361123 0.33074054002023034 -0.5715220370818093
Ni 3.6144724736879352 2.549057852434882 2.8234135214859517 -0.24333228850789057 0.1059415344298369 -0.8740912568741462
Ni 1.0105746890013654 3.5764740844301945 8.434587766047214 -0.38467945613053106 -0.27643986969513684 -2.3762454233396237
Ni 4.002749412084139 2.813167185117316 6.53291937369542 0.09228409154740234 -0.7593871457603308 1.0237140342420177
Ni 4.268792876464686 7.026226049583074 5.968749579228739 0.1835723948404387 -1.3909994632658174 -0.10815705402391695
Ni 0.7748943553023758 7.504084304695185 11.477120162403926 -1.1896512324991964 0.13561232202139226 -0.5637524204387194
P 0.0968753652661033 5.606299685286253 8.120662681896823 0.20915692817776238 0.4784753563367696 -0.5508390548111609
P 8.51537973145198 1.7844098335011425 8.11522795429038 0.0632257407288653 -0.5722033794195501 -0.5452211944037513
P 1.8968540466107833 3.520986400524893 10.270947282168148 0.14903810850899496 0.2526288833184681 1.5576560561875237
P 4.1393885179456475 6.14678001575614 3.8566805018680563 -0.8142861117910557 1.1836438499628519 0.07789645536716261
P 6.8596261489262655 3.988736080535546 10.629923949990484 0.9261311561895212 0.8809175357673602 -0.12245213049035042
P 6.142163644816304 7.88957864795967 10.415077499054753 0.41560699894732295 -0.6547486464126336 -0.8708460104639713
P 2.6380279105480846 8.455886935209548 5.743834695547548 -1.7320735240015719 0.5768570761414775 0.45344412439975457
P 7.066012598335297 3.9388592032073184 1.6270545349655516 -1.8401017657571084 1.260341657036223 1.4960894483286364
Ni 5.303626321057008 2.7517220106513176 0.783313302146804 -0.730668951890032 0.4118459892429939 -1.091196750475024
Ni 1.266199387347737 0.9387289950266453 6.936654768456165 -0.4103755753450546 0.4076095825641432 0.06020366607308986
Ni 6.882853975829077 0.8608692462623209 9.302346900320925 -0.7600052389603039 -0.7248927115278871 0.18547603962105477
Ni 2.4065616119026725 1.750608145097798 8.975817116386983 1.4403384187102615 -1.0967004539020726 0.5889338048003535
Ni 6.440631184928425 1.9261488432270153 2.5956540044864993 1.0907660906955086 -0.5045239737947053 0.9956319312938208
Ni 4.11788498769823 6.846689362379453 10.437016208934246 -0.7664849331473766 0.188553650105114 0.6574233650313194
Ni 8.302606998134085 7.191676419136285 0.43053132971606617 -0.9952154125816925 0.6473837214071302 -1.0544454018876035
Ni 7.831609436592639 3.9152664457954294 8.573670081667 -2.13193971517487 -0.29371228362233937 -0.6631754370237483
Ni 2.8165427923262873 8.566615974926522 12.145922832433435 0.7559194989267046 -0.318676923987477 0.5696034799028578
Ni -0.12409188263313625 5.116562942103655 10.374031027719939 0.6341556527526304 0.12958334221849296 0.5599615859377195
Ni 8.778905175319888 2.351840282066435 5.582385789026375 -0.14007370022685553 0.09898387216508114 1.4597556468946085
Ni 3.3531822291881284 2.9239509644106527 11.684409814822924 -1.0508458574618031 0.5241869994412715 0.3834890353668557
Ni 1.0073724237842063 3.4695403220076306 12.920266142667103 0.8861677284227061 -0.1854027631809581 -0.9880458914164467
Ni 3.1860440560304304 8.500590922571597 7.927206632750696 0.011464034775541547 -0.36954928535731196 1.2436973636113227
Ni 5.689512964618752 7.987507750070736 3.5705430513314056 -0.22256008895754573 -0.020341539770829482 0.5051248406034978
Ni 3.1481368993999594 8.614212036573013 3.4329961808285656 0.44884030707915606 -0.9151669438685336 0.0376571482311416
Ni 3.8524162888694806 4.5112253369078905 9.688523663637387 -1.0757745023826826 0.04585819598469521 0.01310234170991292
Ni 7.239090015528237 6.280746005638653 11.589457633339661 -0.06396493288773498 -0.8283420756634895 0.7171596045496874
Ni 0.7136462433112793 0.09236026254253646 0.2328840536731798 -0.7501316886003339 -0.48688132101227766 -0.6377860504163662
Ni 4.84554729953692 0.3621853193234037 1.5152644597934328 -0.2874426485635437 -0.23609051934381275 1.120021130905884
Ni 6.030312443783914 5.826553494040246 0.39933068351617473 0.35582653645458073 0.02423521839828084 0.12351065366185182
Ni 7.645795944632877 8.648241806544531 11.603637920596157 1.188640788956811 1.4122180063249614 0.5624480998049991
Ni 0.341946273289941 4.886966912317267 5.908728546074416 -0.10098033376981964 -0.7519525438591566 -0.17697442990794682
Ni 8.02170173877134 9.042138674780535 2.2267156460926083 0.13589488625881757 -0.3009946762163655 0.9255426306759028
P 8.736919920250472 1.5678418228888373 3.572305665690252 -0.8105505560080234 -0.09401830062968969 0.5981987750420471
P 2.0164326511728983 3.194948360451933 1.4669139043194235 -0.5934095811835199 -0.3171890265880408 1.0252829213910342
P 4.5577904698662355 1.294454132013097 8.168332641971402 0.10603435125395931 -0.017393255775782948 0.48939071769769255
P 8.69238015161751 1.753418110017698 12.726769951164977 -0.12363072417948383 -0.33124447623984243 -1.0859825532639362
P 6.36201603001031 7.8586234175271334 1.3206871616581648 0.22171985244443754 0.12105653569440442 0.08340735788306282
P 1.8794651078532194 3.1374900517976103 6.194505627733354 -0.6223229217837604 -0.18680761394828474 -0.01596243686652735
P 6.883492604219963 3.7931059578815884 5.902292084220554 -0.026403172583877105 0.21649099994533036 0.24819167348272092
P 2.2442770145157116 8.551699440367962 9.944537012975927 -0.600119646213844 0.6689449925176738 0.6180116960029163
