# total energy = -340860.4884078007 ev
CRYSTAL
PRIMVEC
9.29303447361976 0.00000000000000 0.00000000000000

0.00000000000000 9.29303447361976 0.00000000000000

0.00000000000000 0.00000000000000 13.60129530646570

PRIMCOORD
 96 1
Ni 8.884094437754248 3.473383129874009 1.8868121722173 -1.536992100080269 -1.0546096953796096 -0.22393614336946596
Ni 8.801339966268309 8.422481539144353 6.038159334970062 -0.5518656963034625 0.44315662643081744 0.6010259600781972
Ni 7.186842510884209 2.5970499843238484 6.072761019319388 1.6200906684736613 3.5659221097601166 1.1333931813374158
Ni 5.146054980710323 3.242191019640744 13.227313952817292 1.0273963681896112 0.4065981105804933 -0.9361029226902523
Ni 1.6444489053110143 4.427935746114474 5.784250402103739 0.10705122255424789 0.4703468136923642 0.24207064818664759
Ni 0.3294380700928228 7.789625895327111 3.6419104504246245 -0.9626284797846067 1.05589807517373 -0.5474544546096443
Ni 1.9915623268655167 6.251015358994579 10.614314333523053 0.8826021225586348 0.32868340038088556 0.6280418265454087
Ni 9.56113846022569 6.439375873598568 5.5589584394220095 1.391815017188577 -1.9871732374580355 0.3471328653353248
Ni 4.481277763669701 6.846540883557578 10.939276878240513 0.9390838596954473 -0.1348654165530387 -0.4594427651853507
Ni 8.795392424241244 0.6255029949862846 10.917120425582816 -0.5403492110234307 1.0153795462343933 0.14969682513891638
Ni 8.927102601037452 8.80315210797968 12.846355299915032 1.6307280935828496 -2.619414703907089 0.31821515385971
Ni 1.3992150200732285 6.653032027886412 13.584878320877475 0.45437152131003034 -0.5746335861275974 -1.5982920845413313
Ni 1.2531285190334776 0.4336715320274385 4.766859216437021 -0.19686936905966093 0.44387576398502915 -2.0613115113343468
Ni 7.934030357137333 1.0178474736566063 0.4741956672109018 -0.20024934127548738 1.3140563729508596 1.2117231246975713
Ni 8.211315918080341 0.772009541181697 3.2301983587252354 0.4159355859313352 0.9400480233809293 -0.7276623038532242
Ni 2.8545135028547843 1.6843067299267578 8.6376654682904 -0.27674634519196206 0.3087082428105393 -0.3924259328451693
Ni 1.7928029067485833 4.119425589529381 2.131431787880103 0.859046703836198 1.2610283986906023 -0.5100981254483731
Ni 0.08893433937343621 5.144623853410061 11.735619300740433 0.966738388187922 1.5894706295949592 -1.4996193158587658
Ni 6.4763156854072825 0.6544684539615263 5.602699823120737 0.2577214673500271 -3.4822082763802293 -0.44881485315785924
Ni 1.269038193955873 1.8010922934488034 12.075120797803736 -0.5288543230099537 0.2519441985466177 -1.7760332174119737
Ni 6.229948049970589 6.458844780702783 9.179908450718443 -0.8259892591605968 -0.9717708084055071 -1.1161863305408262
Ni 3.295783949125238 1.9453759458116004 10.937427564391472 -0.5493419014403442 1.3333787274285553 -0.8800027372625748
Ni 1.8465166456805018 3.875594952488606 9.932985292881801 -0.16533221768332818 -1.5459099713951892 0.23218038565612914
Ni 5.240351400942535 1.025449175809947 3.4862976598037125 0.325389303010646 0.5452358496917706 -0.7831073721954062
P 7.419707367312586 2.874391303473361 3.8579391163992023 -0.7091796716680044 0.7652716295655659 -1.1542366004453284
P 0.20697632114869866 8.798942363388647 1.5238206720574208 -0.5571544555062276 -0.3996581889275504 0.014989788540612895
P 1.11583322855248 2.2055530303923834 3.2092527884521123 -2.4708399081877577 -0.17868832727526002 -0.1149581361061504
P 6.874159781845755 6.168725539229502 11.162379402013528 0.9818045384924251 0.041266719959270864 -0.6990055593484801
P 1.1315942149241986 2.461864212655575 7.209584424710194 0.3323536501436212 0.48739502742390256 0.5983350435095952
P 4.5928778139869 1.4837351680984534 6.08549154716763 -1.4963938669429326 0.02410254947515849 -0.945349638099501
P 3.3175947009026103 5.191516505079691 9.08427755074391 -0.008244756507295479 -0.9474499722719553 0.15458346380725635
P 1.8882888353862068 6.137491650553001 3.7046663118445635 -2.185375209286191 -1.3592645940563817 0.03245220699143443
Ni 8.200452360846533 5.950525091111604 -0.09890576530318512 -0.8922064784176182 0.7191768920900324 0.5387697823514528
Ni 3.3416915391466357 1.8739868554180021 13.221859870917786 -0.22595574490265605 -1.010612206752737 1.7954576446851724
Ni 5.614591189961098 2.0740101282156864 7.849008385253575 -1.7441538522048734 -0.30599367209285366 0.5512342333670507
Ni 4.676700984430829 6.671961938994425 5.0641294478944054 1.6051841836754743 0.0140410514740984 1.535614503006452
Ni 6.182153973962482 7.302791701308698 2.952447216757921 0.664844597196055 1.3197925041036882 1.1307845400699752
Ni 6.884177672947591 8.694339967987666 11.709572783875661 -0.9780808097839349 0.6301701857423212 -0.34283860883534506
Ni 5.464164841848474 3.152262325584658 4.985391425883616 -2.566899150506876 1.5208121478862968 -1.883523070165537
Ni 1.4331253026619086 0.26161750491546254 6.9586808591744225 0.5476665706204504 1.0100229099081703 2.1441041184515464
Ni 3.890751891623201 8.850936890953369 4.870991384296489 -1.0468781310633066 0.8959158089484055 0.7819025532540277
Ni 1.8736987713510662 -0.21409385620889873 13.71078592698353 0.02434114784852582 0.2590381292789216 -1.9193269672380233
Ni 3.7898481239202995 4.331511221000704 11.190751036089505 1.4479337145590159 0.10505270406698038 -0.7604215005621162
Ni 0.2790623891235936 6.003123665913448 1.9571994735007148 -0.5897984667934939 0.5058488632537159 -0.6999105876612527
Ni 2.1096860873436514 7.574919628150113 2.1540370941001536 0.06800902105012158 0.5879835250719423 -1.4331650408902736
Ni 4.64621053850771 4.021040234153564 2.657964895625723 1.9405066866394325 -0.09463819360187571 0.5115029762156997
Ni 8.533589058637437 1.1543156840744653 6.928907835508318 0.47404688825177066 -0.37819976194345833 0.8982125754023821
Ni 4.161114141925331 0.06580118879848378 11.845462967552765 1.1704710600263197 -0.9794460655625776 -0.9266872858033073
Ni 4.326158433176348 5.2882198212259794 0.9571500193600965 -0.048192757655142804 0.8651301910261164 -3.124393505851025
Ni -0.020587788448057535 2.7411198968950483 5.064523472553699 0.8792481184847374 -0.45045624541602425 -0.19435637282982013
Ni 2.1902938678791983 0.5702317434860287 2.1953446320849936 0.6827047653059274 1.0036254910222586 1.614951033254251
Ni 6.46502464859028 3.9928823398691846 11.068230741028554 0.09730237069760017 0.593879578841403 -0.637273886666638
Ni 4.030296096433182 -0.10336456321659941 7.444356211800998 -0.08938363007115575 -1.0597506161506007 0.27672500503572345
Ni 9.105491689711693 4.793951199673739 3.7600239885649 0.5502307318032008 -0.5649181586120464 1.3492164657917602
Ni 3.06199908228955 2.584002564001978 3.2669086325838443 2.5579923349355496 -1.1154191133574984 0.8920046468194575
Ni 5.598337672765263 1.8552428049983345 10.461586100785267 0.42059596752148215 -0.2403030147632636 -0.1331540902888868
P 6.345209555848198 4.958512253135055 0.3159882613806833 0.036561858284433806 -0.9113419136954886 0.27674325986816856
P 8.708614068852619 4.58767371471322 6.614241972925215 -0.3255245430369297 0.471928042136555 -0.03173255521659051
P 0.4998760385196326 7.687541912253214 11.093406500568424 -1.7439862162787578 0.3507622345577959 -0.16481311195506454
P 3.795414651536254 8.208286388860305 0.01024185323129196 -0.6344135343997075 -1.1276863607606256 0.06129689913726863
P 7.107145447721556 0.9644125257572062 8.863732470042532 2.1668604383114554 -1.3283095404357639 0.6188424194343277
P 7.633633019598532 8.346269363888183 4.334583498179059 -1.4738951716197843 -0.8792817999361502 -0.43793934389593614
P 6.764715715513367 1.5211489246624508 12.317033352540784 -0.15153310701670678 0.36628681255595624 -0.0713475985050513
P 4.520578006220408 2.0484542835681476 1.583571166146809 -1.3473742703766989 -0.2300155167943264 -0.45051923744347566
Ni 8.62454927951384 5.502433557578862 9.549591864962212 -1.560584028467596 -0.49227960920971353 2.0294874248452146
Ni 7.059100459784182 5.280190639489444 2.342768400777392 0.20933510562683944 -0.9462736925756671 -0.8775360208896371
Ni 8.037889309784932 6.5822841568676065 7.670029188893837 0.004566793435076005 0.2152249887487132 -2.510892553234269
Ni 0.9181211334143747 7.676483201296642 8.643881579012122 0.13860277210828387 2.124177297620632 0.18268613558074343
Ni 3.4735875766311897 6.641174115969954 7.533376976394515 1.2028880429044444 -0.11917217418749798 -0.06786632482467021
Ni 5.936455437003832 5.05690690154529 6.77048018476241 -0.2703057317729409 0.3283856666348086 1.1049837769567874
Ni 2.0811657647169977 -0.1542987555543075 10.729313775830098 -1.5276397123310916 0.5008007593068472 -0.1432011901122437
Ni 7.949772757440217 8.188166969346879 9.488154685126085 0.526281677186771 -0.022105573649787737 0.34691020780155735
Ni 7.1024338792719925 5.409112905960466 4.739983760902227 -0.2682676182969896 0.3458763672204043 0.7858139724932919
Ni 5.363493400006004 0.2007629983373006 0.33490980875772136 1.6956551332735377 1.257858485603053 0.7193249876321224
Ni 1.0711151469364952 2.03810184322729 0.6083768618586664 -0.4014798155173215 0.8016511966358645 1.3256407353543493
Ni 9.083699524003155 3.2152505128650293 10.66938671408678 -1.0674078755855425 -1.5312937641439113 -1.1723266251778197
Ni 0.32796047762047414 1.2713428664913602 8.982458419150905 1.0639978214627288 0.5927053560276438 -0.30397381344934743
Ni 7.254477215373224 7.9566031377369235 0.876046920090108 1.1591556350135006 0.8043333714537181 1.5271010662188023
Ni 5.600066177166878 8.802111288124943 9.336731194420487 0.4102261942513838 0.24120058687686846 0.13264809718674575
Ni 8.097857260879685 3.434027129116799 12.800927230469567 -1.4073575929088666 -1.38086006083897 1.068102844770038
Ni 2.617215869009361 2.3057133553419025 5.628814179136755 0.34634713620923574 -1.1612194595210648 0.05418111402809378
Ni 6.07956816703005 6.947212325400048 12.892273112274287 -2.4990914468342833 -0.6508284854226211 0.848991376482725
Ni 6.529425377102078 2.6113519642920533 1.5714260994668567 1.0838135706370753 0.597248752423952 1.1179272244913327
Ni 1.1582001724608912 5.525303715279804 8.420860833941978 1.2249239396585612 -1.3553678301051366 -2.9378949385027275
Ni 3.8830479660912705 3.6490400664295675 7.173636179673803 0.09537147222347446 1.0072214359036331 0.687060728281778
Ni 2.6148182661297015 4.192524598255761 13.223641345615581 -1.1134712456025082 -0.6014867017646996 0.49714207950833733
Ni 3.989908568855653 6.489186538075226 2.7557452744609745 0.13367602423062785 -1.3182927796297104 1.59905724484213
Ni 7.650537049203577 2.9676747829540875 8.38253264279132 1.909496611411163 1.8339776551372413 0.9590471901912516
P 3.625296363493399 8.31017521821144 9.652417432182608 -0.9509369023792914 0.2835371428615504 -1.0891007871779437
P 5.803964645316572 4.091713760897032 8.870383494774984 -0.20906951067027862 0.001724181779958321 -0.1359311388133917
P 4.245736513329145 8.539592358871003 2.7224622716954614 -0.2447903611106558 0.8986319223279878 -0.2360959186604515
P 6.127102038074473 7.5003337339169684 6.772370387962885 -0.38639052528436685 -0.5733323508176705 0.2706564302441404
P 2.02981245652707 7.692002568773511 6.459731336186193 -0.3362244459529371 -0.9833849956056677 -1.0976738735589355
P 0.46679190669064924 4.463816151999619 0.05280488016590797 1.805312425992065 -0.7290584128698024 2.413606380486585
P 3.390935328523839 6.103172474449959 12.571976600137749 -0.4554662970361059 -0.22434289188958137 0.9956062202622079
P 3.7177620559454043 4.917455627079482 4.342512315143889 -0.2171134640206777 -1.6244715711501767 1.3507580992472672
