# total energy = -340855.6752571341 ev
CRYSTAL
PRIMVEC
9.45611604828728 0.00000000000000 0.00000000000000
0.00000000000000 9.45611604828728 0.00000000000000
0.00000000000000 0.00000000000000 13.83998167552862
PRIMCOORD
 96 1
Ni 0.6758673984181925 8.450496110703199 4.828838574829454 -0.4335281022021179 0.20121659028476313 -0.34053078663777486
Ni 7.2129741771498015 5.559298023578436 3.511646025040346 -0.4148050718713179 0.13768668805191772 -1.2258217688824824
Ni 1.3090479968635362 8.301108386195851 10.142948960178302 1.4263356766732662 0.589718762595494 -0.4202627525517795
Ni 8.539260673935916 3.540994027431852 12.895776643837843 -0.29373208111668125 3.1934535938734805 -0.21373220625327063
Ni 1.8863438938868027 2.3960001913784166 8.53154637429969 -0.6765767980313186 0.7162700028558826 0.1299767210021697
Ni 5.195729266023144 7.819461105034835 3.286677454575135 -0.06838748743546287 -0.5429447396647489 1.1054918269414575
Ni 7.715283072315664 2.4926038749818513 5.553915602209302 0.9261836066940115 0.8403941217320172 0.15706689235074242
Ni 6.70725162401792 2.916171690139315 3.253268050254531 0.9537216642132801 1.3318818311680545 -0.03520714402875227
Ni -0.07959685852896554 4.5175176963867365 1.3594084351727387 -0.6941446317117529 1.469683961751914 -0.28685592282213823
Ni 1.4569227427709863 3.6067234914811346 5.565250648757407 -0.9886714408155876 -0.32100042991433103 0.7194334881855288
Ni 1.8340515710278564 5.748458173030581 5.8337873292299065 2.94604225020021 2.0182229076749887 -1.0185098643332586
Ni 2.346090809814308 8.181450691176483 2.8914486742053698 0.9242907605466727 0.25396714251391744 1.350136149392552
Ni 6.545457474991416 6.508550253270174 10.228120199236264 0.47884173853725276 0.23738198446172667 -0.3018616522023511
Ni 6.697190316328604 4.126327623267072 9.68530224766978 -1.1984449195314264 -0.4279565216516114 1.7678722788677361
Ni 0.4359401976581232 5.5217950665334845 10.451234425304976 0.11668617454085066 -0.02274680677821244 -0.4757674704873032
Ni 4.310220715968325 7.975118234615505 9.247945523797503 -0.050979319261344455 -1.5703516493773213 0.5113001161762742
Ni 1.3928480990653411 7.802326622390998 0.7699803410015467 -2.8196223933113633 0.09957368323028014 -1.0389120821386946
Ni 6.5980429374540925 1.272367721932279 7.059442782501986 0.40209919426887525 0.17945245913479418 0.4432522714684173
Ni 4.555446178662909 5.182519071622792 7.024344515819246 -1.7476454102978998 -1.176927871395257 0.27871658154445544
Ni 3.770058987456284 4.749788279819701 4.304608510974331 -0.128475710976611 -0.44677365435811445 0.3595705768780453
Ni 1.106053549338582 5.103711798800648 7.835754938944102 0.7056999406495201 -1.034894219228553 1.6707056624170515
Ni 8.804164314545412 7.516969402334142 9.462935054784769 -0.7128766609036173 0.2370279435564176 1.5914184973499497
Ni 6.865310607125929 0.4032097424842226 2.6414431447467357 0.8899367085468352 -1.0209629538594416 -1.602100402543828
Ni 2.70215141106761 5.024696491421018 1.2916326675670948 -0.5853430021253015 -1.0860856545007038 1.3066641942518464
P 5.934185752284209 4.086857794042254 4.862635679916282 -0.12260279713560175 0.976939239980324 0.7462796618440953
P 4.7911020517131435 2.417352101869465 10.425201737270497 -0.17666821152143766 -0.44819958817136357 -1.6374579561075153
P 1.862958918402142 0.37427118992631425 11.521384046856374 0.14706530105334029 0.9672536372614439 0.3714400746221216
P 6.9409784493532865 4.2736728266645585 0.8737441958289947 0.951620044489245 0.5819997966846816 -0.2639031706807068
P 4.141968039543509 0.7134412763350141 3.2841309224691835 -0.6638176985934373 0.5794376923844601 2.3729302429234616
P 6.610770869925728 0.5987754650836818 0.287725031565696 -0.6030134228218712 -0.10993780007342356 -0.47748033941335183
P 2.8620259684954945 5.7091018172007555 9.482214184593957 -4.056077730648292 3.407025877510119 -3.3725558687577077
P 3.7557802519197545 2.849534438930094 0.3741529884731973 -0.10565177110355999 0.9157611258091067 -0.005383375799100406
Ni 5.815218353751043 2.4265812713288377 1.3644570556382705 -0.6930200311890065 -0.6012954116894998 -3.407021249524429
Ni 5.0292543394532085 8.185961258627426 13.306340407929191 0.07639236001781037 -0.07231947550001738 0.5248416023061347
Ni 7.930579927081032 -0.0902122946304941 5.228897539379391 -0.20932584965545883 0.18881898795135868 0.6786344518912957
Ni 4.064664289205012 8.160382464172915 6.664837160193054 -2.085436172296692 -1.1522931035657125 0.3032557043364003
Ni 7.687623932286294 8.432794261084402 7.693217225047788 -0.6419890327541201 0.5840008862751105 -0.5396884375109802
Ni 0.5958213743673826 1.3164899603517806 6.0045449308491765 -0.20509432807261452 -0.540653886748043 -0.05371060214957847
Ni 0.6603622046041214 2.0493106013282274 10.521251292461718 1.002946462677363 -1.037383304198994 0.9922689283588588
Ni 6.300109082785591 6.760177506665573 1.3254146428679239 1.3104432016783045 1.598893722681072 -0.07173686352367
Ni 7.459911196885519 5.5966780511121454 5.902295945844876 0.7287709635363707 -0.9868541851011908 -0.38855925080091147
Ni 6.497675719583413 3.9116643282904104 7.436014645511769 0.5333527251009396 -0.5377950771430092 -1.0347574365403729
Ni 2.657159209953168 9.42280235181087 5.123782405539909 1.3325842565517179 0.3923269453734598 -0.026392373950599707
Ni 2.2202771831166084 2.059324628436297 4.003588179962038 0.49693973368954414 -0.6546869399367627 0.024002019341552213
Ni 4.29115718560962 2.8867537124875646 8.117453587624082 0.039026517774842465 0.3432080763596218 1.2040396400103843
Ni 8.353627655844782 5.897392003957959 8.02435244947941 -2.437015503439145 -1.4994406241890563 1.5721709619742472
Ni 4.119490851218787 2.9401618570639347 2.792728711785329 -0.9835927407410995 -0.6258065094569867 -0.09893707808754573
Ni 2.63784982057198 0.05173252077698422 7.686005990796029 -1.7511269410885972 2.129686143254003 0.3162608583468166
Ni 9.280052820910571 9.008492074461527 12.066692739442939 1.0128884043814235 -0.7619981010206167 -0.17175329071832357
Ni 0.7159168875690958 2.505946455009694 2.191090880312967 0.6989448813138737 -1.8175141102645795 0.6405024209062646
Ni 5.181942248531581 1.849909477978029 12.358785551104214 1.9805148516012534 1.9042986121499914 3.058842459423093
Ni 4.881578171986995 0.5928133837884619 8.333343340878285 1.4083196997118197 -0.7590112504781509 -0.7799785967584374
Ni 3.3361556372382726 0.9206607166001812 13.223549273331193 -1.1637388835088087 -1.5005353999151319 -1.2100539645252644
Ni 1.3109013956484104 2.8207594771832993 13.535585034162363 0.15691416882296202 0.08756971679086856 0.9360916098363425
Ni 8.2569956038926 2.15094493877632 1.0215300542437011 -0.84894123997108 -0.6372049811019155 -0.351172325512021
Ni 2.0339822368880194 7.358995524272378 7.718889635053169 -0.1795930984777165 -1.3162580085878688 1.1305246015403692
P 0.39685996042277916 9.060188661996763 8.254469875242396 0.26503188496851127 -0.2924964089373672 -0.647277277736253
P 2.6654427677876047 2.0135853941381554 6.620341405181702 0.42062887764194656 -0.3066459609648719 -1.2640856974596875
P 5.770490923891583 6.38029694858014 8.20759401577108 1.0667015935471371 0.05968404612419398 -0.3727515943446935
P 1.7060535814765554 5.212589521295748 13.03376123776009 -2.3530970102476183 -1.5602515848288419 0.29131627258633697
P 4.951534519999741 7.252245427933382 11.356023996392237 -1.4473457032660302 0.3835106326334105 1.1632449745915256
P 8.917023061981492 3.9297065980941848 6.8954945301938775 -0.36946521028393786 -0.42796166385793394 -0.05003469595988803
P 7.622972465489438 7.409339887183956 4.535085269154792 -0.23956099439091647 -1.2513811054088255 0.31968042555132686
P 3.309338091555095 6.816100978164273 4.386831332985743 0.31202907965365617 1.2027242636330704 0.9048156825411965
Ni 9.47550128766854 6.993866507535942 6.514825332013248 -0.11606268202423882 1.7878150405382502 0.45794638314548225
Ni 8.794282673064835 1.5130826171759197 8.327475820745558 -0.21949533398929294 -0.5091203349161361 -0.11142903990696938
Ni 8.972180588063994 6.4656100293818435 13.151359390660348 1.549688464601015 0.1713812520908855 1.4719143937443295
Ni 2.7482594338994764 0.9155960207370255 1.541054754653144 -1.0063043234060025 1.237589708051688 1.6247955301484986
Ni 3.324543526484062 0.7900755336430558 9.792161089345644 -1.694964020743784 0.7703454445440475 2.440549998954965
Ni 2.789015294934207 2.765261530915821 11.706396743721552 0.6023058552318853 -0.35768904358461623 -0.6282688549545502
Ni 0.14135286253026855 6.166257757275937 4.437083971569702 -0.8894232592455263 -0.8773100209217601 -2.703915809074963
Ni 4.788407058582076 9.286757207331366 1.5377053982776216 0.8199615649092782 -0.6613126727833966 -1.7782330532767698
Ni 8.09629836435102 8.502306171633427 0.3845263479987423 0.34167852708897284 0.2205163190546396 0.3786041964707286
Ni 3.9623869358519634 4.398767788527307 10.290760350106883 2.6408060250986716 -1.908436288467449 1.3896676318282712
Ni 7.046773477951096 9.301366906936623 10.231234098317179 2.200236699779056 0.1449564822404536 -1.252837635349694
Ni 6.361053752012698 5.953343843805407 13.01132660195849 0.8012825004425361 0.3757950091567076 -0.9115560865888237
Ni 8.887992785095966 3.703081316062086 9.190384252964416 1.4121565569594068 1.2163783640813954 -1.3775441090918596
Ni 8.78111975924573 3.6902209979629603 3.898113713705081 2.0004946371572903 0.5059457938428964 -0.4257618279931378
Ni 2.328445696893007 6.55069616339356 11.397571334357039 0.9503185520690022 0.22588246846255938 -0.30810351934700486
Ni 5.4377869297741945 6.736660145553421 5.6877480154864575 0.8647129009830398 0.145407196624627 -2.18268892070328
Ni 3.5796600867754735 6.011943396202675 13.279684561833877 2.887569193664982 1.7538291705111084 0.17801444113668696
Ni 8.062502204875816 1.482737940131732 12.397177383076604 -1.3265843302145413 -2.1909825281706397 0.8217937330220105
Ni 5.170519260102358 5.040866450207419 2.0149631502756864 -0.5702454843622308 -1.4173123901287332 0.33883745809575194
Ni 4.993576412844383 4.235186433529674 12.444676400608751 -0.8622814087234116 -1.0410838929790327 0.4421515822050708
Ni -0.05912436684910687 9.10422579537002 2.5410901110504307 0.6091491034059638 -0.18239405826162133 -0.3297424377730192
Ni 5.954752805126561 1.2795732825142891 4.492195162682583 -1.4223172995424924 -2.0326367691074734 1.3249267400064602
Ni 5.251510895778103 0.043408301642674944 11.298698182853757 -1.7180144748053445 -1.8511294843261799 -1.1993350354458636
Ni 4.677127482559639 2.5039701267135785 5.8725394392313985 -0.6927158696850263 1.1427658808015675 0.009661948569796262
P 8.908030295428354 6.960760644546942 1.853159545132933 -0.6791327316839529 -0.7344528444124965 -0.5592771582761853
P 1.5244677811401461 4.192558261477571 3.3264536619664318 0.36700903543396146 0.411828248631181 -0.018404470649116694
P 3.3587179306092394 7.561460429287369 1.050814700656336 3.1721610030432914 -0.414537420032228 -0.231200281131047
P 8.548697877952774 1.2632331136354 3.6599141453837696 0.6074791719027086 2.6415778702676893 0.3885186273709631
P 8.062975010688286 5.614039480545967 11.546974188650385 -0.895668983044922 -1.0848990903917703 -1.1685555881711618
P 0.847064709443058 0.6033919410366181 0.6848242317295838 -1.5232948050988344 0.3737098444929048 -0.6952440354235188
P 8.064232674149448 2.4229784910378327 10.594921057325587 -1.7000056969327497 -0.26768012122463575 -0.6999057025652462
P 5.885959559412486 8.869714112385958 6.386210803682489 1.9279555894472988 1.1447512866627123 -0.4438731928818678
