# total energy = -340860.4435430315 ev
CRYSTAL
PRIMVEC
9.33144582536384 0.00000000000000 0.00000000000000

0.00000000000000 9.33144582536384 0.00000000000000

0.00000000000000 0.00000000000000 13.65751420241956

PRIMCOORD
 96 1
Ni 9.402178162498807 5.69985238846925 1.4919600785513352 0.2747357425198365 0.3798396115397265 0.40698866115069265
Ni 6.298641934221831 8.304650832896732 4.956093233294769 -0.9586291288172264 1.1035223619199124 -0.36295543418987813
Ni 4.229981708423509 4.646341488721386 -0.020167120670112965 -0.11516665257253068 -0.4753404102522136 0.46456903066832245
Ni 3.9161558546124002 8.907359585886702 9.245058077496418 -0.9951760747033249 -1.1619612227830955 -0.9577197296290795
Ni 8.26822086848061 9.271071348962305 4.0274781367567245 0.8895754685526744 1.0780630413065433 -0.7418396237948708
Ni 8.895695278632566 2.654339090197253 5.892370379981912 -0.19713753511938306 -2.0602311337859747 1.474310919000964
Ni 4.644820463055446 2.464378847979277 12.374103679165904 0.9248543463596266 1.3246434044380864 2.2737401682848453
Ni 0.29269292850035367 4.4313636403047365 11.066055199662838 -0.29269258410857335 0.999101120789344 -0.06269017994036945
Ni 1.4842037807996242 2.3922094461364796 10.827240172941636 -2.5200942743381956 -0.06602052986518306 2.184639359561431
Ni 0.11594787982902492 0.5116749003112031 10.014098918785805 0.16512755787168978 0.37074202011383245 0.37017586319771734
Ni 6.558793311772303 7.912179553855328 7.455937174194105 -1.9952742692986154 -0.3672070103773805 -0.47923871686535535
Ni 7.752583836281322 2.223039665168278 2.391594503858042 -0.11326969266013395 1.231657401727653 -0.4907060940750065
Ni 6.508982054074235 5.597533085235958 1.3705999601563907 1.0670142396915494 1.2330195721825024 -0.958756141313394
Ni 0.7012040297330662 7.991366202942214 13.027233966409478 -0.17739634793671386 -0.007857034150573566 0.1737484667714814
Ni 8.32618780981077 4.151354946084822 13.701218168734291 0.7185107192609432 -1.2622946669975357 0.1903426236847367
Ni 2.4369817231007596 5.5614110585313465 1.879109634051111 -0.19278902834270026 0.37795602136376844 -1.0652376074071008
Ni 1.1289369761760166 0.1372665009112663 4.795781793827651 1.0084334539338633 0.5734740186018574 -0.012099611477011421
Ni 6.617049527922365 1.5862618035504226 5.548556058792707 0.6212636272813107 -0.49538473049759846 0.3055162182358029
Ni 8.154694498837543 2.5249119369053474 9.745579100638928 -0.7663388944878157 0.16556953050511483 0.5639730210899577
Ni 3.0435536946533013 5.0341937020901515 4.036642549680154 2.571302164670578 0.17542405470169142 0.14316493755766957
Ni 5.3974202299839815 6.144309152080892 5.394445365061886 -0.34023510977422694 -0.299440187245052 -0.45841252414862343
Ni 6.755920104367221 1.597151600802885 0.018596638341415943 -0.9170181381446595 1.174222556648952 0.9022808319344848
Ni 2.02458780726929 8.095626446902594 1.4608490382431005 -0.0852238422665113 -1.6313230468543714 -1.355697959751046
Ni 1.0226518084763188 5.538269072939138 13.142516514152728 1.3416903326180443 -0.5712489859260806 -1.3378784150711218
P 9.253789511334576 2.7728204575618767 12.306321923139823 -0.6274404455159839 -1.634871940547894 1.1811802189137075
P 6.544992103429207 3.461537146520954 0.9169311932477213 -1.7441952469657702 1.0921886820746478 1.157436852550181
P 4.562918363239796 4.884713271766933 10.721995461449007 -0.543790889715128 0.458143843868269 1.0977242671808964
P 1.9056025418312879 1.6348786361856662 6.262161579998372 -2.844551038232243 -0.27018180460056695 0.25153307915112805
P 0.2552644993832784 1.285863900250276 2.7777194666086142 2.185427916900997 -1.327603772617991 -0.26703965942715946
P 1.4865366422504516 7.022426196509746 3.2925670584929425 -0.4151526850187237 0.6540122824672414 0.14346035731090132
P 7.422558592555667 2.730353047711014 7.636380274837286 -0.09120988464661711 -3.0853862713498925 0.34929130643922424
P 2.9342171441759213 6.425754888954517 13.549892911575759 0.649942740383558 1.0547117681751126 -0.7915637304928755
Ni 4.923550749200308 6.6791036425143755 9.499524738263514 -0.5061226857403929 -1.060235011986187 -1.629813037967748
Ni 4.607634651529257 1.6098796928785994 2.786365051145381 0.31001976253311125 0.8825998085657896 -0.011786965332599056
Ni 7.603327360657382 6.524761528927632 9.43297193364973 -1.8117260428278925 -0.950194367786312 -2.298093400318229
Ni 6.241748109159052 4.0304287399197305 6.4430553894738525 -1.8974949589645964 -2.2607036468158612 -0.41393938143691295
Ni 2.1027666602094186 9.212684492570997 7.873912227760535 -1.8454851415562086 1.0195146514486892 -0.8609644896842011
Ni 8.96644630071326 8.30444554108906 1.9006886024712648 1.0857146443145302 0.10363062690847313 -0.8705642175574941
Ni 3.589620571617183 1.252905233672986 5.129065578427821 -0.27464961056393344 -2.397837547688103 -0.7825116475929362
Ni 2.693512499679547 6.757319821237718 7.630370823739955 1.8399755245918892 1.9527880751099465 3.186762297896234
Ni 8.085231216277707 6.326897552114253 13.118055995268513 -0.4576892728293537 1.0178079531702278 0.3408812279986581
Ni 5.426273060407816 6.429739416312529 12.598783431784254 0.6786830457410441 -0.009000403726397403 -0.210285899575883
Ni 6.2669523442737916 4.410834459537455 9.255587680940874 -0.17539422990502052 0.07012889560660181 0.3968955385807488
Ni 1.7947449656879684 7.172503839364377 5.729136331689196 -0.23585834872834863 0.8472682231440312 -3.8367184080162313
Ni 4.187878224958976 5.122823774329986 7.460922032542234 4.900997508164805 -0.1679143765882076 3.807479565755772
Ni 8.392375754893646 4.465778012427343 8.215117476703135 1.527942331173175 0.9591263801686193 0.042023395619637305
Ni 1.057131500719548 4.143843132213157 6.6732528259957 0.061914221006293374 -0.6135955692130916 -0.4254049588743512
Ni 4.830852166590229 4.519629786158243 2.359581112740627 0.07353483596435723 0.17922260251217523 1.126117473611609
Ni 2.0476831356324814 2.995758029248749 13.4845961195671 -1.2428728108274982 -1.0249605050546091 3.6077881538662835
Ni 8.11546510068043 6.225156798520767 3.1563195514633975 -1.2080706155466485 0.3968343463255101 2.1411555773461832
Ni 8.947475471395132 1.2866104159145408 0.30910880795753615 1.548979097238816 -0.5295274378175783 0.3347753722112363
Ni 8.018996613965815 5.306961194366696 5.916107711816371 1.575055482610894 1.4372394680699634 -1.44623858624478
Ni 0.6036400312811419 6.292109922159514 7.310894779494941 -2.8987030987946145 -0.9204999260456728 0.6472549091387497
Ni 0.26410417799275365 8.010943576237558 8.752663810504014 -0.3178711402567299 -0.36783153133525687 0.13686496348157073
Ni 3.5037152815519135 1.055498497703969 11.282417834636698 -3.5239552784100274 -1.4163957918517347 -0.36223372553250516
Ni 5.665960577311629 0.9976995223982686 7.852920207281409 -0.08237197464001297 0.32788044486361595 -0.48728035622290916
P 5.99371827970708 7.851403847338372 10.83326362120767 2.139498758469051 1.0631357305727498 0.3332707626412518
P 3.1492229869299804 3.478063137038615 1.8441335088911455 -0.892040128043083 -1.636639059750646 -0.2789973460096679
P 4.031539181970325 8.915048697228631 7.088851160316026 1.450786867737095 -0.6044267582296299 -1.1585102881200178
P 6.53888000642804 0.8146520152313844 3.355514192448329 -2.434504821202149 -0.43737061587665965 0.43815120279642605
P 0.5887423780561578 6.008872547691654 9.652092944003048 -0.6245574675412341 0.7583193666174489 -1.3003832463391412
P 4.884498648513457 2.7559771978869025 5.0912750892135765 1.3145939906218842 2.535511380224214 -0.660080085927876
P 1.6061191202198655 8.993563482217677 11.248519491467016 0.8803097269800323 -0.5249351904612056 1.0567681364835089
P 8.699660265196634 3.676001765418421 4.17235723115433 -0.3713418584813605 1.1255361471868421 -2.2589383273853225
Ni 2.5332635808993094 6.211980797046493 10.609444227892386 0.014940680470232332 -0.37280275929760315 -0.006663528063104653
Ni 1.8984826486833624 0.7775399221270414 13.258523182090315 0.5189581469421642 -1.009316884980081 -0.9473147322456718
Ni 6.670098797314181 8.29122288238577 2.1243988178706514 -0.4756677116846454 -0.4620735179399784 0.21768553447406377
Ni 7.604885712106535 0.8075983753486626 11.686406917233128 1.0031212976923305 -0.15170382826661613 -0.898406436580743
Ni 2.7182594939499243 3.895999931677251 11.858014071845153 2.7751829320510657 3.7285119888116176 -4.083767740364393
Ni 0.8591676774360735 5.176647553723478 4.304083652692172 -1.4726654129777412 0.4120984715734322 0.2374940845595587
Ni 1.0074788776001373 3.2850701749345634 1.9549500266729305 -1.667294579852974 0.36444384580994654 -0.5014828729755364
Ni 7.342252169972383 9.186817724804222 9.127030218397836 0.628408465856208 0.017377829156815232 1.2570095073391963
Ni 1.571807394001096 4.082684836418265 8.996969459935887 0.9368706540942123 0.7207689191675006 0.4869545974523743
Ni 7.240754033969783 4.826970285136051 11.55962429568188 -0.910033222186394 -0.8896304901603259 -0.7513658181177512
Ni 4.234274173493032 3.28646989180506 9.250289286013755 -1.3402152907344145 -1.5309641487186343 0.25128753879922533
Ni 6.595605865466359 3.849930583746311 3.8587935909702944 -0.5373983559252229 0.03630809040241489 0.7198803459149602
Ni 8.217420477527392 9.105344871495525 6.5500208195726115 1.4442279835726546 0.9948935104658995 0.2978103649511129
Ni 3.351510069054129 3.1316145486991354 6.780218256094459 0.6463552801426159 -1.460520292974775 -0.04768959276647916
Ni 5.623661133485226 -0.08832120138374616 12.765364669686619 -0.7017466124287269 -1.2831108324119387 0.2516405512632699
Ni 0.7320584552817098 2.035766879341655 8.124978509676904 -0.8307519706565627 -0.13955665138112094 -0.7134032228310488
Ni 8.616825020800654 7.414468229044198 11.017611931919538 1.378974156670167 1.8435696697010509 2.214901500880082
Ni 3.974020150038723 7.95605601202249 11.492934318814786 -2.1190975691048797 0.036275951612898816 0.5135953399683542
Ni 3.7163789314093423 8.722624953318581 2.922735733259529 1.0789511003384513 -0.24126126491147487 0.43632880487570663
Ni 4.601233279708186 7.601414414267705 1.1060712013795864 -0.45997806886353043 -0.5477174784630439 -1.8099332125935281
Ni 5.390813566355238 0.6753951169302722 10.346891869336723 3.393808607488897 0.34017957394594317 0.14041462850604206
Ni 3.941574712980616 8.15129785256514 4.986604261637852 -0.42022855687973437 -0.7465542556617207 1.9207395313148339
Ni 2.441348839736709 0.9184232914316705 1.9632680774620008 -1.9604214232854882 3.2858065909856053 0.7040531490747165
Ni 1.893135730238066 2.859369617387574 3.9969811055823476 -0.006461439354627581 -1.2018485458963366 1.4047900892920064
P 2.4798597165669682 1.7217543966144797 9.334555974195963 3.2319700047811244 -1.540662864063637 -3.0546371630924942
P 2.8496555823063288 5.093485708724381 6.117706133240237 -2.702771411057874 1.769879796216068 -2.995949676553615
P 5.085302030754878 6.774284389708134 3.096309023502313 0.48333859796634177 -0.35856244732850506 0.7832984051602897
P 6.452713435880277 5.835400970208127 7.486407144175653 -0.14571958565872326 0.537792506039848 1.0148766384560457
P 8.212297513781376 7.508230596475854 5.126880153820685 1.1812864054742689 -2.31546557304809 0.6495488473792491
P 7.802451082654208 8.418223859768814 13.393063967682432 -0.044105474959646625 1.3841826974543001 0.6364650176120974
P 6.191908857123574 2.536146997652532 10.971955033893103 1.386934292057508 0.9233865035648483 -0.6237485984866936
P 3.95559987602299 0.47779801946686756 0.49567520333684834 0.6188357345661084 -0.6281392713552215 -0.3000963327718122
