# total energy = -340869.8338303724 ev
CRYSTAL
PRIMVEC
9.25464477216166 0.00000000000000 0.00000000000000

0.00000000000000 9.25464477216166 0.00000000000000

0.00000000000000 0.00000000000000 13.54510809788540

PRIMCOORD
 96 1
Ni 5.832730584880895 5.103742219693377 11.4328160596722 -0.1359239397245401 -0.032289713271641166 -0.3703625252872267
Ni 7.0972482218716495 4.733491648079094 7.159971576512482 1.1663038160225074 -0.2437845455539608 -0.6977498325645081
Ni 8.317500893130628 5.134874844556786 12.519323381722339 0.6860883370661798 -1.7521155302541114 0.8411330567805707
Ni 6.672182389536208 0.2900007707884539 12.31704091005483 -0.33472780680275255 0.9043513413102683 0.9304431533013138
Ni 6.079385376159017 8.148363006090294 5.720803060617205 0.252824544269042 -0.018404984869748946 -0.18985000031903435
Ni 5.813480923847632 2.6567123526425087 10.743031295014973 -0.23607175029073538 -1.293604789964727 0.31308914548705435
Ni 3.1432567899029307 4.166330000597161 0.4205199508452786 -0.9748707874870695 1.038290646504612 -1.1025008626339334
Ni 9.091661179233219 6.0117987057138675 5.886135437745578 -1.1648156615127554 -0.1270729170918134 -0.695304456347809
Ni 6.331028420945279 4.029935046602827 4.961058734606686 0.21771227394694118 0.4703295873011835 -1.3963733259832212
Ni 8.271098104466795 5.3021432933621595 3.5026294521044745 0.3796694045104494 -0.199452813516121 0.13005436831764053
Ni 4.354402890750021 1.0081177048145427 12.891733061951554 -0.5509462698129867 0.4858389957906923 1.2421922398207057
Ni 2.3176314244705467 6.483035960594954 3.8661935429031167 -0.47207922300243854 0.5027463130689922 0.6545159615765372
Ni 5.000821315678518 3.1584436619008063 6.622582121119013 0.4458346874836129 -1.7032951663172986 1.8156721719598345
Ni 4.122120562733752 8.476366124523405 3.4506433362765216 -0.738776925709147 0.4118328766168714 -2.2684256980504673
Ni 0.17496738775420462 1.2488032502434088 0.9040251627771791 0.21636835832453705 0.5034723926017394 0.30018966381656687
Ni 3.5330346618923003 4.607406368311229 10.532906437405355 -0.4751205809319236 0.3289230271955174 -0.35065733354881545
Ni 5.321309662592874 6.019729936245361 6.742470490777323 -1.1521313811768674 0.8076413527810286 -0.3246462541970344
Ni 5.102974084180992 1.0784159861648588 4.581686785148951 -0.5869653682200731 0.14315362470375992 -0.9440023800429871
Ni 5.901066881548974 4.139010289361494 2.3396870937851952 -0.5027190593754826 -0.47726436674780387 1.103213829540558
Ni 2.0255640915144357 8.819926300743491 12.436860795342158 1.6187051009800444 -2.394623411626179 0.2783550844399787
Ni 8.990387601979862 3.7361278404379408 5.002370543205907 -0.01672245496100346 -0.44699065546492694 0.2679940529206288
Ni 4.743412627227006 6.294093133837707 4.03625226709384 1.1097626864026693 -0.5657578809045224 2.3867576357248574
Ni 1.6279938086644852 8.600406127806485 1.415571948233495 0.724780354319739 -0.24429285264894704 -1.6062208524701047
Ni 5.448607300820045 5.077634866917015 0.22896546334592244 -0.42209106400976987 0.06948766247817711 -0.9041585085731718
P 0.7366586147376947 3.4104106192525316 3.0352689678997495 0.8883660216256056 0.46208148835977836 -0.7359759659252422
P 4.926006767701168 8.190823316100202 12.36339187270819 0.17443135177111896 -1.0344735867513668 0.36701803429502594
P 7.31228914676053 3.8747161452326986 0.6912599550267976 0.3052657927878936 0.1498865725522193 0.9734309697167494
P 2.030607872890939 2.294337483691354 13.38740257891332 1.0232473790182441 -1.089425003286582 -0.33849190183087513
P 3.8361520406530825 8.066783312817119 5.425262459494852 -0.23539272194583974 -0.927362457493461 2.120775985248567
P 8.921644100943771 7.497789245679137 7.299878668180913 -0.7903722812879357 1.5487003896561329 0.6454859901637852
P 4.6472661231527 2.954017814514402 3.7241190134394984 0.640825094353006 -1.2003385370097135 1.1946959940119553
P 4.166533602781167 0.2133223373629789 1.4476605778972587 -0.4801627713415214 1.1035527009372155 0.12672530394440756
Ni 4.491131011954545 7.230274485185162 10.332194478948107 -0.10752867641129867 -1.037406958348078 -0.31070573285654235
Ni 6.343698029577267 1.5018992742518924 1.017584280906333 0.8062961516070436 -0.15924924471404187 0.569274121587897
Ni 0.8858712516796567 1.2793343231995293 11.89074883729299 -1.8456527774823248 1.8942178308752216 -0.8271480553553884
Ni 3.2075580614698067 6.766875914388293 0.3967540231849822 0.58418420593051 0.15975395226460226 -0.17348749980061093
Ni 8.473339855697501 9.04846049764511 9.247543638630312 -0.4688797422285344 0.41230390271601897 -0.5342898922032282
Ni 2.1532319155307085 1.6555171220841585 2.863883127655099 1.4471945224001463 -0.4274361303717671 -1.2542933939596141
Ni 3.7457434163098444 4.70885578381441 5.687862078174035 -1.8396137703770963 0.35045087396496416 -0.9870981827911967
Ni 8.75436639749367 8.820222449374771 12.863477706133933 2.2695574976620656 0.056468881621005974 -2.2765030757419633
Ni 3.6750101666573345 8.092381660133467 8.062996312194615 0.004835473715430382 -1.1757935006804978 0.1766152467963152
Ni 7.2970652561837435 1.6611902193021342 4.805262343405561 -0.1459962363588776 0.28453138845401965 1.100424182610563
Ni 6.769171066280719 8.062711269137006 10.524183009285185 -0.18736580044459988 1.052816865145245 0.0031678562050203507
Ni 1.0318743778301116 3.8321170155518796 11.555209661658255 0.6316048613063188 -0.4720848794293934 1.3730945579609384
Ni 4.775933448799545 0.2847876294134363 10.67804240334484 -0.01752978135364723 0.5845513594619417 -1.0757742452723669
Ni 1.1188865475583463 5.593146342174605 1.8753880460563375 0.6649309862622742 -1.0502861283035911 -0.6258566459686319
Ni 4.164738201704027 2.4342399480374217 1.4260019328414208 -0.09600293515988627 -1.0543304735762937 0.6261178700498184
Ni 7.918533158926822 3.9470689577125264 10.423190773231543 0.9959502338651881 0.02584884274230387 -0.44733826861233283
Ni 9.238726738598395 7.336869483156849 2.77972694128978 -0.4925475181591194 0.9974502154494821 0.07693563411579007
Ni 0.1696913147950399 7.515937603989823 10.821593048642498 0.38903464777543323 -0.5069554660543334 0.3024128967201308
Ni 3.4725185400189837 4.369173303735159 2.9105728103054864 -2.167537409773822 1.0359010632265127 -0.279835268529931
Ni 2.199542157747267 2.8459976012546746 4.901324630212846 0.5373217370510165 0.6300349457160375 0.36069517740079166
Ni 0.15061101376029182 1.318231594989337 3.8705413749961104 -0.24077172686956597 -1.1618851181295216 -2.0051462769966886
Ni 0.9419655043021601 1.9385519217862006 9.532966136672057 -1.0467575463250425 0.6486795574004183 -0.417042702952585
Ni 7.711738122490169 8.638507500149725 1.1706237134431285 -0.5165634214577426 0.16209288481042408 2.093155652428137
Ni 2.431963305434449 3.6377694762737547 7.942025149103182 0.9171621199216913 0.6969651318796836 0.20189818973282
P 9.207825479853172 7.0355382508284805 0.4363824119082646 -1.584049201469072 0.6254067029154068 2.2712904211927722
P 4.653503753699054 6.025995330725899 2.0347595065157087 -0.3174664486191436 0.3039056792155734 -1.889653865653623
P 7.019527715449854 6.237658310289231 4.92888866406932 -0.45792581432019197 0.542053338198731 0.8436313977223923
P 1.5814984735533757 4.956093617710367 5.5353844025722 1.2817892853870378 -0.2872138203821892 0.1107222436479319
P 2.825350488867556 6.580459605641661 11.515915365609636 0.38093438726580203 0.2655481624832975 0.031079752123940024
P 4.622343364901462 2.520844913397645 8.78172682916614 1.4347766083517677 0.15707280588801337 0.032001235496944884
P 4.027140143895114 5.532269289156914 8.501586882334868 -0.35205627077887114 1.3323070916309314 -0.8405414459431589
P 7.401948144880838 2.5901436931173873 6.697757600240736 0.5101161231705021 1.2285610221905163 0.2598639676143267
Ni 1.8813026895017018 0.32160908439085895 5.459545365423512 2.0737032001304803 -2.437935444150253 -2.0955601481045716
Ni 3.1305964359156695 1.1103260011853813 9.088875531170233 -0.4724114095308767 -1.625314635876762 -1.7220516209891954
Ni 7.197809191480987 2.176673930625541 8.791750534870527 0.04865889865828394 -0.21936677883122865 0.46634566295277113
Ni 0.9842592307069711 9.189223643950838 7.610508967531503 0.7071014489827371 0.12643399795623386 0.1424455428931418
Ni 6.674283193889357 7.758270476180189 3.198379304829043 -0.03905814234372629 -0.2337760122780232 1.1821143006922028
Ni 5.972068515898583 9.12833733628842 8.49050722166707 -1.0174030044223252 0.19037039159887859 0.43738732804720803
Ni 4.515942714469052 0.4507502478477545 6.658219907035783 -0.78139167505588 1.6141755885408071 1.1090296648913867
Ni 8.616453681764021 8.295632167639477 4.983570657906403 -0.1872094773723937 0.5331753189828108 0.5142314308904563
Ni 7.671674765464693 0.4632986206338121 7.0662257272804965 0.7025153722739514 -0.8922195910437408 -1.2230267226358484
Ni 7.225008592335197 5.996297175795256 1.6481957726402097 0.5613674651463106 0.7296176278073823 -1.9720134989984617
Ni 7.900671694602688 2.914454208304212 2.8003425878848254 -0.11092124703261541 -0.32379547616096493 -1.3724556388253588
Ni 2.1165094852518704 6.4339030517364995 9.362554810517215 0.6188465331993858 -0.20845990211073775 2.8815355858763922
Ni 5.820819857116564 4.38759930138767 9.047658119947233 -0.5922338157078639 0.3568734896618564 -0.14061003234629976
Ni 1.1910265032094407 6.140632614965809 12.68286683602488 0.9511929842541553 -1.5450661353376554 -0.1920233538212693
Ni 0.643802136864025 3.644951080582318 0.5424896901028113 -1.4890258566136356 1.1514670081199911 0.5835064631371951
Ni 0.006327400600212087 3.911160936169711 7.471590271919973 0.4080988634957359 -0.7789162169321939 0.26727157293230747
Ni 5.535397359074819 7.829929190305451 1.0488881166972024 -1.1937547131446085 -0.34735809397225337 -0.8919948766274445
Ni 7.533077206025207 2.563407024499554 12.643301378885747 1.0457879833229216 -0.5141481271480306 -0.8109927857517645
Ni 6.703768491991267 6.881207795352195 8.444779096603872 0.608317608643604 -0.06049471495094742 0.25566869858605645
Ni 1.8563984405399192 6.602022927856805 7.280604019606887 -0.5352126611278136 -0.12123034226810733 -3.1556475787693006
Ni 7.060248152250985 6.936078583941718 12.643261583913418 -1.4740872330259323 2.039729671398513 1.3868329905929535
Ni 9.010044467381135 5.916022387428662 8.815576617721552 -0.8890643332442109 -0.07762417554238243 0.509736114123264
Ni 3.2405693792129058 2.1682984771471268 11.107137707994648 -0.9692516415280791 0.5493766113330216 0.6945169274495072
Ni 0.28085347993976345 1.7270185072490534 6.005047442385134 -1.488148853325321 0.779814046156115 3.113189923825722
P 1.5543268366333483 8.756624530807187 3.4583506044056085 -0.579011403480319 -0.20807937884286745 1.0546634314356804
P 4.514998740706845 3.533580685931225 12.208869846086046 -0.37467555084028376 0.4977362614489105 1.7482025683529505
P 7.9368018276189645 1.2512742403856592 10.792931413921341 -0.05838486769679622 0.6656200419094989 0.0744347220708073
P 7.384567922082537 0.538433379318735 3.086903407228056 0.21198642720675753 -0.28046441747349765 -1.9474584353669173
P 7.511245499112964 6.155106879319666 10.661896750153192 1.4973811705568665 -0.9817289480594833 -1.7318323545250431
P 2.2975025721881694 1.7237608723049629 6.953164509037684 0.37563508654007566 0.5100405327375603 0.7863816720713037
P 1.3929535965194122 9.020020974397411 9.72399218395747 0.6969497052607159 -0.6931084771377547 1.265882384348794
P 0.8715691237177323 4.165635902242596 9.561722168769437 0.19196344711761135 0.5106362573400303 -1.4723977611386512
