# total energy = -340874.1531160549 ev
CRYSTAL
PRIMVEC
9.16876995099363 0.00000000000000 0.00000000000000

0.00000000000000 9.16876995099363 0.00000000000000

0.00000000000000 0.00000000000000 13.41942161674711

PRIMCOORD
 96 1
Ni 8.12208142160378 1.65303751628501 1.1015094203654328 -2.0490622616533485 1.2748311089016497 -0.5183230844613267
Ni 8.014605101420228 9.040663797811725 3.665112140501407 0.7021374201092424 0.4437718914173132 -0.022810570136612328
Ni 8.186070266388034 0.2316691415579156 6.783987482163764 -0.6324193867878141 -0.6783256624016253 -0.5889176068504374
Ni 8.843654440041377 6.828908953167629 3.232336117927108 0.7621878484339196 -0.3692188986010867 0.7102865315789381
Ni 6.988326354552327 2.2161375166324717 6.308738050135591 -0.2725148236091178 0.6971903605166122 -0.04737926061491195
Ni 8.542432844154131 8.536757375616883 9.070763952352808 -0.4168020476966886 1.1507815520171922 0.6416265072083789
Ni 1.1802774052711562 7.99213244651749 7.340074290452839 0.24908076095589363 0.21039182902612796 -0.3280830477927253
Ni 5.59750648721199 0.03541437354623579 7.0532348269525516 -0.28244570956958454 -1.1861964411813766 0.14375757683634596
Ni 0.2836093058820764 0.9094282763895449 12.613303393112377 1.4405631331265578 -0.2665516640471474 -0.832703952176611
Ni 5.914186629066602 6.409932846094802 7.101933831134681 -1.390389340485644 0.12938382461317718 0.33596964962965364
Ni 2.0814849626130494 3.2357597365891566 8.644107166776504 0.7677560865503165 0.14829068882000915 -1.5273021264860147
Ni 4.675384965841886 3.8815895472945954 3.3131881642197722 1.304279496069754 1.2355659927534397 0.30966469318653767
Ni 4.152856772081374 3.090572266011903 1.2527152714723306 0.38661395414908256 -0.4200825182201733 -0.45644820133340097
Ni 2.680609059701782 1.8669815919685997 2.5931151565296635 -1.5214844913629733 0.5235712202341434 0.6577272694249834
Ni 0.5106610549434524 1.8538519135431735 3.5882329221848157 -1.2406400648422375 0.17572153133745222 -0.5043200853140153
Ni 6.890541424100391 7.324086706465118 10.658495988503082 -0.17352915167182376 0.13534312752040562 0.6585189120883432
Ni 2.015332288144158 8.463379710506068 9.598281790665776 0.02450698400242876 -0.13745580298803425 -0.4169802251457657
Ni 5.42940626077919 4.954051387897742 0.3970279058055175 -0.15404687457749597 0.052566975463438505 -1.2682465137055965
Ni 8.253332362008795 6.897097094543254 7.385177303099737 -0.04834676673450383 0.11361499181469466 -0.7912621400920566
Ni 4.810716008830219 4.075710742562143 5.901579570522634 0.3011664259075394 0.6981702079313783 -0.1041186222884852
Ni 1.4314008426971374 8.62294381220837 3.4241128587439706 0.48256546724574306 -0.13506544837898676 -0.6841309562294928
Ni 2.2297623086298066 1.2048863835489807 7.40474254108299 -0.6723352491461453 -0.3577934303729644 0.3862282886748897
Ni 4.441746372520157 8.64561818004781 11.560321520932876 1.2603786809217454 -0.04251499054407517 -0.33944732376560893
Ni 7.353958558636933 9.1407042456468 12.376410803370824 -1.23284705116038 -0.47436981880882817 1.4187195548889049
P 6.683217200248615 3.555538922653122 1.7391304314240248 -1.3412038798999288 -0.3804147673169061 0.6685392724388228
P 3.3019490861374488 7.163789103174804 13.279537384242357 1.3355245701269645 -1.2681269574085965 0.674733831285309
P 8.960272023765537 8.133478202527527 11.368893193370319 0.9129347121039051 0.2937541926038683 -0.032101765630551164
P 6.413132746772507 7.803851757644492 8.66584632009123 0.42690802578243897 0.33344276944274187 -0.9914502891123054
P 3.7657329714679975 0.3188513065551292 8.72242221445163 0.31051392856071036 -0.15526403481404874 -0.5409765601947845
P 1.7747254297363086 6.174240448326636 8.82239756402077 4.615187510108678 1.057893508337204 -1.5433548090735034
P 5.909831463387777 5.545015279819834 4.824148256660702 0.8342463569630665 0.28208986889206256 -1.0552992652474664
P 8.475519161787677 3.0215681041196127 11.98960882657919 1.2102799644931415 -0.9348371686039512 -1.844853935730113
Ni 8.495195341886117 1.4434669438199452 10.325198368172044 0.7315791224091271 0.25641251873061643 0.8832076173531177
Ni 6.650878948987108 3.1178952001653744 10.57843612392547 -0.8238686132731682 -0.07711278312360267 -1.3604889533817859
Ni 2.4678294177891624 3.6955277007253367 6.325592999751137 0.43256805228169376 -0.8297307284809 0.4591869404208027
Ni 4.438207227357996 2.0791194199917085 7.175069440721453 0.2470552458854326 0.6611699765579452 0.7641614272205226
Ni 4.522018952558291 6.356442242788979 2.1869093121041376 -2.485676716090274 -0.9683766951222936 -0.2950523425900015
Ni 2.2319078007747435 8.241963087394598 11.913239391866268 -2.912880932956893 1.9287305199401106 0.24298853201522672
Ni 6.878154416032827 5.911060078547698 1.947359612860011 0.17626403410448355 0.037899346148934726 1.4245428464389016
Ni 8.176644770982072 4.132841347498479 0.2658805724998106 0.426782041727536 1.1774415778068819 1.070598614608698
Ni 0.6826589254395538 5.512777885026678 12.41262927803292 -0.4168020476966886 0.44591876255698687 -0.2693078866360459
Ni 0.3304415485227141 2.9378388978479686 6.705698107044218 -0.4682721905515226 -0.5658100742986966 -1.0168998395336617
Ni 4.273636977317508 7.1722885528259 9.30367179471748 1.682219576593922 0.4560157417816727 1.9302585265488628
Ni 6.403936470612799 2.768354187167796 12.849887912186961 0.12661628917036905 0.3551223112987045 1.0391478522985846
Ni 5.6594323587799575 7.926493223160208 3.3031501949878193 2.1013721268006584 1.3078687560829088 -0.3606789794508756
Ni 8.971604623300333 8.399299178023313 1.3336425016777662 -0.15808350654071485 0.36878103973271975 -0.5723684442425045
Ni 7.855490269440583 5.012053025969843 11.114193018825791 -0.5397288038306125 0.4133359435249591 0.636905961804258
Ni 7.9646811495861165 3.178619962882972 8.561590988756036 -0.3801460870365517 -0.40779753020523324 -0.12464193905281759
Ni 5.656480014888206 7.628049764537561 0.4555677506678221 -1.0864844326010192 -0.08615226761805164 -0.643382313557221
Ni 2.1943250131589456 6.164842459230225 3.9267374869137592 0.8405162491321783 1.3160631189682432 -0.35583913486007107
Ni 1.791797679197303 6.917405919761355 1.5429517642021011 0.2649542376530405 -0.8295083280574488 0.3969256204877358
Ni 3.9073354530338396 4.888072920056004 8.011891145544581 -1.7676452504585944 0.9031452368173091 -0.39879635514788736
Ni 7.6111425529338685 6.412380907644794 13.110587212844447 -0.4142060048347383 1.375003087837561 -1.4809556780109914
Ni 1.5966129066271368 2.894819029711027 13.001392665190973 -0.43882663159689583 0.5942773285004539 -1.5209895540044258
Ni 6.546419154084256 1.0676207301222633 9.082868562308986 -0.5798069027984207 -0.684523306571905 -0.9377198894683849
Ni 3.3957822767839674 0.06615817573080103 5.493294249095093 0.33601490104529225 -0.17383588427896512 -0.2891827711831019
P 2.901154649677486 4.6587711548734 2.303188568220828 -0.6561604391584958 -0.1955766183901664 -0.12401587543304449
P 9.044276293132686 6.027439274255754 1.1850891756885191 0.5002412872589515 -0.10762329300763401 -0.02825333841873844
P 2.9807304032070085 3.910150265377838 10.473402364030001 0.3270985723922689 0.5708622920106232 0.5659586840614189
P 8.534978634265952 3.434171916146579 4.7528234791193364 -0.08961965734136178 -0.14727561729193347 0.6951586747985641
P 2.9381689735625747 1.3655599064031518 12.426840871300664 0.6076910308031986 -1.729698853121808 0.08577174435018131
P 3.531516745645708 8.00778353665171 3.5223296382558495 -0.41640095560352797 0.37893201212379257 -0.44329289489836554
P 5.628762823631178 5.943004072705648 11.809184856590793 0.3218434946409167 0.11080477605940918 0.9368734823076897
P 6.0154556920615985 1.1163252355663031 11.189100034747613 -0.8232716031191177 0.391007712341404 0.25560724922050176
Ni 0.6597342501832034 4.156258385695783 10.13185101707985 -0.4017379542747146 -0.2611127524197632 1.886590910457583
Ni 1.630885768327028 3.975541931949166 4.134295514396714 0.5569235704423441 -2.1524419488932804 -1.9216797837409163
Ni 7.387030311486454 4.638774067830205 6.503347023959168 0.669565142600176 -0.19518118272396062 -1.2041622816311779
Ni 6.849511179020934 1.726158455840021 3.143298193912222 -0.3564487434196119 1.524871662667651 -0.3185596816833223
Ni 0.8278894892351035 3.3703572779894784 1.6578758761349384 2.5602376793263004 -0.13983381630190755 -0.0577012113662103
Ni 0.21604005647133603 6.555212004370557 9.897346891884265 -2.2340855300077007 0.05761070853493304 2.4871479013191617
Ni 5.059152996690105 2.1337011069097 4.679164332774122 -1.8063395817049985 -1.0226182300746773 0.7234847754367669
Ni 0.3833242623874712 4.99101069916373 7.931079441839256 -0.45529866110999007 -0.6868609535661462 -0.7413485430910652
Ni 4.640011851759977 0.9305201145528486 2.559218214393629 1.0184515002914976 -1.0420385435828183 -0.3928697052508073
Ni 1.773185076401482 1.8747383712618337 10.448911662883242 0.6585919314181239 -1.0432657311217002 1.3853808315274592
Ni 0.9722380173710681 0.5996366313233569 5.439455232534964 -0.5595000729202687 -0.6927948025520778 0.77312994926772
Ni 4.38800821242838 2.1021972137045566 9.809395467096623 -0.35917231299836205 0.2603316512793646 0.34821092889085187
Ni 4.025447546243577 3.3361485976785388 12.423740910214327 -0.11595778101525836 -0.40205831372861084 -2.2112425639712563
Ni 8.571332806721829 4.426012763457285 2.8239691944479 -1.6273080121577073 0.3590640695552719 1.3638905228641671
Ni 4.729361513949767 7.318869676420379 5.399693028325784 -0.7716549073840905 -0.2474655939499738 -1.1420783678162394
Ni 3.524365105162585 7.589366724539743 7.372079715368787 -1.1138342853688816 -0.27430688251253404 -1.7813705704644869
Ni 2.616519358449177 5.048058785171414 13.439415974750519 1.7191506452923166 0.29434323233811893 1.580744048355239
Ni 3.069584951824891 6.195612850847356 11.095378703093266 -0.48081557443417183 -1.1858002341842224 0.33592054155927314
Ni 5.152399386066213 0.9670301560961783 0.04227628090209414 -0.9429672539102535 -0.8767569766317674 0.11789459302665503
Ni 2.848892661531585 8.961179731980703 0.9693040110190176 0.03153740848664891 1.72957055507406 0.26938810505467803
Ni 7.18733450415001 5.476964669991961 8.836769610760893 -0.23137203082222088 -0.5283388168261158 1.7355601969985917
Ni 4.985922031896892 5.001985716674369 10.010083335330853 0.5632173738708557 -1.4759355990885805 0.9715062418902108
Ni 0.5438226617375043 5.360897212458809 5.47693532992844 -0.9523520375592631 1.1119900330712915 1.0271639404638309
Ni 7.266946932758932 7.42332030255338 5.104184492932172 -2.8580210476942196 -1.2125520483567698 0.41192800743383895
P 2.6908230693148583 1.9599070743999525 5.003914825850843 -0.2918551758089425 1.1681925484047881 -0.7267302789572581
P 3.1134575155578976 5.659872459732766 5.9600754052896585 0.19093680562530985 1.4696834475312817 -0.344428064809652
P 5.8135043673420155 3.9562691777241334 7.933977689988892 0.9903742824393074 -0.9298782819367791 0.6553199455350713
P 0.1476896278693622 1.3402816079262658 8.205841801692916 0.209164127266614 0.18861612791193322 1.050775409235184
P 0.03706475211926426 7.626573592591685 5.507142759076771 2.6467313894441706 0.2545507829315294 -0.7375034583133621
P 6.874129326068608 9.122999351066143 1.4111195237885874 -1.2605110927345518 -0.21645706138360143 0.8465678546428969
P 0.8926320069010402 1.2288077040880432 1.3244379736251926 3.1645374250597627 -0.9253395135261612 0.9723279664605576
P 6.255915850151846 0.4916560287980446 5.061926549569777 1.2761130609378668 -1.303714367594903 -0.6959472321381305
