# total energy = -340855.402635531 ev
CRYSTAL
PRIMVEC
9.40242134104808 0.00000000000000 0.00000000000000
0.00000000000000 9.40242134104808 0.00000000000000
0.00000000000000 0.00000000000000 13.76139404393331
PRIMCOORD
 96 1
Ni 2.9229964851965455 8.860033099751663 11.535336902929998 0.37167018835505666 -1.6823422182147156 2.6064720277034916
Ni 0.9393206794459072 1.5949327025926332 3.426243213570865 0.9222575321667278 0.14537994293111736 1.2504048575384852
Ni 5.2610683495813975 4.655232744093843 2.8347641649635134 2.7949865970405545 -2.550602727339698 -3.5726769119854476
Ni 6.378621324672802 1.5400319653973351 10.982321278833439 -2.3474038165175832 -0.46984082059022303 0.301827456530306
Ni 6.025456983211494 8.507602147141396 8.856626602562784 1.043245933627358 0.1482752622010414 1.0948466885227852
Ni 1.568558911218629 8.013674158385891 7.406492126187194 -3.63661741939315 -2.4894456962144034 0.6560722503200637
Ni 8.978428387089082 1.4609858106446603 5.513639947943269 -0.11932566904622674 -0.10392347555854359 0.697831850755353
Ni 6.2355916938773115 3.7671740648515266 8.770837971591108 0.10978636209722384 0.6941094075984433 1.0533298002259215
Ni 7.892834241545 4.4528832381544685 10.534388053943658 -0.6063553427109105 -3.381863776422195 0.6516831201134325
Ni 2.6774428539938735 7.002895078069241 -0.07103529191821814 0.9087556410255512 -0.12179238541916446 0.24450933953512727
Ni 8.31927165116232 8.082396454696978 8.000599151510778 0.003574861835451908 -0.309709430381544 -0.3702830781995429
Ni 1.549979726992236 2.8078920452676472 5.531309918042793 0.7825610127736329 -0.8789650400266799 -0.635440690112641
Ni 2.535720159740624 4.072527094677609 3.1374459669359935 0.10638582105610711 1.0852600732756148 1.5764881012923624
Ni 1.6358614419334676 1.1767506187601156 12.6732799685646 -0.28466919958346454 0.9406224078271608 -0.2087211261919244
Ni 6.360267798554423 5.972521352040141 11.460530299881615 -1.615207372239431 0.5801827980806008 1.8231180867149182
Ni 7.036038612683632 8.580320472448543 11.092192331140673 0.9365150705270066 -0.14623226362908362 -0.00044917172227664583
Ni 3.9960948130094165 8.774217201758601 2.829824132882265 0.8415809429512666 -0.2737659224073995 1.0800065381861592
Ni 5.713371819829693 5.994344371569219 0.8178808881345476 1.3783408939615422 -0.5820435054384234 0.5654763451083615
Ni 1.5539287438824612 8.83644242504315 5.308925733080343 0.3801633134277324 1.4075781935601048 -2.6798230297918173
Ni 1.3296245845176682 7.345397073926943 2.078479478137429 0.057011127277721174 -1.1683501570285748 -0.2050465055538146
Ni 6.865064986179213 3.443740179120913 4.052193418661416 0.20765874636568107 -0.3533893877679979 0.8124472588101042
Ni 4.067637835670663 2.7733287450570097 10.56558528737644 0.5669390456968172 0.45556065652212513 -1.1991715132848058
Ni 8.059360522837329 7.234128821834263 1.8144811173310549 1.4897439657265827 0.1296735879394541 -2.077406617123996
Ni 6.561112917107044 2.9281678168385072 1.5675744777224228 -2.1995440445874057 1.1749013278835314 2.2659543536918396
P -0.10876062636738647 3.573531200912982 6.641716112805009 -0.31142641307265073 0.023506053541740162 -0.005728932063977231
P 0.19221087519477936 5.6079988858088505 10.294884880762082 1.3764840432584615 1.8391406873954195 -0.17222303126589047
P 4.1439948979695185 6.523230562224384 12.100476008879546 0.481849415015325 1.7239796912498437 0.37157480042777297
P 5.788374933480472 1.625876070653898 6.286066711429208 -0.7292923832574796 0.5615469281469684 -0.9012863292316995
P 7.5494484180975805 5.182652157046925 2.9686903715849184 0.519585496113518 -0.36861314669628775 -0.06303830730840757
P 4.3279062560000074 1.3527075284831513 2.0106908422482457 0.800708373106621 0.08493150783707307 -2.1780853604929975
P 7.577326596858337 6.370422413415001 13.38341005036512 0.0947415519489594 1.0437940928213443 -0.2838392474830015
P 2.185254313154302 3.7611847225680184 10.029399997169175 0.16294520550839034 -0.6862703711699988 0.08981377563003887
Ni 4.533546609347903 6.766320759081249 8.309198837365896 1.798816019634444 -0.12304451265871068 0.36127059028828745
Ni 4.312279432020117 6.378687141620974 3.5085773950057106 -3.0869304759085607 2.9823997057833216 2.778097020374067
Ni 2.167605968623462 1.0260392098710198 10.099293835157694 -0.5507755485630772 1.428518800367514 -0.9765116655246022
Ni 8.681970047687173 5.039227624562411 1.0285778635861647 2.385119585900802 1.4891225300925 2.8065102814094374
Ni 2.328660040796481 7.96607910243751 9.5006595440421 -1.2057694782172976 -2.3181706306840786 1.116592050619677
Ni 8.472822591243911 2.0052073502235332 11.719781378240667 1.496570501730113 0.07260666772313303 2.515606413770171
Ni 4.1997888651757 1.6337552995920142 12.53307952629832 -0.30392033450359274 -0.1643246023544202 1.4340474434952268
Ni 7.1124896991941595 8.915300531372482 4.8128821995622175 0.17839187908076376 -0.08362487321050759 1.546155254636776
Ni 9.397061787137625 5.374640194860041 8.150171927196526 0.11720579448974652 0.15586927249821544 -0.8104675093759139
Ni 3.337840709514706 -0.02103697711949984 0.4479783565113836 0.8157950922364144 0.25608521729818473 -0.011054715152264832
Ni 9.296596916966061 4.227911506886804 4.615942846762453 -1.0794781764865151 1.254809414364084 0.690345826790953
Ni 5.425676536955618 1.6786988727712442 8.502339612014111 -0.8842895375633868 -0.8852264475553594 0.05673653346009583
Ni 2.166581104716237 6.447061548348873 11.195224062290881 -2.8303541779065706 0.3539411465064098 0.9806359721056209
Ni 6.487313313365668 7.107891915243396 3.3297066749629587 0.11290613867312813 -1.146250496916058 1.0305243722956317
Ni 1.6069772041078203 3.099348296608604 7.963388129499457 0.511749545008867 -0.3438912184695755 0.7441132503203959
Ni 4.690350787153346 4.705620319128884 13.098301373554142 0.7020451175057522 -0.6979658052300559 -1.6425379417335841
Ni 7.6345497320819335 6.4352521073628655 9.648911279553856 -0.4868872345495486 2.0699501608459516 -1.9878815763789697
Ni 5.667074298002386 1.156149913982774 3.7292691441580645 0.06826150338055986 0.2622784905930902 0.498724850614425
Ni 5.618924499205141 8.09862503363157 1.4442993337992251 -0.1395445671962629 1.6161910763089393 -1.2912360326222343
Ni 9.26460047773407 9.011712958020981 3.05954314659725 -0.3200653196945713 -1.6269462579429141 0.7745563973016015
Ni 3.79973464935355 5.138724045353753 10.544901841292825 1.7250474703927257 -1.0866484689827092 -0.9784880725246827
Ni 0.5551509139436296 3.8820058345665758 11.557974172132155 -0.24737200579490298 0.21534145972191943 -0.4899615025994981
Ni 8.14730136801418 9.448681079345569 13.897081243087515 -0.057487809803823585 -0.5192970183388218 -0.4872944972902962
Ni 7.825362467249151 6.596907934490586 5.972747950390271 -0.9783893421632891 -0.036379567070298637 0.061191741017972034
P 7.077296436765318 2.033753100887161 13.637981543709255 -1.1687494493495225 -2.9626235515976593 -3.0525941645205363
P 0.8273886164188232 3.2361065124855704 13.586266346805406 -2.270620648819257 0.6870201048518297 -1.618938042926457
P 8.099104557111096 1.2645034155136206 9.846744802606622 0.7476495456084286 -1.3075985331406577 -2.8366888618753467
P 6.623507383972604 5.621867457030475 7.815205971904338 0.5304648620301832 1.9076186776621598 0.2521681416319657
P 9.051804881877933 8.63122518064778 5.969664896489545 -2.2005035802871973 -0.6084554197730488 1.0352845126884362
P 2.039347541481647 9.122849576217318 3.040359386689806 -0.8466550150400645 0.5179261061332242 1.0527914112239483
P 6.022899524654015 3.647396621602528 11.312842709639892 -1.2077309728190426 1.5558233738541591 0.2171638576426389
P 2.7036097921022 6.0745846338101295 7.7353897588580685 -1.2391958761965431 0.07928253708141185 -0.05963210984033602
Ni 7.577420621070009 4.112901091169578 13.385295235809144 -2.389224094987479 -1.6090272115706483 -4.344031000299667
Ni 9.492872458831423 7.983304338015825 10.234211056970123 -0.13302862045461605 -0.5374556915257196 -0.6727792786620994
Ni 3.7288027840681712 9.131706656956824 8.561747869916966 2.3298699213988776 1.797190311105563 0.33682068477603927
Ni 5.86828611098053 4.594850395358066 6.145480769895072 -0.7147869905524528 -0.1190850137903304 -0.488311882811217
Ni 1.763574528647585 4.883636359087537 1.1846683976250172 -0.28738325608051796 2.2039480871923716 -1.9478032203008455
Ni 3.428508256830044 1.9795763501217378 3.7378422717783204 -1.0697311244020802 1.6065823495745815 -0.3473501235524534
Ni 7.976449972984934 1.4346778362188264 3.4349122458870256 -0.21604285666431824 1.7500846158670116 -0.7522034835276981
Ni 8.507461110823886 3.0471272494459587 8.524068607331518 0.041469579998696326 -0.37820361859820023 0.6562861661030827
Ni 2.5966102392194306 3.7735771136663914 12.59416611637952 1.276989292895233 -0.2678788674990032 -0.5322672053462446
Ni 3.956049901258299 3.108346413665617 0.8133931125114416 0.42840620759452025 -0.1456527369765298 1.230901497398235
Ni 2.6133935610028876 5.05066096870173 5.849858305734928 -0.824792153528702 0.5592074813805142 -0.7427611071678756
Ni 8.671589774718582 2.156595733436667 1.1711881463975984 2.1031305042526616 -0.4926130812897322 0.05330719606357271
Ni 3.944663569224816 4.26617936103732 8.259093334965872 -0.7406533167962535 -0.10197355092102438 -0.2998423077794771
Ni 1.728277839585905 2.6246576615611965 1.452832031008462 3.978835621035676 -2.792106704389598 -0.1767512581535472
Ni 3.3324719270282332 7.687457155989785 6.200732217399906 2.2895519385061216 -1.795286666324947 -1.2822024616650562
Ni 7.495779398075186 0.9761405607366739 7.479097622440335 -0.5096322415555481 -0.255605706558605 -0.08131319435819545
Ni 5.53451896438716 9.15353907890707 13.096264809129325 0.5476976809687019 0.007388064933955019 -0.6352239461161447
Ni 3.548868650191409 0.7092979675272213 5.458553042808861 -0.4417749155919424 -0.6018857369753312 1.5796652134687634
Ni 0.3076979936651828 0.6803921041328893 8.265078916280913 -2.0731015619907396 0.49048575053408433 1.4086997087590578
Ni 1.2052963694237437 0.5165586762628451 1.2000291330858766 -1.3716889358626634 -2.17700395450336 -0.6636876007734763
Ni 0.24824742486707538 7.281545231780468 13.618495025840227 -0.48993887689167887 0.5832015303022666 -0.6498776914735775
Ni 5.089521175385779 9.046229246125783 6.7966426271033615 2.2421122569669194 -0.5569801347118924 -1.2825788711678685
Ni 3.8030348991832383 3.0210261282858033 6.132489444568348 1.6521507822329997 -0.7700024593823319 0.34673100191121575
Ni 0.2918144835874269 3.596905619934648 2.544839568030694 -2.85155112369916 2.453979642097309 1.7730101143149335
P 4.198669977056803 4.318438017884634 4.449609315104049 -0.4390256349815794 -1.1530160977746657 3.5315770566213436
P 2.1332871313631716 0.5430810258912911 7.523312507979107 2.8477633745219535 3.213516940282259 -1.8828458415928542
P 3.658754746372509 5.721862206143678 1.7156607306216356 -0.8700265998864694 -0.31454207588349703 -3.1316550725094454
P 0.9412669806275182 5.991279182268712 3.7913467494302884 0.6240360478201252 -0.917948877489045 -0.07964557684778542
P 4.404535988512712 0.6187376078131894 10.611864944603528 0.5613394401218526 -0.7450820419915685 -1.3032027180658072
P 0.2608288046309096 9.047047256767328 12.005770121672896 -0.23872692852539532 0.23378758224224896 1.840215151406521
P 5.403938139217045 7.258236629706972 5.087242968736965 0.22361861212904713 1.3733318707827253 3.0166424290162754
P 7.116062619237695 9.097745111700887 2.6096278913254225 -0.05881604169694387 -0.006983373296368617 -0.7753886633949096
