# total energy = -340894.4963967017 ev
CRYSTAL
PRIMVEC
9.03159993542291 0.00000000000000 0.00000000000000
0.00000000000000 9.03159993542291 0.00000000000000
0.00000000000000 0.00000000000000 13.21865943361039
PRIMCOORD
 96 1
Ni 6.4561035781774345 1.7635824120301207 11.532024280423082 0.5454934742285314 0.4007159407681034 -0.3749655712768768
Ni 4.58488256081221 0.39757372868206525 6.0270339518292255 -0.2803201785861495 -0.6900437221695019 -0.20428623034902235
Ni 2.780495381295599 1.538216904484657 4.615796823457077 0.18938591619842224 0.09152972987988107 1.408692509670206
Ni 3.302277991299369 4.338446331145015 4.773548162939048 -0.8549031139814696 0.030970737349901502 0.15341952540614223
Ni 4.9622498914647215 4.6362813947576775 2.5906321890473127 0.5461563046235111 -1.4727044937457927 -1.0642284494162964
Ni 7.295220475566185 6.112080913651556 2.5939106597417783 -0.21894074703740363 -0.05488019697764743 0.0602993111106897
Ni 4.936482737494169 4.612907614710081 11.474615820031065 1.331304875618662 0.03431214301830865 -0.7709887345550012
Ni 5.662632385719345 7.972436916566526 12.28667765733072 -1.2525586706566945 0.581049002735638 1.3295151307080908
Ni 1.8295853427054802 6.483640925691004 0.25117962583450487 0.412537873103696 -0.15168660187543553 0.6493794116809204
Ni 2.581113786113711 1.5157282212085696 0.42776004439036497 0.690597794900759 -1.012023742388283 0.5373489907445261
Ni 0.6161854059649353 9.020834042418526 4.81643019835867 -1.1087021063486389 -0.40567097078053366 -0.6436574215954786
Ni 8.70294882745128 2.3423092582008507 1.4711572766433125 -0.10670232385526139 0.7198237816454119 0.1919642184485597
Ni 6.916940953343037 0.6493295705780215 5.003698612010484 -0.8333084185298295 -0.13864570953107735 -1.5571881154121696
Ni 0.7999486557695795 7.510976361020982 2.535431051624242 0.2780046430790954 -0.24133556979283596 -0.10962001172268863
Ni 7.569022452352474 4.0091542057449585 3.709353866035559 0.5288538087893214 -0.42613360951025964 0.5206147087089809
Ni 7.5888287505149075 3.8243134860949985 12.568406669181838 0.8014784185034262 0.04596155433177891 0.045587973042444066
Ni 7.7378501457178945 8.730558427762524 7.015763814201921 0.1694917483776565 -0.0606968036594245 0.34294350984432553
Ni 6.874645971904516 0.7010228346740107 0.6218771201017186 0.7109478193120208 0.047081269758518916 -0.8090220351786389
Ni 1.8649621187666987 6.491001679454061 9.031410948838055 -0.7257059514578017 0.40144022052863765 1.2297514429541918
Ni 0.040409183419224684 4.947438067941515 1.3515554143333075 0.2657857324154003 -1.191568247016251 0.10888519043919312
Ni 6.346703810899022 1.9719594805224436 6.935182978435825 0.45465177155461056 0.7793247652245223 0.02773937489679739
Ni 3.5007744897097486 4.454818493398985 0.3992310272287167 -0.15501952290341042 -0.30991691840665975 0.23028985350163567
Ni 5.887130859692718 5.4699883639205735 4.768763221413075 0.8616388900434064 0.7593017851353762 0.7628149404949572
Ni 5.3020367357269516 2.7677517941058163 9.47850584188603 0.009197864449184159 0.4672008118642147 -0.09011562314117383
P 0.21489878664238835 5.435216705039877 12.449174199299943 -0.010837714045452302 0.1929900886099128 -1.336806779273498
P 3.9521738431791618 6.294284406186408 12.458440620601655 0.1393118823601665 -0.24004873266061239 -0.014846835204845399
P 2.511958827139815 8.51883063577806 1.4485665362905105 -0.6712597566937794 -0.22501832069005118 -0.3781840782141745
P 6.03535747412129 7.607126771525892 5.936724276856301 0.9942183387757457 0.6806129157739053 -0.014483281217839573
P 4.69740726159003 0.9993465078309444 12.629926313761516 -0.1249954657374944 -0.9672160991552892 0.6979742898704883
P 3.9499069116521346 6.009870299741724 8.338370241987098 1.3322998925420797 1.9184589628107735 -0.8992075923257998
P 4.888940396624561 0.9193987872044688 3.7676880653977762 -0.17194612345542 0.511315799905558 2.245363159804049
P 0.2571702859216649 5.5039652420268546 3.51021522088585 0.006125139061131386 1.1239852577599547 0.553632301285582
Ni 1.3976761814086758 1.1005094561744997 2.7412458552790446 0.6088140886640483 -0.7765734277316303 -1.3959874033987119
Ni 1.7401092843857229 6.523759291599591 4.798650591170998 0.306776058784833 -0.17998647726139322 -0.4292179048625382
Ni 6.181651326212077 5.7192424526970616 9.212189254938783 -0.8318333766461997 -0.6971250544963156 1.4497067472990388
Ni 8.704159061812321 2.200946659551325 10.257097473823093 -0.18086759431476593 0.9929991216566639 0.08095683946004122
Ni 2.305704184579171 5.2217006563129775 7.15215361405152 -0.4254669224605382 -0.46582707144513974 -2.184369650839812
Ni 0.546047808942671 9.244745462410798 9.169995427417007 0.2848221802215611 -0.4555997372901767 -0.6286087547924722
Ni 1.5366273429358253 0.9695693235894747 11.42664538133524 0.04332951602557054 1.8280476628060516 -0.7889509754603767
Ni 4.349835178378407 6.801616456655343 1.3239412982222083 -1.2994766753644718 1.2713778602457266 1.0094091875835713
Ni 5.367868066007834 7.919800753460888 8.265363305737198 0.28916940144666325 -0.4987580178452055 -0.46453483499627735
Ni 5.162615931014921 3.1054162124363676 4.8107592569012185 1.20475055003448 -1.7572171131467351 0.18404984869748947
Ni 0.7238673629786433 7.456407435577561 6.85453530883188 -0.17709732863905628 -0.19138443468568975 0.6308507567491135
Ni 5.094734427600032 4.598041601588619 7.058631399062008 -0.21100683690230757 -0.669325515785544 0.1430312401932827
Ni 8.21912603102558 7.277654014131651 9.267627923434208 0.044440489701562176 -0.3911869182317457 -0.5681212389303764
Ni 4.436186303198756 0.49760953338190356 10.4660715310562 0.7109290502589434 -0.7235120291302766 0.2620776874361938
Ni 8.020466963820434 7.196387679947621 4.917948991730772 -0.37188821790313376 -0.10798504722242692 -0.49685000218921527
Ni 7.016577561335726 6.097910333707707 7.099596025863353 1.072348250309953 0.022124342702865122 -0.4380465588977617
Ni 2.3932836069599817 5.487572888554526 2.48662789943522 -0.4914982509589987 -0.902233009415685 0.2868836907362801
Ni 2.51053183438575 5.281074392801731 11.110362372156418 -1.1072314353403834 -0.1059199371632821 1.4181171454182158
Ni 0.8957658002452168 3.2908801124662674 3.7211581668555773 0.9989687089765377 0.6386247442675775 -0.20654288759368303
Ni 3.715699467991294 2.3330067105003 2.581419054183884 -0.009516938351499738 1.544183732732702 -0.7908363654085476
Ni 1.2288846144420915 3.347065694257649 8.24416072225971 -0.7687063662787277 -0.5025030867099346 -0.4980782181693616
Ni 3.5728466553897387 2.6555341677181117 6.952485717158848 0.439868699708165 0.20741346312409442 -0.07597918373979173
Ni 3.9641858707924933 6.748664187559881 5.9124021788392325 0.2377334542638745 0.5879485580689486 0.6251498497095943
Ni 0.7608996312665712 7.23412170353296 11.297776194563548 0.27188541755523493 -0.7681975449631092 -0.15752789114756094
P 0.08375363674396276 5.631157260732532 8.007942844503587 0.086250997979445 -0.3112976008042703 0.1971971847127249
P 8.638734153518357 1.7464314041822133 7.860567909927599 -0.8331788349305004 -0.6522546763461863 0.6836961826849193
P 1.9909258399119147 3.227396998109795 10.389681357555204 -1.28374563778246 -1.4670310975100993 0.4348745889276833
P 4.076358339181652 6.053908379924135 3.8005359935403984 -1.403199861986751 1.8237372083561558 -0.6954414961463055
P 6.959407535176034 3.845971262197833 10.463916591365566 -0.4817879656497703 0.5771874628977027 -0.7263654394186717
P 6.453177339871631 8.093306815475712 10.325108129113824 -0.49880532614337325 -0.8795077999040273 -0.8778548376816364
P 2.3869072975652355 8.454083097462291 5.7443927484074715 1.3217624833458657 -0.3430496964048866 -0.1788438790165178
P 6.8896023010230705 3.945364016998371 1.520105837587654 0.27820647467725634 0.6921430279006918 0.37438527329337457
Ni 5.356587597970955 2.745100542034962 0.4666203084594495 -0.5829295075878026 0.6328001671660005 0.08486851580962158
Ni 1.5708842006330936 1.0317518875878122 6.910913263697069 -0.5525038441080936 1.1671887897306221 0.19326416820690587
Ni 6.838284751474988 0.7026900679803423 9.025277589475488 0.6746194171946318 0.9622289303533428 0.8782980958666422
Ni 2.8315239196529856 1.4794934431749704 9.006705007833341 -1.0476180945531248 0.8171230670192186 1.0919873646971192
Ni 6.313937167153784 2.1952386885350657 2.6889131539236395 0.7625845696517061 -0.950772094666653 0.09816163337410191
Ni 4.0244356724530475 7.059757639545754 10.309007496312104 1.1204363640664317 -0.35479809519006633 0.1804968412389085
Ni 8.148065404513028 7.08513643472881 0.3338666306528026 0.6693818229447762 0.3089393849847389 0.3972827467168384
Ni 7.569139863148694 3.8054013163037834 8.184095165233227 0.4841356399463404 -0.017018388934867464 0.0893697461140848
Ni 2.8712268319749454 8.326078234782779 12.365460301594702 1.8936835556383065 -0.22259762706370048 0.18669654229171717
Ni 0.13252517833400237 4.676462981864229 10.071058260891713 -0.5441549579227661 0.7373540772196914 1.042873637889604
Ni 8.777974326236201 2.1646215655206333 5.663521095130737 -0.040054959039356824 1.480595209347779 0.8341304002104925
Ni 3.668048747925175 2.6282316417969827 11.768836437440077 -0.30410493971057306 0.5748557294407326 -1.0476993414130213
Ni 1.408351532265035 3.4082005926897105 12.585525163270793 -1.5321342577673354 0.34476256533093524 0.0019046732218805905
Ni 2.981285906032134 8.364661228740788 7.859325161807603 0.5834915507388595 -0.6745415127688448 0.4122797343463029
Ni 5.567936062767628 7.739250043672832 3.7232995591466462 0.34444889074525836 0.24286177662937528 0.03945743466467398
Ni 3.192932413619213 8.243574571438579 3.515542058394379 -0.3034580501551935 -0.28396394598632385 0.41210412800038704
Ni 3.388782653314776 4.216348134675367 9.195189977965994 1.1370822001532288 -1.021015404363932 -0.8414372182845508
Ni 7.219743396795798 6.411487475613631 11.494165620761757 0.7463987039204629 -1.8191729860242414 -0.9878121781390858
Ni 0.6390073552702946 8.853343025810076 0.11403659056915169 -0.033943446824980246 0.6690750903376348 1.2411877098155915
Ni 4.791959078946398 0.29045263401030313 1.7769844028387094 -0.6489492661220372 -0.7645447787018704 -1.7177409094289835
Ni 6.046990174546833 5.580788029153922 0.33874821029566404 0.23879454853853713 -0.16890527974656716 -0.30983207200233737
Ni 8.282419481788159 8.927655028217966 11.331549861676372 -1.467804228230698 0.6465031185743898 -0.044287509063465666
Ni -0.07078245324150635 5.12962349727695 5.821444938167154 0.2217879866782116 -1.4331686404346995 -0.12352479472923888
Ni 7.738762337288532 8.561830081993905 2.729931067163269 0.5689396210666137 1.246727408686898 0.6028668699416778
P 8.505499994607176 1.511158231755678 3.6249797583915697 -1.370356075983853 -0.04967217041414672 -0.8163633060350585
P 1.8882004248186555 3.221192289109525 1.609662277144824 0.09051800078591508 0.687496530267616 0.4180474900680155
P 4.768043402916246 1.0709038723275062 8.213307874492868 -0.024179939680313196 -0.2243889146361684 -0.7888766705790156
P 8.542014752231763 1.7572783554330487 12.597712403918484 0.3053922910634289 -1.3020652620272541 -0.8313770058350713
P 6.382857304535239 7.70864195225811 1.3354014950933037 -0.9839341832409184 -0.3478399187046784 0.16141308513458008
P 1.7997720320651736 3.314028102521132 5.894226084424323 -0.8893792933814683 -0.5268846008780925 0.2855749992271856
P 7.022999028729019 3.885105183738108 5.914966249996695 -0.8712432459023899 0.052388798014361394 0.23031273631977112
P 2.3185380877660466 8.366413359084387 10.15553894141227 -0.22197721987088223 1.0526518003222902 -0.3804718458070867
