# total energy = -340857.6022134591 ev
CRYSTAL
PRIMVEC
9.34062970681627 0.00000000000000 0.00000000000000

0.00000000000000 9.34062970681627 0.00000000000000

0.00000000000000 0.00000000000000 13.67095574124711

PRIMCOORD
 96 1
Ni 0.7903536435933917 4.9966110532738295 13.15940227018078 -0.2363687127058639 0.22671884832092568 0.9156140587082812
Ni 4.313175861304107 7.090004953868056 3.201122525179691 -0.762276551492984 -0.37255644761475193 1.7639732009236457
Ni 7.369775493856536 2.73833635767838 4.394118955868016 -0.745717104472406 1.0363864875033635 -0.4188136788100787
Ni 3.507238311163013 3.0278398337869192 6.318921029291633 -0.4187524865548401 -0.3727809049207322 1.742571595319418
Ni 4.267079853864098 6.80247235062068 13.363714533349784 -0.9465092056252409 1.3539298121070298 -1.738008144318452
Ni 5.368909870810584 7.046664432181807 8.025602586699524 2.150659917292193 1.258332339915678 -0.7087639242868246
Ni 6.46895582748938 5.8256573212278076 4.683204905830138 -1.6749582670458187 -2.693992893534296 -1.5045131536159573
Ni 7.560894117611354 5.427400893827674 9.802635898684246 -0.022439045729806515 -0.8639809079130217 0.4630135132557446
Ni 8.45093469733499 5.525514867920855 5.78450904532599 0.6859106738377349 -0.14472765405909915 0.8373409367279901
Ni 2.7458275426767367 0.644759380742549 6.964860131561977 0.02334767358700495 1.356907920898747 0.3692559224866092
Ni 0.36045583317339264 6.774945514972107 11.254587276133076 0.4902108996061429 -1.3864339553823217 -0.4852982927958739
Ni 5.9777040910572845 8.925205169020188 3.552493661932384 -0.21653033782369807 -0.10392861776486619 -0.11275907157230257
Ni 3.6335049430929107 0.5706059898884976 9.384399864411938 -1.081586995299402 1.1415561767641824 0.5535073456719435
Ni 1.515974855421687 1.8541336715008456 5.254582431729688 0.34419435153229105 -1.86618252200456 0.7409628776168723
Ni 6.646661307032678 1.8020876829586507 2.0302736615108206 1.5261361312023718 -1.8103299338113146 0.36814906257567565
Ni 4.502734599903407 2.5537935372138905 2.6839094426323444 -4.1218216098133205 -1.3109818477905937 -4.386444946489504
Ni 2.191423809020344 4.468473170260053 9.86047774793901 0.2185972476550558 0.7481547673796213 -1.4828217846854528
Ni 2.65803496437306 9.174142290455585 12.481568653826411 0.5873404921713046 0.21591764394036364 -2.010553564055189
Ni 1.0337555078841174 8.989823645103264 2.6971152248651067 -0.7943790884544835 0.5120336519081891 -1.3172663952477248
Ni 7.369018902852961 1.5406714802791104 7.680466320254066 0.201850110103704 0.09596693971562827 0.9468262226450274
Ni 5.5820443587064545 6.509942510497843 11.06190876722274 1.1340287580388857 -0.6193237299461205 -0.28034023319080753
Ni 2.626902645670415 8.052136513413776 4.17084428039831 -1.3791525912295604 0.6475181901024655 1.974470959400019
Ni 0.39268193961083436 3.9647797151025075 10.943846010335308 -1.6337409122672442 0.3103043836530656 -0.937099996496199
Ni 0.1344471553981767 2.419120338577609 12.631156035862787 -0.5110082959674683 2.7189385077360404 0.6910747345371776
P 3.2936367917834537 8.039190400685944 6.571436545955046 -0.5559758618170941 -0.969285580089808 0.009747309194750954
P 4.261185916539955 1.4639942512872088 11.30540216968427 -1.442377046406845 -0.02064878659860315 1.1338806624967956
P 8.576809022818589 6.876207281265347 13.266240392389255 1.71708964899823 -0.1638774875146726 -0.19534856153976032
P 0.07203493604404249 0.7302513619575786 11.56696782243859 2.1998080968820695 -2.677283808309731 1.419479315873065
P 0.22380522323517577 8.307257131693202 4.680880957167306 1.1829895042083045 0.19846782389503237 0.7457363877461157
P 0.5410102047671869 0.9553128998838751 8.60313278536518 0.8601836456541185 0.31637167289306806 -0.2852667239581474
P 7.716611754902618 3.1522663616710855 10.007986839872974 1.0039162827898 1.830132056138906 0.02635432162381268
P 2.218754491445768 3.590949034299257 12.419174181668657 -0.9189402948680369 -1.0662408518606348 -0.6555906826979548
Ni 8.943157859253157 9.230326177943255 6.994936025048519 0.413283750130785 -0.9753173881061848 -1.267454099711288
Ni 5.604994285814885 4.388816280402221 13.15262097303763 0.22778354214001414 0.03684185141869784 2.2685982190725897
Ni 1.0323450728033794 3.0939154480991027 1.1767820316376432 -0.07799261462539471 -1.4413138952496531 -0.17930642047523312
Ni 0.6315601369505578 0.5752837772291169 0.12416779244220304 1.1358562981659277 -0.9373522217163213 1.6508963410006083
Ni 2.3999066633386827 3.713301942395848 4.381144821251162 2.7442098807083193 0.43224255062147493 -1.1513394814031912
Ni 2.1403585865938943 1.8276062832273652 2.8994323295357964 0.5208157689761933 -0.6756185478831074 -0.12173196449487421
Ni 3.2576940487988226 4.62250949421004 0.3441592365815823 -1.8594027800785653 -2.0158286964111993 -1.3916491810346743
Ni 5.9167564824359955 3.9757736362285234 11.013458921104943 0.31432481766636833 0.15881858493452647 -1.5425857921179627
Ni 6.8712660881679275 3.7405205372651866 6.438185925218078 0.40725245633504054 1.2590357937406056 0.48845097949224264
Ni 1.1627963068271214 5.487685317742125 4.313801683492249 -1.3494110983010696 1.9422763769453453 -0.4921963054672879
Ni 7.410201739084572 5.525645636736288 1.4823280392108662 0.06451746295709535 2.7460266222020837 0.9597951241008696
Ni 3.9804252698060565 7.842233883385026 9.649466385167985 0.6014900441988094 -1.4688684078291543 2.590130867341307
Ni 4.989820415501005 3.1558625040954835 4.570009551065701 1.1896154941652546 3.172851858462729 1.1438647702927012
Ni 7.902452922891761 8.150091696802505 1.3461799551490978 -0.3860408552544319 0.5698685606387863 0.03870410143841721
Ni 2.1468783461061793 6.7717136571049865 0.6414303803268206 -0.7906445611127157 1.2603887082240746 0.4087038440695864
Ni 6.490131034959796 6.779755939254094 13.3523675364221 0.10165524834965718 0.6332665652794578 0.012386032369178668
Ni 1.4267157982592298 4.566727253798342 6.534046939433949 -1.2317119091146722 -2.7434267226853915 0.7411063451732721
Ni 6.774870789934717 2.2173347157353565 12.409604706567888 -0.14722573789060453 0.5381090088390023 1.2612166034420087
Ni 6.006688064934964 4.003272449988075 2.5962784572220237 2.337114004555801 2.0400019512232928 0.28022504776918195
Ni 8.898350858708126 4.047528353382353 8.12880533583897 -0.0752667310537994 -0.0055839218456807055 0.0784358728104004
Ni 1.8948868387674633 2.7954262862444055 8.153139544265052 -0.9690415823998022 -1.1225066163318989 0.056468881621005974
Ni 0.6477904150716843 5.2008158992015865 1.822201794898127 -1.0574983297813143 0.27765780126263795 0.5029034074721468
Ni 8.178730067382256 1.075694935119303 10.067455826816905 0.45381076371055395 -0.4198848003870704 -2.2465990890936793
Ni 2.91033471249101 6.004007304218595 5.866261972482613 1.8367485330141593 1.4387803301945221 -1.0185615435068007
P 5.904931245269015 8.447301192391896 11.688229744989284 -0.0020877357669641466 0.8388296054583747 -0.46266024368138386
P 0.9048622908899587 5.975527724343299 8.840050384536381 -0.541315431591442 -0.3604390955259276 0.3863591578257991
P 4.184863631475657 5.080938257968541 10.575960640319405 -0.31130325723122515 -0.8710241879130484 -2.496584364141713
P 4.641723169448967 4.857753252543703 5.863089894645404 1.4381892335777424 0.1825007590428147 0.540655686520256
P 6.843216177257624 5.571779006694992 7.689434258803844 2.0406748089206017 -0.2889215471019153 -0.22740661841656967
P 6.544577565328147 8.851311447671067 6.756719144289698 1.302294861539557 0.34054364215358124 0.42057694135808854
P 2.5559792445575504 5.669248477340685 2.5549919400010337 1.4125082838718706 0.22649490523557766 0.6407137655861224
P 8.30824723843862 4.8421730822478715 3.5374141493870646 -1.3619141158640868 1.178555636806667 -0.3654846283696351
Ni 7.955666490143176 3.614823683745389 0.8161122980447216 0.6435679472054658 -2.653154519361695 -1.143778381226482
Ni 7.9375736904651015 8.214822260441666 10.999172428018925 0.4614322848115537 -0.5919877611353288 0.5022858284928059
Ni 1.9442520665932888 2.077916477224804 10.674761150693609 -0.30433891009825004 -0.5205332047387681 1.0051884646340046
Ni 7.534217279263093 7.712361768401057 4.9757907897310165 0.22079785485080042 0.6786051413152572 1.4331200465849512
Ni 6.353832566760279 8.848630686954698 9.459781548068088 -1.0820608496120268 -0.321054423080718 -0.6666896208245938
Ni 6.069335668156876 1.7084572111088738 10.254666331116221 -1.762073412797772 0.04032698175382087 -1.6187732352138187
Ni 7.88240793161187 0.5689321490509597 4.479220498762682 1.1667776703351325 0.5068166264836239 -0.04556046223861831
Ni 5.197369206851969 7.516077776436649 5.679981794898803 -0.8330196836448169 0.23178752109308468 -0.3693849918653058
Ni 5.736239473360897 9.309936364652717 -0.11254991725397949 -2.6263276289768385 0.4229513551275361 1.9669749081332901
Ni 8.1047055772177 4.99800280709522 12.162912138443097 -2.7235783205008963 -0.028833636402240664 0.5321409641810254
Ni 7.816818030042723 9.525667547597896 13.049993606686087 1.3588380480419242 0.15972335613698296 -0.4864943699865041
Ni 4.0746628825846285 0.1223585124743956 2.113734989834774 0.8794121548664274 -0.04014417631905344 0.621336389500775
Ni 0.9821298476772421 6.755741180362856 6.88128951787084 -0.8228579126204667 2.093505836678704 -0.40679711396517687
Ni 0.1988255772986375 3.187928885765504 3.8191733094330886 0.8272318733184463 -0.5998350250938895 -1.1770011478353537
Ni 2.7078952455715943 5.767558604657016 11.806742720226993 -0.7661141800715193 1.290031727901488 1.1900510390407764
Ni 4.643619317272739 5.619042592844222 1.525514440507499 2.07662937263834 -1.0974738417329872 1.9140425789106326
Ni 3.45974120927194 6.088119674430809 8.401622711098303 -2.917305801497466 -1.0601416809414321 -0.2544715929541618
Ni 8.18954651654447 7.2143474160851575 8.611991438547776 0.7751045564955877 0.8592629336120621 -1.0916461793076166
Ni 3.0497622916312355 1.9487635907257153 0.17300153843959135 0.48193400430933137 -0.11259092142555449 0.2499881032615114
Ni 1.9165290777215669 8.415225470092203 8.61263407386933 -1.2642415063112613 -0.4458840526643095 -1.6721508795040103
Ni 8.91343597563125 6.96527952583433 3.101379545271405 -0.29116277772760824 -0.2136008228817289 0.3838425620515325
Ni 5.068748736244284 4.438517770896302 8.116008673185918 0.00967197587212528 -0.5505053256208261 -0.5394228425544194
Ni 5.693954442827782 1.833117254734884 6.137342924685594 -0.7967879550062923 -3.2106961830040124 0.3091365885972095
Ni 3.8505531548220877 2.9077286768120305 9.514957581613961 1.3993678898351707 0.5870892953924469 0.3412254987119543
P 8.739924438811471 1.102904189358968 1.8650874279192649 0.31650871269156455 -0.06452260516341791 0.19680971946631912
P 1.9801387657998775 8.063840322394999 10.658041423577577 0.28463783212489685 -0.07188675883797298 1.449251662039491
P 4.900122348743882 1.5649477768012143 8.125647268946272 0.9849279146127553 1.1830337271826787 -1.1657021778827668
P 2.5178881567479543 9.065996480092783 0.8802142373068391 -1.2488657951861397 -0.8524363976085321 0.46256896951915827
P 9.147988527369055 2.7410077777650756 6.011802993744316 -1.5849195198891672 0.8224280241718998 1.1696387939330113
P 4.371115787170445 1.1181854595052403 4.139989378396976 -0.662823195890652 -1.924880035845769 1.0274359631782952
P 5.22101968118593 2.438249948149471 0.6365910000928453 -0.025993595850284264 0.679414781700746 -1.9496377024064226
P 5.846150662732039 7.311219086431731 1.9442698137896688 2.5806126434382266 1.3330984771839751 -1.8572299407969626
