# total energy = -340890.29640205257 ev
CRYSTAL
PRIMVEC
9.11324332747741 0.00000000000000 0.00000000000000

0.00000000000000 9.11324332747741 0.00000000000000

0.00000000000000 0.00000000000000 13.33815279051439

PRIMCOORD
 96 1
Ni 6.553551964575368 1.9828412476129003 11.32310453678821 0.9187960559806886 0.5659638262677413 0.19195804780097264
Ni 4.881618124896917 0.5494593094778701 5.8125933399624 -0.8588934660877853 -1.750089243852702 0.5366334527347403
Ni 2.800481435204612 1.9602039512912575 4.812098659816393 -0.35977343691747077 -0.8739701579152497 -1.4329670659468547
Ni 3.4617110282841015 4.492591995517571 4.659737079296002 0.003806775340599895 -0.0756811928833987 0.2896563683854108
Ni 3.8641518517799773 2.5461217018578415 2.390610584457917 -0.5224795298318615 0.35864343707808555 -0.06408294652283802
Ni 5.370370475551521 4.300056504620891 2.79356904017242 -0.2782866930958885 1.1196614335736201 0.24118438892695235
Ni 5.462277534087661 4.893374208735452 11.645541108803378 -0.2558713015151658 0.4349326958591284 -0.3492979913074436
Ni 5.823426252256095 8.146975213347636 12.4241556546728 0.3761310523398877 -1.350833689680209 -0.12812835493952127
Ni 1.8713953954722513 6.808841248737279 0.25308387928677467 0.7271380559186381 -1.486994942226536 -0.1735828877278946
Ni 2.8986492918780176 1.3957387754191775 13.47233446898683 -0.9633090507913991 2.1450271444864475 0.07564751143198585
Ni 8.282716972087924 9.180681285999668 6.622979385898706 -0.5972991460459133 -0.4057802426648882 0.03849378519982403
Ni 8.845195460923724 2.271776625985562 1.1153069643563887 0.3005187650212115 0.4610376204762964 0.6388931674376158
Ni 6.941548297463432 0.8462256978059216 4.512177266662837 1.0884852650811319 -0.032105622285293095 1.1764905267475223
Ni 0.6617827669469307 7.602659418380207 2.2278316555376576 0.5102464781007793 -0.44628308787494103 1.0548130696396671
Ni 7.8584499309228315 4.065308470824916 3.506547273925346 -0.24621218115884697 -0.8885706814372437 1.3543337324136675
Ni 7.619546258188583 4.050636149134962 12.449645396142863 0.9826961970687592 -0.007352583710329272 0.8249605607857664
Ni 8.24166181108591 7.516338777978194 8.80328730035017 1.14316748711536 -0.0007800726991341405 -0.42720267420472235
Ni 6.950998730750688 0.8290399436177757 0.42855573345533654 1.5004634090266158 -0.0977811101062316 -1.9407743384785217
Ni 1.9282893733047863 6.788582508913199 9.111639354867314 0.030329761331792927 0.37135574243843145 -1.4092779498600307
Ni 0.12732203326864203 4.8194566924452555 1.2103052350150325 -0.10509564148977384 0.2253952444134957 -0.40805129808725205
Ni 6.762901389334137 2.099809725184675 6.7188680204263616 -1.1676814130963242 -0.17851683469440222 2.252666121223365
Ni 3.8279905024223773 4.120343347027171 0.3934952638866469 -3.3384381011383923 2.994827390023713 0.46627804293962927
Ni 6.012726541786356 5.961318736411804 4.6407705973698326 0.2887073742085802 -1.4822869952279052 1.470205638583339
Ni 5.155225028063056 3.0991588706496715 9.209287756673437 1.4812660101625588 -0.4383761743230385 -0.15189177590770617
P 0.26116185813520637 5.715653037159577 12.340299235255234 0.796777413483331 -1.0388961412990945 0.6232940274477783
P 4.021938546028339 6.339454540064756 12.761371173324367 -0.030403809102837964 -0.623223836331475 0.10617730458972682
P 2.521816682014918 8.655667340311322 1.225544400437356 0.19113452345841278 0.4042838606250199 1.5839718112639172
P 6.411704332833672 7.9784440052654535 5.937719081599193 -0.2261362363445783 0.8281186467987738 -1.3062001101312344
P 4.915856579921238 1.007314120096686 12.44520360136542 -0.4064700696430613 1.3725011473513138 -0.2923372576516836
P 3.9831434693611745 6.268717545681264 8.241670924329195 1.0956900103596872 0.6633019352992834 -0.07698782750996418
P 5.1454374047742295 1.1767839922372951 3.4741752111259343 -1.4676977845598207 -0.27888807412531325 0.6124601700570679
P 0.47502233832039026 5.7548308700447395 3.3387132289545174 -0.974800082150134 0.7384295696720573 0.25474747232336775
Ni 0.7006224985061943 9.038715182095258 4.42753346302539 0.13326670460735116 0.5034543948796104 0.2541805440763042
Ni 2.084854892952865 6.741567286802348 4.462572060810194 0.1659289707270626 0.3097248570005118 0.4825618677013173
Ni 6.026423746444742 5.799613347550599 9.35277941750387 -0.4839682611305407 -0.6926575056432651 -0.8761586809261362
Ni 8.863804703713095 2.5528563886459628 10.34803216011195 -0.018722773220483883 -0.048743230841974114 -0.4869296577517097
Ni 2.4492296992444325 5.23337108923781 7.081572369223663 -0.8780893222899457 -0.023168210586347195 -0.6617703291461056
Ni 0.7789891001684618 0.26555079610159255 8.901843381187547 0.20045322975617735 -0.7610845880674117 0.48802546191904983
Ni 1.5059269999864018 1.0455806286532796 11.270499251245917 0.5061296277189283 0.15289167792713024 0.12503994582218464
Ni 4.302353041928884 7.316767863264965 1.6212787881992958 -0.9372930863436115 -0.9147326845445924 -0.056732676805353904
Ni 5.7038605003479 8.360070181096823 8.001371102723581 0.022741921682205995 -0.4827097061330913 -0.007776815731941444
Ni 5.089819281001691 2.723000640789713 5.168720830044828 0.7126223788009662 1.4288772121481974 -1.6379683200850308
Ni 1.1170102295264834 7.8736508207233555 6.666141528748371 -0.4828079222738524 -1.6981416471408175 0.5897714702103004
Ni 5.127374956582001 4.495572026071989 6.951978404403899 0.2799229431477308 0.8936360117752933 0.39134144153173894
Ni 1.2016813728937883 7.400299851221559 11.243742768959144 -0.12068166885348894 0.3315422099859193 0.327462640599907
Ni 5.121341989526877 0.31760290777644296 10.375908659998535 -1.4605801996784329 -0.49964813375964273 -1.152266621203151
Ni 8.093070379312806 7.294103227213465 4.729922722460709 0.8421797528775302 0.5161412463186595 -0.3625875093274981
Ni 7.1315047405102625 6.3399739949320395 7.008425833315436 -0.06311646884451065 -0.09596256884025409 -0.5969798150332816
Ni 2.479877536414193 5.244589491722489 2.1912583875835443 0.6046211336286232 1.0895823548000527 1.1092093850023605
Ni 2.3927002511433244 5.07592158499102 11.755447734153076 0.08144457772973716 0.29462014014858934 -0.4222540719501954
Ni 1.0601982708835194 3.6958849277530788 3.5212587825614285 0.7750868158837747 -1.3640157355881217 0.431648625791218
Ni 1.7022353736033553 1.2478946295954998 2.519043522083084 -0.3990673494210869 0.12926246854396448 -0.35121834825860804
Ni 1.2564337385541873 3.3001332248288957 8.166457504843777 -0.8487604914188414 0.3572457853996105 -0.1270592902450586
Ni 3.4912561630162946 2.7647848612545816 6.941401574246533 -0.18899305163537775 0.586593329592635 0.6050844464182868
Ni 4.076891403041022 7.00485799856909 6.268838751816964 0.5509388136138189 0.41948833627960014 -1.591929118437781
Ni 0.6031554502414582 -0.25022232089506935 13.576639183688814 0.592369827065096 2.2830966697990807 -0.7582571459209457
P 9.386549451823306 6.006082987431092 7.834284343702179 0.14586819542144555 -0.8191246708302796 -0.40856526160919315
P 8.676846517707254 1.7827691045189586 7.925223575801378 -0.23475251725867957 0.9165183156901054 0.03312249358558167
P 1.9272322370836468 3.3003063764513243 10.32279667812956 -0.0230432549727087 -0.4354266047764114 0.9252523531289936
P 4.152002754201643 6.367997218035524 3.7364033187255656 -0.640196973850704 0.07828597749609743 -1.261717711448143
P 7.162353069032308 3.9818402755713214 10.276019311668463 -0.8718361422913824 0.3234463203516623 -0.7256972097070534
P 6.556213031614789 7.744671088501046 10.039587150513293 -1.3410287877746454 0.5459470168261823 1.2955773403100657
P 2.6950503236325156 8.846753825525576 5.615335366395079 0.026668253319805685 0.08970630351789712 -0.5195435871319891
P 7.03430288762514 4.021947659271624 1.373509752396733 0.4304947146924328 1.0081138658109154 -0.6301696715216889
Ni 5.466132435997506 2.9660417259756624 0.14114408936004136 3.0984798713090576 -2.382713804672787 0.01718679619193169
Ni 1.5540358112915362 1.1981363212556566 6.784477904137327 -0.6558431650283931 0.8239483174711679 -0.06975145766252504
Ni 7.285709930147348 0.6263504770521853 9.257665408655498 -0.5534821488609628 2.0850625910073575 -1.6882143607247766
Ni 2.9122553641035456 1.6733008261713034 9.070811113623114 0.24342433400106467 -0.03852489554807559 1.1466652158559736
Ni 6.6644601353621615 2.1701730765934535 2.3864221378438155 0.25636906708719076 -0.22652447292193245 0.001111487896623892
Ni 3.8738939088523754 6.756731723629729 10.513425678530872 0.7416696738759099 1.2506167164389752 0.8176974514654497
Ni 8.256452604938579 7.249238730518035 13.501812165718706 -1.0151604882450516 -0.99051157934812 0.33746963121394785
Ni 7.692452204474067 4.3621359178829815 7.916260701029906 0.8357010871317221 -1.683814431884868 0.759109466618912
Ni 3.2918037204657793 8.483636646807435 12.41657981552941 0.38646225906256665 -0.7886966933577255 -1.2528841723169133
Ni 0.34844941364983156 5.1802044279091195 9.924252677462642 -0.32331005188411416 -0.9599848715141724 0.4197451894854126
Ni 8.646162227564352 2.4854001618453183 5.554406955759971 1.7755012561679036 0.9762409283617187 -0.6870648420468362
Ni 4.079625376026727 3.096242632798252 11.49947495674474 -1.4676090815007563 -1.67510096327127 -0.6150127612755925
Ni 1.074588082031617 3.2071052373686175 12.559644976574074 -0.12759099437881252 0.017956070257788427 0.045857938874379084
Ni 3.2770858325593974 8.665518756303147 7.906430245497637 -0.0724040647940237 -0.06062172744711495 0.036504265573621
Ni 5.960908640463948 7.98092280743916 3.480657461075042 -0.9291959111577739 0.5053148451271168 -0.251654949440973
Ni 3.528401742648749 8.790078565531898 3.573171461614008 -0.4049153235614317 -0.17799695763519022 -0.38578117383514204
Ni 3.4612553661198175 4.665260616051455 9.46979528394073 -0.5552086446337664 -1.0567635084978189 0.27542068440200307
Ni 7.565377140098468 6.275816762200814 11.368614251108266 -0.5847588474870574 -0.05777448780630695 -0.7404329732553312
Ni 7.9556608970512395 -0.04237475862978088 2.4939274235877344 0.8957746553848507 -0.5135176926528834 -0.17114033972467302
Ni 4.818408669467402 0.4986365743222588 1.205551767317219 -0.4181876151903056 -0.25395248722589814 1.526966597523467
Ni 5.913756719703811 5.877896107374638 0.5348289087070306 0.4522699015859952 -0.6656820054956858 -0.44186824663669705
Ni 8.30805178842213 8.67066773875956 10.922413456003184 1.0399250967842413 0.5482034169605268 2.598765403087853
Ni 0.20063351888033978 5.376184724767788 5.7340982415698045 -0.1885366808242495 -0.620864334960363 -0.418100454793138
Ni 7.452263564436539 6.102583120583216 2.5889621472195206 0.1482948025850672 1.423382507582213 -1.1637702509673764
P 8.739372479890344 1.7455506189402188 3.4425240058704194 0.3676510398933346 0.3173741460156534 0.0004689692166185472
P 1.9137993164805462 3.335811572292355 1.422313904164565 0.31631125196877785 -1.430976003658755 -1.1013968309364772
P 4.853722487199433 1.3336229091839442 7.95943560242017 0.6242437929555572 -0.094246871700728 0.3346918113584945
P 8.767523288399827 1.348960497633753 12.437947637061356 -1.0400971035857312 0.6857823757899867 -0.8542050594731805
P 6.517454407920767 7.910122020352668 1.3096295622613914 -0.47723865571619095 -0.3569997308270755 0.0019347551288676356
P 1.6267048132515929 3.586015666700853 5.718386098820955 0.7840743640943658 -0.46422244596218115 0.7272002766151412
P 6.867366497117951 4.061325983509072 5.612400902057088 0.17859988132651175 0.47519977090929133 0.3177996635888462
P 2.689327206849105 8.756642075916718 10.071426088580493 -0.04551906747772161 -0.2594196809880564 0.42190414480994437
