# total energy = -381171.73593399575 ev
CRYSTAL
PRIMVEC
9.20667314144930 0.00000000000000 0.00000000000000
0.00000000000000 9.20667314144930 0.00000000000000
0.00000000000000 0.00000000000000 13.47489676728868
PRIMCOORD
 96 1
Ni 3.4273406218460027 8.06949256919751 7.076301519587774 -0.4621413950634364 0.18548041049642894 -1.3126412377708878
Ni 7.716204897493878 3.3625440556809862 8.095704888539428 0.5431974791055032 -0.47834705828902135 1.0014701352421527
Ni 5.028399509204441 7.158538286844918 2.276139122326674 -0.49684974507889906 -1.149631240462833 0.7038094084950265
Ni 9.184770550456072 8.314684690553964 10.073482430961825 -0.03190610467997731 1.9749509843602313 0.19211179977001752
Ni 2.4695611994656637 7.430300867131783 4.683550674179814 -1.2186481339521789 -0.006393048010537377 0.825567598242146
Ni 1.7595978003112058 2.9571650268642995 3.885621195019634 -2.344858681498226 0.13233622237328177 0.6816724673866712
Ni 4.2768956004539955 0.1761899468617721 2.110222902117863 0.06456682813779203 -0.32203169939232285 -0.7077154284176522
Ni 2.091746950287804 4.844753998364204 10.620981191699924 -1.1051822661208386 -1.5443287429509982 -0.22517721486541867
Ni 1.180313920927456 6.156861446522721 1.5178931667727846 0.09826036373549528 0.7896716556764851 -0.303866855557838
Ni 6.2160971820591975 4.57581786675774 0.7613329530865873 -0.9759444801672225 0.3082765545897594 0.04228976190714652
Ni 0.7604840978151446 1.6419641365018263 12.922884268382406 0.5013329776612333 1.3086303168392817 -0.6663147539836782
Ni 7.537595436908297 8.273309901076047 12.117813172800771 -0.3924678418266983 -0.46555170629656595 0.6751783750218953
Ni 0.003403707091674704 4.276923220473674 2.6756157529381324 -1.1208739658244826 0.29843694279151833 1.3704008131788592
Ni 2.3516329221130503 5.974164223024769 8.627976732428944 1.5566530688443063 0.6202891791831834 -1.518576830797875
Ni 5.8486680602803345 4.3966744191250475 9.164560061390224 0.5134220476152835 1.545129641585739 0.1368467086491256
Ni 1.046927639228286 3.831449129757492 8.197116394124489 0.2444221791379597 0.7782690702664984 1.2483939977560436
Ni 7.484776752610385 6.099494665651136 2.119102738444399 -0.7740316351463831 0.29498883634191775 0.8189621771104864
Ni 6.752570030941763 8.29253343477206 1.2205341935828256 1.6513964205654785 1.4106105526285253 1.55771673422213
Ni 0.6415513724135675 2.2377739943263553 9.91674250195743 -0.866974700434023 0.6768647615853828 0.20000971446085553
Ni 1.6301703880992422 0.24296870977235943 3.3994204646206505 -0.2427519905243884 -1.1939382899103244 -0.9861036800884114
Ni 7.000625427671522 2.734124161289749 2.0116139078628152 0.9834050502103256 -0.6872491901435003 0.13632091805264263
Ni 7.914470605417098 0.4063309988282609 2.8772538652640596 -0.47074764867520863 0.8218132734060363 0.34502430363275416
Ni 3.731381798463437 0.4915498075433256 9.557124321743556 2.1405274568438815 -2.019583535467941 0.5477280199860051
Ni 2.048199385928536 1.0731666579225594 5.6017837523849305 -0.4724306928045863 -0.11691371717062446 0.4887582263200163
P 6.575728251615586 8.012392781849481 3.838243654598325 -0.8282916820415284 -0.4663603182407904 -1.3629392146944914
Ni 7.735649391347318 2.569094543712608 5.930409508517915 -0.41580548811137424 0.36955905554932483 -1.153843735882284
P 1.4861780188436502 6.5908179890331 6.558474945989949 -0.8002944254976541 1.2089442764008533 1.2479445689234507
Ni 0.4491687286817996 3.9151377893823858 12.102478537875443 0.2914831371815045 -0.057735921258887664 -0.48003807283819916
P 8.734794396532347 7.040389049334879 0.23119429538355019 -0.6335640419152185 0.625704950882116 -0.49771440707203957
P 3.7762643304404833 3.6507865810424995 4.03903291165281 2.427448685686316 -0.006028979802899295 1.8969552844110427
P 8.963027825806396 4.520458140649436 10.057851341158619 0.5756872242030925 0.3502752676190483 -0.3969225351639422
Ni 7.934762113207336 8.251471672183829 7.803973034025238 -0.10581889280904357 -0.5225759462004097 -0.5357649340868579
Ni 4.48122850603319 8.627647133527452 4.713343468739347 0.5805157559399873 2.0960352879687774 -0.2199671314193889
Ni 3.0178830367901712 7.811613652135546 0.3120417756508811 0.2794616872405961 0.5921150307418125 0.8600558618270026
Ni 9.099130076107254 7.440290107582059 3.170400785453096 0.13081155819863924 -0.01586139251228881 1.6920170223003181
Ni 5.0793492388374615 9.239356916013387 13.270038454382837 1.0963381854666474 -0.6962377667953558 2.3788365811055674
Ni 0.2776594544881568 8.639404055237131 5.991423973321666 1.3525208475746449 -1.974009703492884 -0.5192551093572929
Ni 5.643009393756586 2.1599960189125933 9.33313148615743 -0.03804538480849577 -0.3237085728741135 -0.4069323539914605
Ni 9.22315317113552 1.3572845936787978 4.715391953532145 -1.225792972527076 0.24718637214665815 -0.7971175704315691
Ni 6.227154396603696 4.668796059667728 6.079414911345097 0.5207280943583935 0.6471132413545629 -0.7548257516418936
Ni 5.476700048601022 0.2798257846982489 7.561613806020444 -0.24960475178016364 0.3586341811067049 -0.9728157047302537
Ni 2.5259888996681914 4.972496589375799 5.666558222534205 1.1652301233423545 0.5013358058747107 -1.0215720481983503
Ni 3.33680219734092 2.587360583393113 10.705603407989939 -0.08611292973968396 1.034265584505619 -0.6928194851424262
Ni 4.111350409176195 5.753038345481239 10.188747217750139 1.0425584206420302 0.925501235915006 0.5423310173401499
Ni 6.514190847772596 9.134400841236294 9.54831169413157 -1.1019038524798828 1.064062099041761 1.749642900343903
Ni 7.3957758425340545 5.49612612910801 11.880156713479847 -1.9531441728977847 0.058934569552679145 1.1056931443189861
Ni 7.152471089188944 7.241978366292708 10.137528653258919 -0.33111977773652 -3.7516804565082804 -0.656003087645025
Ni 5.211860886580156 4.2774387941743335 11.850295789538443 -0.6630900763987935 0.02504794410756331 0.7972646375323947
Ni 2.1776360048137255 1.50006168206855 1.2539700687379107 0.11332985647410804 -0.40062980881220034 0.8737084196134308
Ni 7.947135882023162 0.8277066223752279 0.09381415883891507 -0.9399487787989037 0.07801652588479467 1.152328327679022
Ni 0.2211811175828864 8.741947981628996 1.4074397874124098 1.597977895735022 0.4015160680718956 -1.8527294818234479
Ni 0.23433100895166914 6.413534289392072 8.653982822290597 -2.01309509953012 -0.3380273034896307 0.6994986969348146
Ni 0.6031254803699573 5.690635514354998 4.636429079274189 0.326010995755045 -0.03593322356149941 -0.8906784718088661
Ni 5.735812659875279 1.0606639956815689 11.484600284328048 0.5774867393056764 1.9495788241440295 -0.6885859066770528
Ni 2.6037392550622753 4.910130584942462 3.008728841601499 -0.28488208692521905 2.7397994103454493 -1.1690919202906058
Ni 0.03781641027604503 6.528571671351703 11.540939600467604 1.3617397950697516 -0.27156197277754524 -0.4808315152737718
P 2.6237821826754097 7.41661054404463 2.591586446403875 0.6410258975099025 0.5182580355513461 -0.9636980586997015
Ni 7.62953327574374 3.0302752189524496 13.053954151097898 -0.5256769537232366 -0.8424054957350912 -0.0329779975879174
P 7.764116424962298 1.0999304569907185 8.482137504524204 0.2705350741749276 1.904175713418882 -0.11515636815988556
Ni 8.195909399264552 1.166715664572564 11.283542192415362 -0.1747105735744346 0.29226552387348376 -0.745438911110355
P 1.826005534290783 0.6051463451430776 10.464025826542036 -0.22979183081929455 -1.0655132296659908 1.0617077398769714
P 3.7977250857304314 3.920311939735432 9.00098878085209 -1.487990730480902 -0.5743911310994883 -0.765995652215784
P 5.593551145186187 2.38811896810793 0.2508431773826093 -0.08195931258262659 -0.6401337247129363 -0.9917325962394146
Ni 1.0826863580383064 8.627812853645521 12.479317800358665 -0.18661503832150442 -0.41656267799237295 -0.07442983697480085
Ni 3.0163915557275494 3.261132550095925 13.129157940677654 1.7486566251712337 -0.6646093412567974 -1.6963778703721752
Ni 5.6297333709646065 2.4919886554443487 6.616942844979371 -1.4682346308998973 -0.362355338712034 0.40115508518805104
Ni 4.33746630360825 5.489497324385247 7.4038491742859875 -0.024022845277158627 -0.5069762919899398 -0.23949054616429727
Ni 4.437404741477141 3.080304281262864 1.953981054134997 -0.9699250134460198 -0.6076174972527858 -1.130660355787285
Ni 3.8288344345612915 5.298919188605787 0.7091808319302428 0.1687371295998191 0.20663313331464414 0.19247869619113303
Ni 0.4126081086337892 1.2575487026208805 7.432833622936272 -1.5279248476716782 0.8932506034114165 0.03930136870278393
Ni 5.6880208191587975 4.47150625910647 3.3064570023878233 1.0146439536199492 0.6475798965783364 0.8477988988365205
Ni 1.5106033229123896 8.548073856834607 8.276941933663727 0.0027320542191823917 -0.2293431733176502 0.17358185928663009
Ni 5.749521396308884 7.3456915401842835 6.363856921998893 0.4926519049474676 0.27455088020254004 0.6783287477254188
Ni 3.1542154539216805 3.2160382646346797 6.7985168543437435 1.0302227818948129 -0.7394194443891523 0.38341370204423
Ni 8.806873441219178 5.105358090701083 6.71865080544231 -1.4118930188853749 0.823378561010627 0.5275651718848849
Ni 4.675176284213389 8.115571968693946 11.088223540591802 0.8811401933011277 0.5027262584643342 -0.26397490445890665
Ni 5.959949119563731 1.490403881854412 3.8282986061795343 -0.5368707655565269 0.09218973206138317 0.44545442132605867
Ni 3.365987351467533 0.9716170522391081 12.30833422720623 -2.1106414679177266 -0.5662327636584119 -0.06919044295273247
Ni 1.4869605860678654 3.7808492537070615 1.0100945016527842 -0.8899379940984157 0.14375114907844275 0.7669351333109179
Ni 0.6716415425183023 3.2553507593099593 6.07236812365787 1.5742509844317274 -0.6200500665891837 -1.2641165506976229
Ni 3.4712288331146346 1.585039275945092 3.6170395203323737 1.6087479897673327 -0.5419399525493184 1.2062752142091226
Ni 1.9957489685596672 5.858813814175453 12.685469944567329 0.19891185341098647 -0.04252810317019773 0.46192362262567543
Ni 5.927477183095414 6.854092016605537 13.365588071124865 -1.0759117992914955 -1.7287650284536291 -1.357391545403385
Ni 8.56636751653479 4.8794079163870965 0.47817435268050434 0.6853745988286066 0.375093869324625 -0.22408166780839472
Ni 2.4427421603581485 1.7633265029677605 8.408147154475644 -0.3633218163903614 0.6696129651189758 -0.8027603705396432
Ni 4.58453658630282 6.363256646904554 4.639703892940698 -0.0679524567805733 -1.9784808518903607 -0.3356575177058736
Ni 7.21074933070991 3.5253456583374203 10.924866775539837 0.7660992676731838 -1.7558258892261633 -2.2593484183395476
Ni 7.841047386439263 6.9233261992655155 5.319013673588987 -0.24838784865392705 -0.6779456533543873 -0.3721013623552043
P 7.8563120506480715 4.75433526061106 4.547319530453791 -0.7562835671343426 -0.575426514342538 -0.4542241970988887
Ni 4.865017886134764 7.528038910099645 8.754748019415189 0.7819714588187501 -0.7200536382680308 0.48488460229722297
P 0.1849298417552717 2.1232705994138366 2.59176137319517 0.060454091520999106 -0.9635005979769148 -0.8812934310495403
Ni 7.271577820714493 0.004782866740938623 5.404377027073701 -0.5741335065627274 1.4119992054459358 0.7988499797416435
P 3.904863142062102 1.1039721865369592 6.254305796614672 2.9039144677922244 -0.2596017150918755 0.8379790845326214
P 6.543541722017278 5.97304100889119 7.837107850965831 0.7026894359579705 0.7428935189806819 0.30322176577467136
P 4.093618356542802 6.56560091106692 12.255849745146424 -1.0934024998770913 -2.013437313360887 1.0704592608173564
Ni 2.141647119173054 7.4789949618244185 10.640641121706855 1.1826393199577374 0.019702363524933812 -0.33890816343268726
