# total energy = -340861.84594074776 ev
CRYSTAL
PRIMVEC
9.29666758704901 0.00000000000000 0.00000000000000
0.00000000000000 9.29666758704901 0.00000000000000
0.00000000000000 0.00000000000000 13.60661273520750
PRIMCOORD
 96 1
Ni 4.396515034709695 1.033557036883846 2.9169447846149232 -0.5220722670911138 0.7097134326842874 -0.3652632563874484
Ni 8.93146674885485 4.7355831008147335 7.428176980667834 0.7042709215124774 1.3843449340637772 0.09557793180732573
Ni 6.1541058524754915 6.652518803781242 7.143948098274694 1.013989350755086 -0.839553885218909 -2.2723240046636093
Ni 4.764300507488303 8.771229383550331 12.300173806016062 -0.23703617108653371 0.7166880642299076 0.5754290854456994
Ni 8.15658949205909 6.503260803087109 4.796276396207548 2.1465957745251485 0.7623739963027967 0.17975713485940653
Ni 7.189568706247677 1.9643487084813058 2.680529594116521 -1.0629596100062015 1.146542060014548 -0.0370915055356587
Ni 8.766292852976143 9.259927317059422 7.640562144371207 0.7345909126522574 0.49072949111377423 0.8711260035982353
Ni 6.596720203957748 5.326916246261738 11.11848087623527 2.5346606021881444 -1.6887571206021237 -0.5191029000501447
Ni 2.327188354017979 3.793077627854794 11.527454305804614 -1.2078631275215326 0.9111930468224502 1.1067575810277583
Ni 2.5862214074804895 5.685544501308568 6.157972336591885 -0.9212905402677682 -0.31672314269521584 1.096285220741525
Ni 2.0199148916110987 6.7369883269395645 2.2303551924215905 -0.12315558431527822 -0.4122010585895675 -0.7304136413461163
Ni 4.877543217326686 2.18265306053983 4.81083590756769 0.6928637081168003 -0.5221041487703137 -0.8069715804075135
Ni 3.1555214503647355 4.329625510262839 1.8871556871693413 0.7835717134263345 0.20625620959119964 0.6406163207763096
Ni 1.0335756302193422 9.261200960540897 1.9090753703855745 0.935628297046679 -0.8091652456247227 -0.30251496951563384
Ni 5.361946090336201 3.5236508998500207 10.073383885675831 -0.32880938443578855 0.36365246025690273 0.11430533301349992
Ni 1.7317274880908617 1.9884828579551124 7.847123875397234 -0.7742247249937956 -1.1279583834750897 0.914022031630813
Ni 1.5410528325793917 1.4185320483285062 12.882755068445102 0.0694149002587127 1.5100749639744508 2.48212987927928
Ni 6.516034424572861 3.2825790084766453 0.4652247771121666 -0.6883439658695758 -0.43462750591388377 0.005230909381636153
Ni 5.003782668676771 8.516612247268121 7.712023770016529 -0.6019644127320665 0.6307168022744106 -1.0595184455351365
Ni 1.3594982081287093 6.098716306032911 11.576547219181474 -0.9943363524108488 -0.5201349408590848 1.4758209278875873
Ni 2.021578995137991 0.8509769899805593 5.8185417004446744 -1.3673959649142644 -0.645587548738656 -1.1935608519662477
Ni 3.9540866165823982 1.8318247097335725 6.661348778808292 -1.3997934074083636 0.3983232721662108 2.859967372787313
Ni 8.204606780977509 0.2348384756483418 11.432956467146523 0.05803596899780973 -2.0512880656600734 -1.6289098094271883
Ni 2.0860792759736113 9.287993956990633 11.43752856834499 1.1331859504226163 -2.1483299836074354 -1.5723470825407952
P 2.573838246040154 5.485201311339178 0.17365338653165777 -3.0558365827172342 -1.016226724726037 -1.3896336932665423
P 9.332181018796874 7.441006382160072 2.6693178128124333 0.2491049293256097 -0.6260271101082251 0.1265396702961627
P 2.289880826345257 0.5131918640247449 3.6423265823203335 1.1272222766400135 -0.2622574075471677 0.33935759226528006
P 9.183834091542046 6.080243827217636 9.313754093653564 -0.7820390788318918 -0.7427428523354305 -0.05363501171663666
P 6.086890944657455 7.184474132321774 11.86981060329212 0.6870818113277006 1.050807290914384 0.699991320300517
P 3.4273653119839893 5.092333428976467 10.28107516183324 -0.5736817637372894 0.10103021317114859 -3.203528461610979
P 0.39723731620427133 8.318026127503103 12.499170838495541 0.6597124181758123 -0.4826842522117945 0.19338141051106048
P 3.9274888501553713 0.8270073915258922 0.26394913136765263 -1.401827664229573 0.8707151413130617 0.2569758474332542
Ni 6.233266978349707 1.2230696089268165 6.528834076728307 0.7808124055136423 -2.5627527324386703 -0.0023124501832605337
Ni 6.5282595426614805 1.5816978639736456 12.222575449990284 -0.5743623347440818 -1.760700186599329 0.299018269216285
Ni 2.0720784943451243 7.7061752363362634 7.137538975529224 -0.33235904946025985 0.9001910392849916 0.0043274237307602895
Ni 6.321111191900555 2.9781596230684007 8.019791815147602 -4.698729336687075 1.0536714998360563 1.5573112712535955
Ni 7.990048986021428 3.6463204307848742 9.908907239878223 0.740852320180937 -0.9257017819615864 0.3750614734247928
Ni 8.206800794566037 2.454022792103936 7.480848181460899 3.395680113479997 -1.134439106103427 0.8865945315474796
Ni 2.3893830612520954 7.431040354334217 4.694648943053517 0.16620973519227503 3.6299346080563355 -0.1602882275015175
Ni 3.7297487271554215 3.3785763996424882 13.410187568126233 -0.036505551125201645 -0.5392536639664068 0.7725895033832179
Ni 4.286126401869948 6.150982172112164 8.062448645442524 -3.3540279851568493 -1.1165619687126902 0.560116623458345
Ni 4.561233393868751 5.3610350168968965 11.944156984939646 -1.235914120121478 0.40225628867202984 2.373467089263538
Ni 7.899852715530337 4.012367426694607 1.9603046580109258 1.4922063112241462 1.220456390805511 -0.22947172847571448
Ni 5.4914207820625895 6.950467708436879 9.763126192921842 -1.1604082764736787 -1.0554131651175114 1.329701535687284
Ni 0.26437212975018665 3.176708556162427 5.736629690583825 1.2243909499732268 0.7228895650549292 -1.821492121075721
Ni 1.1858178612605823 8.371705087080052 9.290187040912386 -1.6599060006983863 4.4985787257729815 0.32424284811102866
Ni 3.4456890441152965 5.632544198477223 3.8478545238927824 2.655294962743466 -1.1642345921983046 -0.3589136600203367
Ni 8.786940752044451 2.2139270508441005 11.960634398856202 1.1711557447981702 2.93215340803326 0.055115195806588954
Ni 2.4678655303807076 3.2123054969695164 4.14008411854985 1.0116712441448705 0.10865687647847094 1.1239397492339998
Ni 7.07170555253854 5.449539293857852 8.756019105447828 0.2865443051189904 -0.5643823407132345 0.9706976299459863
Ni 5.722033922219466 9.41008709452511 1.2436431346531394 0.7465172317761982 -0.18920542475649996 -0.9802778174352537
Ni 1.2303396031057519 3.809012116374866 9.228590109414466 -0.507850467064777 0.6359806217765113 0.9155652077482168
Ni 6.583165662381165 5.035419229023214 4.229384190270034 -3.171443922371609 -0.22005583447845328 1.2803129579518273
Ni 0.173062118462885 8.802893833900018 4.404433006630666 0.11465243194027351 -0.09254377296669224 0.9451089828436047
Ni 8.359108102281514 7.122400281768382 11.068612620768224 -0.20567616871801353 -0.31480715661942554 0.12182863797373857
Ni 7.165620490128831 5.760438456686452 13.502699638553349 -0.5741833859640563 -1.9224176903482049 -0.10697151835624803
P 9.128621181786677 7.235140971548372 6.87006082908443 0.22653192912110015 -0.45178164909566704 -0.7721932963860636
P 8.795698213063066 1.1861990246382503 5.851360796928662 0.08394908931914574 -0.7367532104108988 -1.0773950687052412
P 2.22782556912736 3.691632389388624 6.597846960088806 0.4735084992497974 -1.0591790599178468 -0.1133509395200306
P 9.100006038458334 1.6862760794708922 1.4812297052877896 -0.22841191975263245 1.411045326173099 -1.4500890703391218
P 9.008071291098366 1.630300842960187 9.62492378951363 -0.09525705813279724 -0.10570190761520507 -0.16246672321007502
P 6.0679908191257725 0.8094171664799023 8.79077004948985 0.06996485922491176 0.7142748268027247 0.20935001802517492
P 2.133668918175621 1.9457553729853068 10.535069421376333 -2.418638543593854 -0.10235973061584952 -1.8653376575057614
P 8.455096196779607 4.41680036373583 3.9768048835581844 3.3108367944813555 -0.916561510223215 0.5553279438204501
Ni 2.6965170736427555 8.219778942742243 0.26888008394119156 -0.8925666899705144 1.1241230688893995 -0.5966023770892048
Ni 5.94080310766539 7.420172549736806 4.09467919326862 -0.4016551647529211 0.6169182058284214 -0.05511365314469218
Ni 0.9146080323817419 4.209642716307156 2.5694725308656934 -0.4700647636755711 -0.342924483680932 -0.5603917314966026
Ni 7.0275091940645495 2.829729025803841 5.092424536320396 2.0605509790192382 0.7622791225961453 0.16187974035835345
Ni 7.501341755844589 6.41138183573363 2.3128250023473194 1.4236982390504191 0.06162265790780355 0.6689843303960413
Ni 1.2369402372068317 5.635705065511543 4.316371251054515 -3.1439791412924367 -1.2492422046889518 0.14938366477387174
Ni 3.5466601525263193 3.6498624611968618 8.392340900480287 0.28591464195479144 0.7621271703993133 0.14471274166076367
Ni 3.9736375088564406 8.083406123546839 2.747583669582517 -0.29098228628568595 -0.7822599365934463 -0.6716857884876045
Ni 4.118256472344322 9.102330205395333 5.071891915932166 0.909249292832518 -0.4170113354940173 0.32719730275366227
Ni 7.688000250888924 7.987817785761908 -0.11788918437883227 -0.12078425586962424 1.40963199076534 -0.2175073570249867
Ni 7.924098425017119 9.19073221901106 2.2862105019183465 0.16869650616987078 -1.9725187207696544 -0.058208747130248144
Ni 0.44120962498553423 1.8132685609085655 3.5427406774037626 -0.34064802894192947 0.4767200642085596 1.0479369113451242
Ni 2.2751734979679217 2.124679040463305 1.8958499308472705 0.3554807230793878 -0.6071953221137026 -0.9444327827121864
Ni 7.051568970196373 8.199186823680424 9.072563204933013 2.1578474361795674 1.1252371278891846 -0.6520168493037674
Ni 4.702282436941399 4.759875293640255 6.0302602930705165 1.0276521929541593 -2.102297466828405 -0.22593183364325606
Ni 5.599541027971824 5.096684269482531 2.1168763472224095 -0.84980924439833 -0.7297161010584594 -1.3223083285470068
Ni 7.229088840844423 8.200246643803697 6.05524229864294 0.6620642062374404 2.251223475239568 -0.5980576214784926
Ni 3.286762508963245 7.320484381475007 10.855709632671287 0.9240130814052538 -0.40524211077323113 1.679362052540469
Ni 4.3819285630130835 -0.2515436579247221 9.955156302590972 -0.1041492184161045 2.2165410933660343 -0.523038487659125
Ni 0.11297310647369012 6.034838901936406 0.7633326547862939 0.9167376307897631 -0.025412269425517525 -0.30302687615504587
Ni 0.7356611232343733 3.516102005638645 0.28642196631489186 -0.416866839496353 0.2095238245988779 -0.3584814575789246
Ni 1.9374813386895873 6.520868691801821 9.333850700324415 1.645870862761559 -4.906275468734291 -1.9783646380274702
Ni 4.259398482094451 6.537993153793636 0.5916399354826892 -1.020089550115553 -0.3281833208160154 -0.312668513009868
Ni 3.9122051283776607 2.0701633807890363 11.451529349973477 2.2447820904895983 -2.1615590807032 0.8853686295601784
P 4.3809245228963 6.842282385853408 5.653737811942338 0.35266973599315393 1.5563154829992294 -0.028716908318718287
P 3.1051614011738224 0.16998306210474753 8.03690883980522 -1.2625744030214836 0.2065251469818701 0.10429808528914296
P 6.840627578994264 4.53479367079344 6.679540498257577 0.24516034285556487 0.597558570354887 -0.6651117348145126
P 5.95112240886567 7.22562118377442 1.2880403011504857 1.8101049622847019 2.2297478218642954 0.8276620188773294
P 4.850582880857488 3.7484164359934047 3.595248256844464 -1.4226535998359886 1.5422798308417698 -1.0180352386896854
P 6.605970388367008 0.43674629479971966 4.083929456351608 -1.4438878266244164 -0.8923113794265988 0.7783572591049305
P 8.514092850308414 4.489184218821754 11.976731579061862 0.6641020626030756 0.16376718718905345 0.7913187043616049
P 5.609683692484892 3.379301539726832 12.24161130687109 -0.8582884855139348 1.7079336935305747 -0.9343337466049715
