# total energy = -381166.8287875901 ev
CRYSTAL
PRIMVEC
9.28986478460079 0.00000000000000 0.00000000000000

0.00000000000000 9.28986478460079 0.00000000000000

0.00000000000000 0.00000000000000 13.59665614618372

PRIMCOORD
 96 1
Ni 3.098708671526733 1.045741483449419 6.280186321101765 -0.45004486891021844 -0.13157800405101855 0.954965306812394
Ni 8.388106774504898 3.1749505906748867 5.8721921876142 -0.4172509623086491 -0.34859685147536096 -1.1737821266774238
Ni 7.699040354266666 7.461647153107665 6.67535951239165 0.09690436392823311 0.3319232474744219 -0.17335765909096595
Ni 7.085834968726111 3.164787478752372 12.080996117764034 -0.49050194848400036 -1.927725989934996 0.03385731486907717
Ni 1.9795679675107778 6.820897318892287 4.034684830267132 0.07444192115965889 -0.6399126098410657 0.28908712614550214
Ni 4.0890732718224845 0.9897514692291286 13.56802103567281 0.37018460494846567 -0.23798387971178367 0.8222583313632548
Ni 6.8326025483460056 5.1393574990837045 6.274272393268244 0.3142872795602135 1.8780011119060434 -1.3174273463056214
Ni 1.852519778614695 8.580648509153933 9.532139670839298 -1.4805304175481147 -0.20854809094916987 1.411517380713511
Ni 5.058433488154063 1.7144723899779744 7.654128503636503 -0.8255226039368234 -0.649732681255281 1.2147374860438627
Ni 9.195674708165068 1.4895554770382946 12.29992942888535 -1.343357435907822 1.2261215595110884 0.45996444201677555
Ni 5.217206564815584 7.290295599715719 12.103389336492755 1.1431970548017152 -0.09499660538255898 -0.5412064168174033
Ni 1.7240502404278033 8.117307220079567 2.0026244825752113 1.6437070223410206 -0.9598272628903857 0.762500494578332
Ni 7.304156077767267 1.2027216162342982 0.2543332693406338 -0.007156151428807031 -0.3464702920506614 0.6135616306513626
Ni 2.6875299724385844 4.275130680948746 6.03705105460519 -2.093085204201518 -0.12245187338003428 0.07800058504519469
Ni 0.27216795148765777 8.606753028808656 3.6909477615481627 -0.9391651065553438 -0.8293548331987199 -1.914327457140903
Ni 5.173553490844927 0.2495109006029944 5.457085733753804 -1.4762256195251737 -0.5145877857886105 -0.15649353634577565
Ni 9.189004585349377 6.273910088547057 5.376688458149579 0.06537698274391321 -0.08388738284327488 -1.2217630254320766
Ni 3.4501721206716223 2.1243690877450017 2.180292214939842 -2.378739650516387 -1.2661816607567677 -0.2505059234381944
Ni 2.7451735825658288 1.4277685872790193 9.54621195780477 2.7143447177177706 0.36130761417380997 -1.1656803235058957
Ni 0.6359060987890541 4.2431363871085805 4.10783508246116 -0.5080438140225058 0.5719604101708086 -0.31569110188627564
Ni 3.5358711220292096 3.5556956931833654 10.357389003879835 0.6337645879617988 -0.4469284347684238 1.018754633354213
Ni 4.583442708813853 5.561405339807449 7.672347786179864 0.4352761952414762 -0.2475234437711027 0.2826146310472811
Ni 4.743367728691454 3.405655089288906 5.8029436785714115 1.220398540984382 0.11142081237685328 0.23110952118945358
Ni 4.347201450870932 5.794153608643547 5.255080413990082 0.501404197218801 0.5960488185785798 -0.402026689159727
P 6.208267904959771 3.7359376470413506 7.568225125256708 -1.0374061870171294 -1.4215397979465194 1.6522698243093674
Ni 8.037024209810486 2.627545316420596 8.083211558856519 0.8475615860147339 0.06939201744057727 1.5878948004674074
P 2.2950331911531574 7.302195916327001 11.519413581073774 -0.9031457510379414 -1.583149315362622 -0.6084248236454296
Ni 4.932620851255873 7.897183877297126 3.6338420345839104 -3.0998736663327904 0.6379552290043787 -1.2540961903471433
P 0.20690851032377927 7.696866525939547 7.970645339956788 0.6052202006652028 0.42770918152749565 -0.17313474444688248
P 6.27973483367998 6.724282726575874 4.549672192853408 1.5552153079565152 -2.685209233804395 1.4784668501508667
P 7.763326217615664 0.5163399668787058 2.4577990516394466 0.39019627218370223 -1.312711943107823 -0.15584690390071224
Ni 7.26968139006667 4.317947667101279 4.064719891653497 -0.08713905701135315 1.5666189218077664 -1.02001601656514
Ni 3.545848436658808 3.5313283782174087 8.04934257033083 -0.08642403322219955 -1.9698072353757625 -0.36273483353863983
Ni 6.8714248927008414 9.227269537825464 11.51635442864591 -0.8003057383515636 0.4681968572288969 -0.7119706041495802
Ni 1.9449539318404938 6.244136072357239 7.011836551889921 -0.4704023495206479 1.1291968838678812 0.025271887192911315
Ni 2.730235480215368 5.287428651673253 9.154234479953043 0.3426280354864357 1.153596138647852 0.16819154150899418
Ni 4.268237601381556 7.086643186950296 9.957810558774908 -1.3652956307418098 -0.9328373645651031 0.8694195624300898
Ni 8.593412783177275 1.013988726090044 4.770291614407937 -0.07209681796625002 1.0318613459395003 0.12455117911122421
Ni 1.3524835241893838 5.446183148605482 -0.04593280675473764 3.1953148154519355 -0.4582616003930559 0.12162166416925506
Ni 7.240223229274809 5.76566159377485 8.671933506123047 0.6190936162131854 -1.3522987042615096 -1.9680460297102815
Ni 1.7224059343854952 1.5986370677093829 0.5361682539787204 0.356356955036754 0.49718347426923415 1.5787704695686358
Ni 3.0944074641957235 4.368075776730064 3.7272516235975193 0.08450599026388027 -0.06314269409675577 -1.1114035644402023
Ni 8.022244035159005 4.667042200761488 10.500574616652154 1.044919207564723 -0.7350133449016567 -0.40750262467263365
Ni 5.4852656091704 2.847055528136415 0.6699878252151333 1.538997303435756 0.5083212360536085 -1.15299192940495
Ni 5.170757241586539 3.096153958749136 2.8527827296905564 1.7407404556479504 3.2368643567589483 1.6126565807931197
Ni 5.521709748175908 0.8855619212805231 2.7716915011972905 0.30193724263529287 -1.661678262107461 -0.7492210038606064
Ni 1.2408379308760522 4.533788382282005 11.14762669504325 1.3299303638686386 -2.03469313741587 -0.3355747281840802
Ni 1.5536834126883137 4.108201103128206 1.762085733247139 -0.14638987225287045 -0.6828695730185659 1.050552237480784
Ni 5.187283910791433 5.486659088867271 2.8658619301253907 0.3723091074906362 0.11944753933607169 0.7537420316594116
Ni 1.046215266546355 8.500867151575727 5.739746587358902 0.5172758741437349 0.16202192236317256 1.9942941647735333
Ni 2.6019981886446217 1.9190537892079786 11.936123465572038 -0.12494841454964285 0.5920407258604514 -1.093744456597542
Ni 9.066229734190365 8.383415392858764 10.65816044861194 -0.620890303102292 0.2861460412393072 -0.14180893775040737
Ni 5.621956677568833 5.154072644682667 10.368877779487306 -0.1613197540898254 -0.08576300259943294 0.6705100230119485
Ni 3.4382346446017578 7.808670046951858 6.01366474934583 -0.3342840343971146 0.8235294847661947 -3.271875068506178
Ni 3.5214811216928514 9.00754565922279 11.607601337169974 0.6724838589088676 -0.3564932235043022 -1.6222164565674126
Ni 5.466788068389886 6.171415011909848 0.5717410036804519 -1.289825782538269 -0.3629106969948718 -0.05550086128078183
P 4.878711766716243 3.2601293596123093 12.050702798140515 -0.3006702029974112 1.2956488169779492 0.7088927365552049
Ni 6.856635428184713 1.2397138572539095 6.444203526355845 2.4024683615918945 -0.6460390344537777 1.0802204539691784
P 3.3022681856456986 2.3794780607835606 4.61078928337172 -0.33900560824250003 -0.6277901155459188 -1.248484757697637
Ni 7.990398379153172 0.06814115717700846 8.104912682669129 0.36987864367227263 -0.014840921667574442 1.1843408760298766
P 6.778414767867003 4.735434184283933 1.5046877375598526 0.6780590390038 -0.9114758681701915 0.017621312626189007
P 3.8910505170324226 8.836556410552033 1.8143245001234516 0.1306385229558847 0.5033332959207139 0.08339810191168218
P -0.09090411251863408 6.141901111930112 2.9528132052372333 1.0868235611079928 0.20665241658835376 0.6826165764674953
Ni 0.139768800555589 9.190611731933101 1.055399226735202 -1.9954979552736474 0.8989569097675744 0.09556636184309993
Ni 0.2636054832436157 4.695348418337267 7.074435375819239 -0.332155418089886 -0.7743540514828083 1.1744899513777256
Ni 6.0860504456795095 2.803439613624342 9.648445060258968 0.5189959421586352 0.5801365182236976 -0.04626288762228161
Ni 0.7422722620241725 6.246012625015693 9.624678799535596 -1.582355358706417 1.134863595235355 -0.47211753243954174
Ni 5.42089613703959 7.621042650700455 7.1825963409039275 0.796911367958034 0.7950606879025404 -0.563885603582474
Ni 7.079294904015462 5.338671545059535 12.62709245008973 -0.7293237507160472 0.9238279619776413 0.8668831691614812
Ni 8.765414627094428 6.2987604764745955 0.7394323504019489 -1.2546410071070198 -0.10382783052094377 2.1455994720501503
Ni 0.603708356913145 1.4104151201206485 9.875713237940502 -1.467372540009918 0.5531345357135571 -0.375953646221759
Ni 6.43380723883072 7.688533517352257 9.256725840644394 0.3356338635567897 1.979373796018275 0.9239673157689829
Ni 6.3005255507573 2.2310910527960544 4.60743099730226 1.0681848629608828 -0.20854809094916987 -1.0278100586882621
Ni 3.7680434192572663 5.417988409405452 12.117992074729504 -0.8162494061650135 0.3299098165888189 -0.38193403217490995
Ni 3.366126715220989 3.7068696605646143 0.17524772262439786 -0.48687335059247755 -0.02030040212024891 -0.10675631702164841
Ni 2.866266968223948 8.070226186054608 0.03175833127816239 2.075851871042367 -2.4852499129655 0.8503082955219355
Ni 7.961692697397622 2.5802320357794915 2.575152337791163 -0.888102997772206 0.24127874841297153 1.0155137578194124
Ni 5.868045192036311 8.525420263834599 0.30821820023218394 -0.48578988772031173 0.8011647439177492 0.5672699466736746
Ni 4.991927347154718 1.3342289401603693 11.15571630917682 0.08062850958634502 0.24005413197725112 -0.6215631607996004
Ni 8.65420565741945 3.457910577921581 0.6501093728460314 -0.044297022145162415 0.9946428279076742 -1.4447740858841118
Ni 6.870923240009968 7.3740065700391035 2.1358717981494424 0.8555070661140557 -0.08280366286079288 0.648836651803573
Ni 0.7176801323337872 1.1320721956029214 7.310894945581336 0.10657171181466808 -0.05073095069596425 0.06470978147355952
Ni 3.240258339134924 7.918541276117839 8.092851651399476 0.4367435238156221 -0.02350965308616596 0.0017439792743002224
Ni 3.0611032994404987 6.078460626263883 1.8758215461057774 0.14856553974795061 0.10909627800873468 -0.4213369594525647
Ni 2.955542567470172 0.19890714990434402 3.902797550877047 -0.17014275169809406 -0.13813406000198147 -0.22119354762732227
Ni 0.984289028817393 1.945241917644514 2.746429572265942 -0.2837032361257695 -0.5227099006751126 0.7117836849497547
Ni 9.207807271392495 6.034231580685186 12.088351832590586 -0.4851782222782419 2.409734813346321 -1.7511133142418422
Ni 7.018269783157143 8.708291249387349 4.276515799767436 0.8706071549802877 0.10847432815401963 0.16132592473741247
P 4.69578504197562 -0.22096593350581734 9.237486530962924 -0.027953547790132503 1.7604489898204712 -0.14086714266242836
Ni 8.170575303958637 8.140903476279922 12.918277683493825 0.41052032845303493 -0.5262281982410163 1.0344527608157603
P 1.0188194557058647 3.8484379079020967 8.970638884957921 0.0031747981835558224 -0.3873480041016297 0.14237406622525803
Ni 1.2150678463485782 2.2062035054099325 5.201536421131032 0.49816666411810984 0.2197128493167377 0.3228901907378762
P 7.4468483987268925 6.787258719009812 10.954023128865199 -0.4999145000471519 0.23406320450113882 0.2732396175902843
P 7.891470610539953 1.6447519558111785 10.624726225751672 -1.321713375275485 0.2360267559854129 -1.284951228054787
P 1.1746476452746637 3.2114876283268536 12.934240457914717 -0.20952613859172303 1.9447744607768507 0.2312884699694791
Ni 1.3776404776502345 9.246174412379684 12.63045073615919 -0.8720677986862143 -2.008678201409347 -1.913097441388544
