# total energy = -381167.6229595834 ev
CRYSTAL
PRIMVEC
9.28516004599548 0.00000000000000 0.00000000000000
0.00000000000000 9.28516004599548 0.00000000000000
0.00000000000000 0.00000000000000 13.58977028567427
PRIMCOORD
 96 1
Ni 6.399174603761628 8.988025846932748 4.9075377493407615 -0.6696857273384402 -0.5309497720864018 0.311674781638031
Ni 9.236041762649004 5.950617796740676 0.4688160981931765 -1.1795799643061233 0.4095278826327786 0.4057691869212947
Ni 1.960004479373464 1.363349366198707 10.23097732558258 0.2929095852153859 0.09747463460940632 1.102905297161204
Ni 0.5560826769007965 6.942495756400493 11.524981400892317 -0.33705568360498084 0.360231864611128 -0.40672615151792535
Ni 3.204661641963137 6.049458327712918 5.936854403686645 -0.6353499301710477 0.008621166010107734 0.45573960530215063
Ni 7.048569427215607 5.15660660223055 1.8023972405969557 -0.12036388050275403 -1.3347691800181787 -1.3590180252632142
Ni 3.1234814858062268 7.141151760172322 3.2838594164044466 -0.5221990224769653 -1.2595469290490695 -0.024746867927376737
Ni 1.7955550060010472 5.453044628704932 12.986724681854739 2.329260055729021 -0.9372768883936954 -0.2124314851639761
Ni 3.548834677336372 0.7375732048991741 8.76591831389116 0.7675899932860973 -0.2233951832643314 -2.9779421842326004
Ni 8.339123136972571 7.265071509007976 2.232120028545658 -0.5805705204373227 1.6551810844188912 -1.4669218256257448
Ni 3.953704805332016 4.113836679183334 12.30280577552044 -0.46975340308273933 0.15864374991955904 -1.2004969169644486
Ni 2.153145097950599 4.664344545863771 3.8978722081700443 1.5834359933651052 0.8994132805787027 1.2137951767352515
Ni 9.049855729106929 2.00758164054789 10.418339788929652 -0.7843682411857008 1.5327505511950958 0.3776562307351625
Ni 8.491158351076797 7.516160812770434 4.510485726284397 -0.7351575837890049 0.6969494481503997 0.29095323281996344
Ni 1.4358757529928998 8.932017760241854 6.0407887735777575 -0.15236717288222792 -0.6667047903332453 -0.5231462168815829
Ni 1.3548348742398957 8.34629128069362 9.002679686855753 0.15859181363570107 -0.05562144601904615 0.8429181737054516
Ni 4.419532010437361 8.628328023604078 12.991195486520134 -1.5757941605491312 -0.42781588230868905 0.659644026831722
Ni 6.468906157317432 7.745392849279848 0.6483678847291771 0.0680424453912183 -0.44505384345353033 -0.10165704812187008
Ni 6.938549563289812 1.254211592497652 9.255394822179811 0.2079819340330547 2.4937661779666276 0.4291492564081319
Ni 4.046212857006647 1.007142763127959 1.292247322988464 0.4767838275669595 0.25083013954683253 -0.11180133564472358
Ni 0.439098942779681 3.60841755072753 13.229247496760927 -1.8054888036689292 -0.85383250662511 2.027734960930482
Ni 8.33587333088142 9.183385618812125 10.996448723000233 -0.2641247997732097 -0.11382582227392009 0.449899858691922
Ni 5.244462788614708 7.639644159073848 7.162991385620871 0.16634009012255224 1.0247612445596095 -0.23868450532323407
Ni 3.0362566903197785 2.9921336087622312 2.870526793347449 1.991163075343719 -1.8431166413240323 -1.2312668511574536
P 6.639855242872146 6.476083586198742 3.2862642729118963 -1.301632802475526 1.9539880089553185 1.9852294834681035
Ni 0.12479533944821246 4.276057714093248 11.02326055176824 -0.425506517449222 0.8964855654089464 -0.9907720320983582
P 3.785262713047616 3.9793782734520957 5.425131579930038 0.5580227170437938 -0.3244256535457961 0.10988843489272689
Ni 2.647802725664569 3.083481015404309 0.42876177386174796 -0.01778303501503389 -0.9075474796500628 0.12324300182276195
P 1.1320281686306977 1.5289873400844585 6.866394582906037 -0.8334107484356487 2.051343087267725 0.19144228450681866
P 2.7158536652132357 7.903806968482987 7.386474979413055 0.8528002087058539 -0.6489639214100565 -0.7167916796873074
P 7.828680736815874 7.152293952484834 12.68708327509051 0.14053752723715152 -0.35889103431251734 -0.4438209994876937
Ni 1.5512995801902636 2.0484549160142884 4.4076386486597805 -1.6975991443737863 -0.5078381257696027 -0.4654051534163727
Ni 6.375339597373112 4.711578156108561 6.866789202217105 0.620538319079512 -2.0263645629455165 -1.492035847084553
Ni 3.992507490060339 9.15020045604136 10.714447263698762 -0.043527748079305685 -0.9165401700669763 1.0801872867383977
Ni 3.1471493593100544 1.6589424430893898 6.003621205571296 0.6349213272740613 0.4928370243750803 -0.04015574628327923
Ni 1.36189159603782 3.8400451585841333 6.18360382354338 1.3185830571766195 -0.96860140953859 -0.011805220165044185
Ni 7.936082185548229 2.3463042868482544 3.3819636341680357 -0.6980179986242301 0.2568310943252738 -0.3584588318711053
Ni 6.489379935691673 6.080099356572326 8.612517252712625 -0.3120784448343529 1.2338896334922813 0.8685515580028396
Ni 4.196270331975402 2.789735685405451 10.112257266492765 -1.015482904581477 -0.4937371675918464 -0.12425678779925697
Ni 4.105424323987388 1.6827310236766029 12.119330080258383 -2.6568743914154433 1.0571088076523794 0.9712977254238304
Ni 1.6026279461099022 3.1887840179178073 8.451437363998716 -0.0895353251576716 -2.992924259463729 1.07206157230747
Ni 5.268594920131556 8.54652576170972 2.5852504580221267 -1.4277161019605606 -0.4532512916626581 1.0241302958438299
Ni 7.360160835235006 9.3534990399434 2.853457883240707 1.7508245793568298 -0.2442630278522761 1.9545410532453111
Ni 5.95591033808912 0.885141328402109 6.8138433613800995 -1.2757515638333898 1.0308071936433731 0.8766443623133031
Ni 3.4525289951152267 6.756671844108575 11.913988761099048 -0.1586280661902752 0.6513244512224331 -0.5193543539393184
Ni 1.2371826085800295 6.744016170673613 5.071689169068819 -0.0030166753391367403 -0.6227296703038759 0.27519005644843575
Ni 5.7378483493729995 2.7008952720336885 5.013402504050015 -0.867738575183241 -0.15496707239892024 0.1783276015017316
Ni 7.640786233785881 3.9405941590442937 9.098160846845772 0.869194076682845 -0.45836213052666225 0.07112751207444525
Ni 8.69297130933717 9.132298667059256 13.379944719271627 -1.1397108960253273 -2.1988027955460065 -0.3412157285199414
Ni 8.977979303530965 0.9619426029802021 8.42501922602575 2.488074784008805 0.3790132589836892 -0.1259650287396153
Ni 5.630530467082988 2.7205705266255324 0.00601121275260022 0.11786091157524217 1.0008895801483342 0.2738875355869283
Ni 7.4951949209023905 4.692729280779894 12.881594383322085 1.5685601046945372 -0.7956903510667394 1.6568723560783851
Ni 6.65407082323086 0.7576978612476228 1.0005196583141966 -0.7102433370458284 1.6211581905062273 -1.1244891939795665
Ni 7.13326865911122 5.956560299307349 10.917708706959763 2.020542814057417 -1.4102991920356938 -0.4499664502637993
Ni 0.9682379416367713 1.1552410692817643 12.463830881788812 0.16999362771473947 1.2185519746939464 -0.9047290363646613
Ni 5.65299126975296 5.951453461164114 12.791453118997836 -1.3890942758233045 0.5034963038611393 0.21497867706586202
P 8.720947497201836 4.785051629249318 6.21804062591725 -1.1750100855472538 1.6142239252802395 0.8127722462496905
Ni 0.5039854997115946 5.797199093757646 2.972599488606346 0.27071659405811443 0.09830150138607585 -0.7143856413489761
P 4.296782191794521 1.1527619314922304 3.9148055549369847 0.7530252080980451 0.22414208873268493 -0.5489431233400287
Ni 4.440544328106707 5.216616592993687 7.701961512161702 -2.6528688698004763 1.4482031661703187 0.6224303938959023
P 2.3671773271136938 5.857849760578753 1.5852331268780189 -0.4463717909340055 -0.3748017920055029 -0.07050710488162697
P 7.84687036576605 3.2101120310360076 1.1546783885699825 0.03533827028997785 -0.989481852532025 -0.4347408915632965
P 0.4891858827725005 5.87803569898492 9.477669488106086 -2.697008026211536 1.4568104482233557 1.581319975463367
Ni 9.264166513077837 7.01097381332114 7.453975308958278 0.9948076356203126 -0.7783672864072595 -1.4767789209254825
Ni 4.3801722160934125 4.665338058011636 0.8677706505869027 -0.08616589446480645 0.32344323502786876 1.760654420963058
Ni 6.061324762525743 7.867009878370916 11.039827134704893 -0.7699194127502224 0.957290355401145 0.04173414651399264
Ni 4.865971800918936 4.933725615339269 3.383431618005209 -0.30431525594916625 -0.48318098934255493 0.19826393541434242
Ni 5.943839629750565 0.6636856136108029 12.427070932317783 3.379844431999321 0.026956473984185835 -1.504652507407299
Ni 7.137939094722214 4.662747498298977 4.504207100916296 -0.7454065152105226 0.46740238635205955 -0.1326648093572941
Ni 5.576147283437669 2.6614147706063545 2.4633093768379695 0.1107952629777124 -0.11373223411884928 0.28795944029896214
Ni 3.9524420235365985 7.35328981664229 9.052187232848322 -0.3059746459294601 -0.38002704496018425 1.241338890681475
Ni 0.7387236362554409 3.4794095340691618 2.169076575925439 -0.2884317519496903 -0.3002747673312054 -0.7520898407679693
Ni 4.060994832141246 7.077474131106316 0.9376823362517593 0.12814609555133413 -0.4197117651443158 0.8137798615785984
Ni 1.6642442695980935 5.272866093851352 8.007296579197623 1.787645090619289 2.130285467400899 -2.872929589374936
Ni 7.824325996653735 8.93585253142941 7.150040444089628 -0.7626038529254157 -1.5623737733781673 -0.2996960120096
Ni 1.7580986695104863 7.785291182918901 0.19530406091781438 0.055598048980278446 -0.2329871978281407 -0.26439759381862205
Ni 2.5042355777178518 9.315708437683465 3.2025929082571136 -0.08875396690695683 1.0030670474156274 -0.3322276660887181
Ni 8.670807631795531 0.6958698361054939 5.304998319448585 0.11938197620545891 0.9464922363443765 -1.0316479443771136
Ni 7.811493905173825 2.8732464167877283 6.859857830082696 0.8037967822239576 -1.0874197999310948 -0.31367895655225336
Ni 9.077915483413937 1.1473486830604016 1.5286047914817287 -1.60752285911098 1.796172925584642 1.5101143018528185
Ni 4.8996026513822 6.922077688987816 4.8014696496218034 2.9825650277165923 -0.6311952845727259 -1.0149298602914845
Ni 8.188852103317824 7.541927132493118 9.359574320301798 0.009228203466487334 0.24198245934821555 0.5529031364290414
Ni -0.02372079891731199 3.902450720694461 4.360304758684178 0.27238061202409863 -0.04927082121066999 -0.44668675107126293
Ni 7.774056139003784 2.17732365526875 12.520690417675585 0.8109107675609195 -0.4185619678105888 0.6888895539604007
Ni 4.170940414784958 2.8457252017758234 7.651557019687975 0.4452739298841364 0.48178565165692505 0.04234066974973998
Ni 2.42368681245865 5.315763534254524 10.172242187323198 0.2170389020290004 -0.7845610739227972 1.5369172809782756
Ni 7.239732306657272 6.7386957738443884 6.322884941513884 0.2200581484712984 -0.1376002989856985 -0.7138338826105641
Ni 3.8203513336717685 8.779119026233408 5.422983922361801 -0.20837479859609923 0.2832016138990026 0.1894972449653059
P 1.8927056378058913 3.190195362277392 11.790308569398112 1.5305507153302993 -0.47890935855039446 -1.0936256716314907
Ni 1.740642568220884 0.6837824144784703 0.9117553832565699 2.4129916297207217 -0.06769148980970277 0.7133201761989392
P 1.9860957797052627 8.689247960072738 11.68799074590834 0.500006545540326 -0.22736316677314392 -0.3408604020630516
Ni 6.44971373105913 3.6208132396751993 11.210310105214536 -1.0956159625886421 -0.8977379497588088 -0.6134261335147629
P 5.500751782123004 3.9885334414688765 9.026869386366217 1.7181841676139893 -1.0711575724359617 -0.5574367626333367
P 5.78597333500279 8.958759021791883 9.15068606992298 -2.054599132311178 -2.482811992947969 -0.9906930992313068
P 0.3093898965216507 9.12214998689461 3.3448638478314754 -0.11605985381076141 0.17725416593189472 0.27323576093554236
Ni 4.76205228728424 5.3004894456261225 10.451131260905376 0.5893734634409333 1.5324361052784705 0.12198238994278349
