# total energy = -340860.1062814663 ev
CRYSTAL
PRIMVEC
9.35570108907054 0.00000000000000 0.00000000000000
0.00000000000000 9.35570108907054 0.00000000000000
0.00000000000000 0.00000000000000 13.69301423261368
PRIMCOORD
 96 1
Ni 5.718139065093014 9.084460681516049 2.5788054704524406 -2.691666045173332 -1.1917068294766444 0.5790355718500351
Ni 6.579892699846224 4.12584550449349 3.0809558904810572 0.11606371046550333 0.07384079724055025 0.2977440304895517
Ni 8.523764154706859 0.9897209153541677 13.679567574145727 -0.1756181729903685 0.1662573006007588 1.013791890032299
Ni 1.401727283471221 4.342289651057548 1.1754081943224048 0.6149312573053797 2.177123253690044 -0.026909679906650434
Ni 9.20947156054734 4.711830491564735 8.267129787057437 0.29613760523438026 -1.0030693614084725 0.2921158856694969
Ni 8.91749883843923 7.4185377527099465 2.7456269780117117 -0.875424630973589 -0.8021641317165411 -1.3702617164978337
Ni 9.148855972668 9.228856573371234 11.476840708177953 -0.29836675167521515 0.9744388421559734 0.7614345152076629
Ni 5.894016891384683 1.9399888388751547 3.178627539553868 0.2738795651671283 -0.07216340953812733 0.31131405586450256
Ni 4.554364685175296 8.356690043216002 6.546315088347696 -0.05493547569561506 -0.4236023584479736 -0.8096974639791088
Ni 8.12434120466323 9.229951190408103 4.455063272958702 0.2861444985774104 0.3476874522872141 0.12768638230609622
Ni 4.012819278660752 3.7970487425809205 6.296116507533002 1.4705504235172673 1.9102170345169556 0.8447007195271711
Ni 4.567556223824759 3.871014916029611 8.774634474865547 -0.6703863529498907 -0.7367370124609829 0.42051446355126937
Ni 3.456033434940551 2.4724872823584723 11.18157852153853 -0.19519686645324447 0.6404057474274003 -0.7600121809388394
Ni 3.8957233228191366 1.5442894578971182 5.034496462500714 -0.46338658032444713 0.36469067171342995 1.260893415774635
Ni 6.105876744375525 5.026631124527236 6.005687476117913 -0.10252736654196537 1.9219775174869929 0.47937498533290346
Ni 2.5695339705931373 7.112989908204409 7.063774242200509 0.213447070912684 0.8259154684998679 -0.12797486008079248
Ni 5.439123989105122 7.1791066483716115 4.754159425937522 1.2419639258599835 -0.72619420394813 -2.0898715823602263
Ni 5.18330169631724 6.400721666742774 12.957781777884023 -0.6368085169944453 0.6549142254562204 0.9871951133803771
Ni 9.143457733093008 6.890305508960073 12.111375235329806 0.5692445539015422 -0.6299475282085538 1.824311078581755
Ni 2.0770124382085116 3.857290102413468 5.0350035415041186 -0.7638009585573104 -0.9577788650017892 -0.4100359326174487
Ni 9.3952757857802 8.406191058105582 0.5639504396760578 0.7496388081243154 -1.3155483841153537 -0.7615008496692239
Ni 5.388135417729537 1.30222004582889 11.672117580845267 -0.1267759546766849 -1.6934313861493417 -1.8390291015182199
Ni 2.2245050671509103 0.3278911300393295 1.3226276367906442 -1.0813499395879314 -0.39752391619336697 -0.498651059953696
Ni 7.902985314985008 4.634402708683208 12.236939971870354 -0.7385234149374442 1.5313924945053043 3.9422539652569015
P 6.832805369570287 8.059300370130558 6.202182461077539 1.411187765288234 -0.7044694106765287 0.7573001813243152
P 2.7439335960999722 8.943002479828191 5.571509967368592 -0.4579893205682758 -0.3242582747299964 -0.6529563303989012
P 3.65744296972469 0.4714113282650174 10.16061330655759 -0.18177699350291274 1.2535989389957507 -0.9439028783506453
P 8.702458047050646 6.247044919327117 0.6059519245079008 0.20261141374976072 0.004673237105953242 0.02422981908164214
P 7.636057804908536 1.9042126376017179 5.401004184688641 0.3206888122111832 -1.3587835406549051 -0.17763957429577149
P 0.45968863469921817 0.2522718041939299 2.7601142812731965 -0.559396714573185 -0.9565743031707268 -0.8491926938602536
P 0.8161174600168857 7.400275424026435 8.27215566972587 0.26775674009884204 -1.2247069385517488 -0.13149624297048967
P 6.053784200261901 2.25121559399078 8.67874228015524 1.2729169225980723 -0.32500543730866605 0.6953682197062089
Ni 0.8162774425068897 2.586748460745628 7.956585998127209 0.17769562434468752 0.24424631568172772 -0.5857147836424236
Ni 7.425114810632338 0.694332426748951 7.43907258120761 -0.6261957744756055 0.11711914831321119 -0.21806117264592764
Ni 2.223737899654984 4.8464870985021244 7.525448156687966 -0.11422614303613231 -0.9095799366990592 0.9094338980394984
Ni 7.801504024395842 2.4099163529346366 12.142964760329743 -2.179300720957337 -1.51498757078472 -0.19637931679711984
Ni 0.8500618150012694 5.823390703253622 5.582834108064556 0.6470983289562274 0.04607956796688194 1.160658187700956
Ni 2.237013639614975 6.268853058753995 13.213991396700335 -0.16051139925591712 0.9285909305839234 -1.7350742585011087
Ni 7.470480605604853 3.208041864031819 7.187832710852714 0.015076691827464355 -0.6503628586401122 0.6355504762176281
Ni 2.319109917380249 2.5644725362602587 13.51445722433042 1.2417458963119066 -0.08955100888695545 0.5871013795773051
Ni 9.042883945517316 3.334699346469002 4.54017863549148 -0.4301486442069237 0.54986152138924 -0.1651825794793413
Ni 7.784542138174937 8.217757880844 9.75939499745947 -0.244272798044289 -1.5241808072482137 -1.3592831059991428
Ni 0.8417530167923418 4.565909620418869 12.191643409086495 1.748402085958266 0.6089524140141255 -0.12752183170377393
Ni -0.18888225091773445 3.212177083948885 10.54366190841378 -0.34195929155418525 1.6443785944867488 -1.4798945837363287
Ni 1.8849211817895248 8.345509980318052 10.042251524347698 -0.6875227555198612 1.1726300153508513 -2.4262158417204795
Ni 3.6685481870132803 1.2607462225430255 2.8672211549757822 3.0638113733925945 0.5258389332223976 -2.5699132547428514
Ni 5.9664861526462 5.760988176450844 8.81181028903399 2.0514017084198026 1.6399287862455114 -1.8756848050680408
Ni 2.530080978759957 0.5443268564723356 7.874483171371115 -0.561735904229323 -1.057231449273173 0.10422223774588503
Ni 6.01434991983106 4.164063543772253 0.7387392623515577 0.4857042699850409 -0.4737031317591067 0.3408349481417549
Ni 1.7705664463906705 7.132225229809584 1.5414911676772216 0.5329140949016241 -0.6100225071498526 1.6167891149042541
Ni 6.663916252052483 7.4644274669479715 1.0456408768163696 0.6233644756743973 -0.6115343158086888 -0.08271341713983174
Ni 8.058916786382595 5.88753339047399 10.483906109471947 -1.3033245883556523 0.0854989503047689 -3.382849794484548
Ni 3.717740463764256 4.691846713865975 0.21756963741478974 0.010045814271776247 -0.9459803297049642 0.9669656737073797
Ni 5.920727418224553 0.2709167810552877 5.132045551888199 0.012889711478474576 1.5085207321134537 -0.7254272438751184
Ni 1.7209063845812032 1.6831280632574224 3.46874221940965 -1.5319023442621875 1.6284069016488407 1.6771424191813311
Ni 2.0875188906222326 3.7882637391824487 10.060558760396823 -0.044246628523201215 2.4799588397698904 -0.8870778989418012
P 7.423421428720599 2.483817036475138 1.528962012670583 -0.5377899349366867 0.5861822101971453 0.5878344010885876
P 0.266731040351905 2.890696480351124 13.293507372082969 -0.416494800868915 -0.05167197445299488 -0.13145047733421877
P 5.32957808410756 7.40725477709913 10.512181845117532 1.0838505945225978 0.3953742168402159 -0.08312453653532136
P 7.014165636747476 3.8000144998517573 10.570637201596757 -0.193632350179602 -1.7583725669074166 -1.449000979481266
P 4.401829333302358 5.742651002157975 7.493365586236378 -1.8193604194446988 0.34720228512067947 -1.1446353299101384
P 8.259362683946241 4.85730228905445 6.111890589087492 1.545389580115345 0.16216384725767555 0.3941956231510824
P 4.170790292913361 7.986559793535116 0.94303503094659 -0.18384647443743174 -1.3128775221514097 0.903768729333921
P 3.677174143491865 4.960654719877582 11.796339774267944 -1.389098903808995 -0.23821065101060906 -1.1211462456492627
Ni 8.268447069782148 6.618746926804534 7.665677954812224 -1.743143151552172 1.1567102587968014 -0.800052484690177
Ni 4.337256283828179 0.5735540669268903 13.883346908036184 0.6348796754028485 0.8277296388904714 -0.5530121512030799
Ni 8.25053090204192 6.646654983394144 4.8508047545920014 -1.7180661539788862 1.1674800957187956 1.0412111625855165
Ni 8.972360670099125 4.886071070151684 2.8602511576042575 0.5331709481074366 0.5379801965706219 -0.8663998017671595
Ni -0.12419693302951731 8.629165484086183 6.522694749604223 0.39095320495438474 -0.25798089165900084 0.5768683889953872
Ni 3.1356287369773206 6.350397350150248 9.97648375183413 2.0516840155469116 -1.6396454506771376 0.13488675670927736
Ni 1.2924620495087553 1.6712463227717358 9.948659896555052 0.822416454207674 -2.953236453955804 0.5589933084871792
Ni 0.8818272271831993 6.014209584313513 9.98864335664456 0.10331232433710595 -0.01830445473614267 0.11763876826210708
Ni 3.2295506210212626 6.2673935693715 4.692582071977923 0.44916478029811024 0.08757228789402983 0.6513568471222653
Ni 5.69672386511527 5.395881938298158 10.89461390626663 -1.2343904843881 -0.9806915079339046 2.2085264505916737
Ni 0.6151214472244529 1.6327756795613877 5.760583074590191 0.6026624672403557 -1.1293267245775263 0.28775066672226574
Ni 4.432095026586764 8.06589613945529 8.71865744362621 -0.5461905002955562 0.5524740193114227 1.28836796704582
Ni 2.41420126407042 0.7592086009410326 12.078333705508312 -1.6211080539945824 -0.6724730602755903 0.7617440760282818
Ni 4.159376337486167 3.956058239663382 3.8467097399605046 0.20845784522820876 0.18514796685767468 -1.0714938727294578
Ni 4.806089180850791 1.1734201078238156 7.351696881272201 -0.13238970131903652 0.7091940698457077 0.17225774115856785
Ni 4.657118351123559 6.082393934439247 2.097564106968281 0.5825466703270871 0.4963324391228484 0.31453487679464537
Ni 5.194350779398811 3.4096665799428645 12.23223031190146 1.3991853415107194 1.907124768744877 0.8428983762111096
Ni 7.872588641884224 1.0825201152577295 9.988876313603688 -1.1100563063836884 2.561792682518246 -0.7191169853863744
Ni 1.0078803313248115 8.204220181251252 4.322474275979845 1.5688614379850399 -0.23391228074557135 1.1178421209766942
Ni 9.618035030633896 2.4875406055407314 1.731385705461532 -1.1444034164049905 -1.2497962774202087 0.8968396063142554
Ni 3.6623453571376823 8.278214421803453 11.654987292003305 1.4509151657848431 -1.3489950938095736 0.9971380835257019
Ni 6.965076272709369 7.850958260779573 11.894587734532815 -0.5050060556374464 -0.09127390511533312 0.7984481163175345
Ni 7.790744968050536 0.040302489499401475 2.0777234714974187 0.6539814292293059 1.7190832823894908 -0.7546550303919842
Ni 3.2821015944922074 8.30841462517967 3.1635105976036537 0.5566083531947704 -0.6197435910923585 0.34612936377147485
P 6.575748124227988 0.3277395676803782 12.979580561609732 0.8668381748561587 -0.6968265494192902 1.1126762605050384
P 1.665127694206666 5.515990429916459 3.5968947428937725 -0.8899791317489963 -0.16228803154036567 -1.7961356445888035
P 2.7048454766124146 2.375047654674674 6.742289896322282 -2.629337362337439 -1.0655911340917779 0.9947081339279709
P 7.052552078647297 6.150232123621698 3.1666737601691737 -1.51705499483671 1.3073257390952453 -0.9192076895968104
P 1.474046853514021 8.130244652101393 12.025643332089937 0.7925700602702028 -0.834843110006801 3.049307009128832
P -0.02770316673398898 0.11841978755714617 8.657586233099899 0.38772364227349354 1.5260440857091975 0.10203217207310171
P 3.97006372431462 3.201745477144522 1.7823789546877002 0.14349763830673995 -7.584754325793388e-05 -0.2785471458461267
P 5.685562513619661 3.1305860140467816 5.2727281659490775 0.8846438355790119 -1.7131226939306816 -1.9218132239949872
