# total energy = -381178.58679730614 ev
CRYSTAL
PRIMVEC
9.12456119554189 0.00000000000000 0.00000000000000

0.00000000000000 9.12456119554189 0.00000000000000

0.00000000000000 0.00000000000000 13.35471763445547

PRIMCOORD
 96 1
Ni 8.075693003185199 5.83788521297654 10.559374872757767 1.2121676684341576 -0.44772830496189986 0.9700574252588261
Ni 3.261665692241773 7.311583988471075 7.513698496619038 -0.6940312460623402 -1.4995018164442948 -0.605296562429093
Ni 8.87012293519166 1.0110378933675304 2.557108127033653 -1.5710062522421846 -1.306813575345517 1.6293726079962199
Ni 4.304411436223471 4.100276750197529 5.636572753769293 -0.8722444334733946 0.4432070200527787 -0.5660787545790509
Ni 2.8038408276185116 7.6454699365785865 13.42950381351061 1.3056866608299256 -0.6230364029110174 -0.33953011328740235
Ni 1.6765012755666149 6.93774158630905 11.465746748046165 -0.02513459028409865 -0.7838524778915468 0.38912257950354917
Ni 6.848767988801497 8.663396873748619 4.454412837259866 -0.04012206483186638 -0.7948542283186891 -1.0608577331718503
Ni 3.7448933356016787 0.6232732355315203 12.471490570931294 -0.37236592887050063 0.6434579039901628 0.10958041673400483
Ni 0.12707229087572267 5.080108643823922 4.8870785489339355 0.22706003371042832 0.15445696553172109 -0.7344122209825481
Ni 8.969544155419564 7.038960345118532 -0.34048391840365627 -1.4205946604244308 0.48434698462619813 -1.0639271161257935
Ni 6.192128057406412 2.9244857774949193 6.407006001939727 0.508240246304028 -0.5526329134867901 -0.7141699257937443
Ni 0.26960523846529993 4.08567745207302 7.74918152554283 -1.086394443990374 0.2703728375654505 -0.8267281942091504
Ni 5.635538940970852 3.360539438790007 2.551618790938838 -0.11970876341725836 0.47059286826489927 0.34807903129867795
Ni 2.4860049828866324 6.299679261777403 5.027624167066314 -0.8246669408047476 -2.4670627005335124 0.8262286288649124
Ni 6.442387400944474 5.674190582755488 1.5088830839746008 -0.11685638157012776 0.25616697837871366 1.2807312764361685
Ni 8.13920907458814 4.134721969210041 2.8001234813335585 -0.3489578343592055 -0.019560695740746956 0.4251069680179582
Ni 7.025419496108052 4.407674096770385 8.460226653855027 -1.1446222172840157 0.880245192290684 0.16339257745845406
Ni 6.792505943654172 1.6884544509060562 12.192910413943954 -0.17822012938958984 0.5922636405045348 3.889646366363514
Ni 2.6822104251187 3.2421756292455535 12.951859489227196 -0.8829515354782536 -0.1989005405570768 1.8179203445640628
Ni 8.984061332492121 0.3942284970806363 5.1933161637620255 -0.40924249018187586 1.2763691428127306 -0.6564923685766177
Ni 8.298797652211674 6.517391295059137 8.28876610948787 -0.39514950242391944 -0.002619697011034198 -0.7140539690411702
Ni 3.6964692886349497 -0.2452380974393623 1.8402397036820408 -0.5641992781681509 1.0911142180635467 0.16384277762199523
Ni 7.2608788011723915 8.802610305927136 8.871472457812045 -0.6490335983057274 1.3085120460938624 0.24396760809904436
Ni 7.210684589308065 5.186601399080884 6.198685879632716 0.5319221633019999 -0.11849648827671205 1.004609709312399
P 7.437220073393799 4.002178591362159 11.625695745842147 -0.49743261416556267 0.2739230168105541 1.4166886405018053
Ni 5.418757612944554 6.407960431054617 5.112145891102023 -1.827280188512408 1.2275297527125246 1.1357639955624375
P 5.039011619603431 5.719357161328186 7.973073624211895 -0.2794886838237896 -0.6984520008378552 0.9411872791916951
Ni 1.0625642911857178 8.169128511182054 1.3947932189560974 -0.7101906294310221 0.9220325606401153 0.9594583095867413
P 5.19515111304505 2.1449562541367837 0.8208948096816651 -0.49439151334639364 -1.1530006711556982 -0.9644022838555777
P 4.768942853422677 6.51670695295955 0.4088916671344396 -1.1115920263019243 0.8299209901148352 0.08224856168827126
P 2.736547187825855 8.494236631292203 10.429206618223517 0.6063532858283814 0.9598552879148438 -0.013187959445183738
Ni 0.7242784796059328 2.637627818470982 4.175139213611611 0.8515102862498367 -0.5910135701475177 -1.7938761591306653
Ni 7.19874966309128 2.0557636671573642 4.097988310216513 -0.13630909097810073 -0.04628577044041706 -0.02509473818509872
Ni 0.22357638884712272 7.568239649499936 3.7979745586701266 1.0518419028264852 -0.03213416153038337 -2.013197943656572
Ni 2.9360465966972646 4.8249129126075125 7.553668637515544 1.1431543744892376 1.6845536240437373 0.5697708587186574
Ni 3.037192359016126 2.2765324284839172 2.2820673873853714 1.0604077901186253 0.4241811137695791 -0.13326464772482208
Ni 1.9092597104779208 0.3501842395512595 3.4510459626006327 0.28000573266952417 -0.07891178400555442 0.9984107795905386
Ni 2.1341892717699587 2.8877411690277968 8.492505702008318 0.3154872134055857 -0.8626346782977724 0.8397631730162376
Ni 4.087566236267879 1.6373477829089482 9.722341451455593 -0.6001217030963729 -1.4473266771026365 0.13120930785769017
Ni 6.548259686031144 2.541573561373043 10.21233951932074 -1.9930788043091934 0.44251487908176046 -1.6955782572890155
Ni 6.608271925884202 0.41794231951550215 6.548579045677617 1.3328616785828207 1.0821143285577817 -0.0453750857006896
Ni 1.4721658491914618 5.698626157991384 0.5858077867195001 1.0147303426861685 -0.27995713881977596 0.07565753873431486
Ni 4.503071385452721 8.656891061521884 6.053092554173789 0.16790923438188501 -0.14138084907405327 -0.017202994141847793
Ni 6.0964844055682255 0.560067399213726 2.196904206688316 -0.04834419563134255 0.8894201739217328 0.7893615806352342
Ni 7.693127520393778 2.211538178145871 8.225838572290574 0.7562018060538138 -1.7634309552669307 -1.0488247132667163
Ni 3.8316770383905547 1.7577828678748164 6.34927398996249 -0.8000321729752028 0.39480008950430073 1.7696787359488555
Ni 4.637074693113054 3.1183827057110487 8.187016301209107 0.3820237636752388 2.9569401280596366 -0.23660628263796668
Ni 0.8442600738738083 7.755941000574476 9.35433876854337 0.3518117588682328 0.32181392695456185 0.16453851813743922
Ni 4.456070770053131 5.476534335272297 3.292512184266594 0.4105550383457123 -1.6949269968582616 2.244590800414399
Ni 7.524314011267821 7.704460225562929 2.1246020951828206 0.51159527881919 1.4320404403675273 -0.6480619784210775
Ni 4.337214234196975 7.336384546160084 11.585939119680713 0.22714359456317013 0.8855992575137458 -0.7575009844812116
Ni 8.503671427705166 2.978348063013028 5.828493302001817 -0.9898348649960694 0.07139773501669638 1.4302481243537948
Ni 3.2555066133454957 6.246191083273734 9.605568052950577 2.689472637066439 0.5482273282199267 0.7327196637714736
Ni 8.72231416624234 7.178766873783358 5.8172618794634054 -0.49139926348728924 -0.17987154895008378 2.5375849749237913
Ni 3.8467690628267657 4.867132257871326 1.3746543996494704 -0.948576372566915 -1.2958393357222007 -2.682312114762258
Ni 1.8152676042400688 8.3581437990878 6.093691377345781 -0.5000091166434872 0.8917465080620642 -0.8294196249983845
P 0.7007745220816068 1.4831426964688263 9.341865493208243 -0.9751970604782365 -0.36325702459069703 -0.5784827846703585
Ni 5.528717701506087 0.3420761543553605 10.901722939040697 1.4941698627084201 -1.4108105844544736 0.24887661536488753
P 1.306527687407584 1.4054105585171461 1.341815103430654 0.9052054617804475 -0.3012718411371521 -2.1152342294947313
Ni 4.864914989468665 1.3549791080582967 4.357457073502739 0.14753966958659753 -0.2902037562484486 -1.2979926346197777
P 3.363240308943041 7.979675244332571 4.437986801957528 0.8119651769673628 1.6057827364914214 -2.0832646185666706
P 8.951030420485422 6.1087751896767974 2.0284483803664086 0.35319269837615946 -0.17235415752711608 0.37592202165287514
P 1.0762146349321333 6.128821850914012 7.331593239006846 0.6654323513787249 0.7649456136847149 -0.7290023628208864
Ni 8.336290474707678 4.799491884748212 0.329646676914607 -0.9759989875542417 -0.8894913934793004 -1.0225878910573745
Ni 5.216967939179862 7.496484099217976 2.8490959144360897 0.3420965884629979 0.6609439765900682 0.1499174257901547
Ni 1.1655714640154535 0.131244040314801 12.32577680126284 0.7575788889069985 -0.017636225024524464 0.33401638255802474
Ni 5.5160528103830755 8.651261207182621 0.17256552874395698 1.0691330858067651 -0.8305560525956728 -0.5325346000750183
Ni 1.265001808804685 1.7783952519143569 6.752652597142663 -0.9558543942855666 -0.4650508554007474 -1.906135922469046
Ni 3.6156074261478275 5.169018369402179 12.079930095582913 -0.48895517282217077 0.04263866060613302 0.056006597272606776
Ni 1.3148584118998818 5.301826359528568 9.507998206216088 -1.8401197634792374 -0.8968704595521908 -0.10538489059541852
Ni 8.35689373418589 0.8134135818489872 10.766052574025771 0.37183731006054027 -0.7145301373466404 0.004157216701483163
Ni 5.3904714728283185 4.85038868783478 10.340117138787102 -0.07284886564092616 0.12447353179575336 -0.36316009400151655
Ni 2.607133534513414 6.677499972678357 2.549255529554933 -0.06770665931835436 1.7041333459478782 0.2872094495068151
Ni 0.8727542539883179 3.6196861050613625 1.4504028579684833 0.3770589634707958 -2.0662279747993577 -0.09258979571327924
Ni 9.016873255026955 8.989207585081012 7.504977240901909 0.3399101223346404 0.5168778673743678 -0.12871533779124286
Ni 8.341199488702042 0.20762483073383153 0.2738892200087104 -1.149601158555846 0.21293027917726554 -0.4505169234506306
Ni 4.61020286000263 8.38285311116353 8.954178394143518 -0.4169964230956818 0.6958132776634275 0.21038077328253446
Ni 0.9206956116608057 4.6312988457925455 11.706264709910647 0.6295893735381866 0.7129190841057786 0.4445247104229377
Ni 7.494750432565691 2.2512117707992227 1.2554702920416463 -0.4036084318245501 1.601260937361668 -0.8337604184655834
Ni 1.8009055447100835 3.9762192143845176 5.882111961732473 0.4772193724424813 -1.1385348734393554 -0.8967599021162556
Ni 6.407257839832375 6.2644128322453865 12.449067873924315 0.7988368671155209 -0.47248622863287015 -0.9533491113652097
Ni 7.315215563879547 6.14200684203271 3.981134615571813 0.7110552914241625 0.5536623831925691 -1.2097485174697038
Ni 2.2748717583222544 1.886795040488833 11.090157904845995 -1.833252861156075 0.251063081493245 -0.9254981505912124
Ni 8.673196652614696 3.3653207089257835 10.020592337753444 2.121363996541553 0.30262835516504655 -0.159895362938473
Ni 6.226381660631041 7.248241283733364 7.093571757121656 0.6402576518853103 0.2651406426322337 1.032100715643816
Ni 4.537689971130462 2.9527171702431882 11.591588135598764 0.20453742712788003 -0.7173177273941066 0.2828061782327968
Ni 6.299369026692256 7.056479502867943 9.842667041685525 -0.6950594302165385 -0.7179070242386733 0.4567713890007746
Ni 2.2243855604954383 0.3748597907500773 8.25919888096121 1.4663618393572164 -0.7372772012351689 0.9222313069144826
P 6.1940350907239266 4.348291451648946 4.529372933480156 0.07378037631626003 -1.4287113759942942 -0.8763036911444327
Ni 9.369738290696327 2.6898568075114113 12.57727252286082 -0.9706618916120444 -1.697301153517393 0.44273136596794077
P 3.113163456631537 3.8723269591059832 10.031062771877115 1.087596177607959 1.087893911354036 1.8500010271486913
Ni 5.809206716723208 4.109018079949578 -0.05827218600784321 0.2487094936594039 -1.4398874472157717 -0.3583153643147055
P 2.845667816745229 2.437325448202724 4.595772366262686 0.07776635754720156 0.35704883889745603 -0.8856843610283843
P 5.459799889797079 1.1638651710471517 8.139820420197102 0.9130498975255308 -0.5717786331773055 0.10770659675005967
P 7.3203983147137475 8.030754538645695 11.733829097225852 0.38851065695116316 1.5584680105658577 -0.414407322212267
Ni 2.23052639026906 4.506018618761606 3.080706479532356 -0.422453332445195 -0.708653109740573 1.8188765378297447
