# total energy = -340871.86704892013 ev
CRYSTAL
PRIMVEC
9.23929243051551 0.00000000000000 0.00000000000000
0.00000000000000 9.23929243051551 0.00000000000000
0.00000000000000 0.00000000000000 13.52263839404821
PRIMCOORD
 96 1
Ni 6.140008614171751 0.45032957120228156 11.611713350724584 0.5728916637358262 -0.4511391304156618 -1.4722049284015548
Ni 2.079727725686106 2.569973811145778 11.122842995879202 0.5719215865130731 0.890248840470615 -0.428477684262404
Ni 5.329611813360631 4.74972611460438 5.152909425372753 0.17458587507111223 0.5763058316236979 0.21755183710967696
Ni 1.3935347304352732 6.170720021572063 1.6940482540633077 0.9362970409789295 1.3469371828392802 -1.1206762479913797
Ni 8.78659463655802 0.324681664265139 1.8256915377339227 -1.7373162604577501 1.3005938196880504 0.2032199938680371
Ni 3.8674199023020974 2.9859082691323136 5.70294297090686 -0.8623032631002827 -0.22316892618613823 0.2753152691723904
Ni 1.0311512102622784 2.128067702677211 2.0405254087187403 1.0334628860986652 -1.3166107639415972 -1.070392669245479
Ni 6.770618027316603 4.607866021576585 2.8781042072951175 -0.3281676370867316 -1.0580652580283778 0.20820279179460918
Ni 3.2919043887745914 4.672809006720025 3.7396719042391755 0.3217884730332652 -0.2918993987833166 0.09434920160654718
Ni 1.5760292307273798 3.413179338695318 7.482049073245743 1.5687557656451112 -0.21104720322193973 0.4692841767558047
Ni 9.237019372470355 3.230416898928299 12.827872148767803 0.3678675267795148 -1.0854019981701177 0.6599944681926053
Ni 6.932841520437745 8.139363736676355 2.5474622756070118 -1.250826004236304 -0.6162180944376032 0.7860278882763109
Ni 3.4854675611682544 2.7644609127632775 1.7509789249776404 0.3256626112766907 1.7441011445900674 -0.11531680499714977
Ni 0.12901470502880139 5.855752549166336 13.033321670626117 1.0493754435638636 -1.030775054853857 1.8283927048502961
Ni 1.8312184823509101 9.029347800828715 1.675901360177943 0.19627287312624261 -0.2440239152582765 -1.103607722544867
Ni 8.898233004674134 2.425046273094848 5.884700175678345 0.9189768045329268 0.011383816356909427 1.7260401733232984
Ni 1.0925278286017106 4.198851793476583 2.6592272220267934 -0.889766244407242 0.995404388664047 1.4001759875587627
Ni 1.0230668295537126 0.7955760521315645 4.521902722661651 0.9209994913899107 -0.8586245286971147 -0.18381407853759957
Ni 5.202035666133344 2.763961990982406 3.4980764232859456 0.7805822917807073 -0.4361681109281262 0.02042484351325515
Ni 8.625230397615043 1.430658206649008 11.193863587457036 0.10408931171244655 -0.9585440253025879 -1.141183366805796
Ni 6.91512055792457 4.56871914036265 9.648632613477009 -0.11279480990624445 -0.4937423097981691 -2.4118618869916526
Ni 9.086326516062687 6.870457819244332 6.128135199716233 -0.3168928355038607 -1.1987490810354064 0.26035530542844837
Ni 5.104468740096251 6.424449465021932 7.570256596245375 -1.4467849456665534 0.13458953718383274 -0.2962617895170704
Ni 8.567891349983777 6.076386847818397 3.7599964993051223 0.3536143592946104 1.8876908283899811 -2.0055375988978366
P 1.5134699829814375 4.573024650545727 11.670036382979237 -1.362770550327111 0.8516799790584817 0.3465469109248677
P 3.3236505969056 4.962497775561596 6.883211738250166 0.5125761546752204 0.02432469278829359 -0.9947628984253062
P 6.54865327058222 6.4960170227002765 5.049217772510852 0.5359168862836899 1.5792939461722737 -0.8899431363047384
P 8.17698613467096 8.51560619520689 10.027401094505514 0.6499684514151709 -0.8197322225072915 0.8841329573808645
P 2.380152552108652 1.8100789817095404 0.19704546163830103 0.4440030335915128 1.0456820538726765 1.4117868323248137
P 1.3006521255630303 7.735477315768642 13.26343640704396 3.4825132092151576 -0.5109653585446748 1.8739426255659535
P 2.026195266457042 2.8181412006681548 4.181997476575365 0.05038282332792613 -0.7243779766749976 -0.13149032943321873
P 7.38176025171523 2.5107869050668383 9.6986116409112 0.5109206213496685 0.7578190299422626 1.3923266667176732
Ni 6.192931280113083 7.391184329798358 9.403033747196897 -0.3517323117805491 0.1454539907021624 1.604232361285166
Ni 1.4293185092744456 0.8025877510112566 12.283680607716013 -1.1937449429525957 -2.0510777494214802 2.0419313070355223
Ni 1.581027687828333 5.8345021770181065 7.8228052581471825 -0.5597024187390619 0.3962951859925885 -0.3170684418497765
Ni 5.31671376139588 6.385496608945002 2.967961867888521 -0.6208558503199308 0.18103497313056566 0.30579569714943466
Ni 0.1543737904354308 4.257031616701543 9.317760623412168 0.14646906223023806 -0.5040069249489707 -0.42957965907733114
Ni 8.363545923547946 4.790637700635844 11.333931257790589 -0.45261494363023985 -0.5407626444117655 -0.2647454640763441
Ni 5.876605631748317 6.167735730179072 0.31932102690844194 0.27886441997622935 -0.8603448538223312 1.4902332466581754
Ni 0.4375645650457621 6.774322983504186 10.902816642656427 0.895591078619135 -0.6319578737703633 -1.2307228057285255
Ni 5.864483680331587 5.036698531527874 11.607250772573456 0.14777723951870034 -0.16042295330716885 1.466354897378681
Ni 8.84194723635804 8.28612065459048 12.376486526462676 -2.836865496662527 1.740549679793383 -0.961085560777519
Ni 7.942991819442231 4.563637529631552 5.137656277816443 -1.235008577588073 -2.659971799393845 -0.42770841019654726
Ni 7.249509022615331 8.148473678823379 7.228377837336975 0.49375156576954965 -1.4583939906603918 -0.24589130748431848
Ni 3.296708820738539 1.0714807208827244 3.299455662321004 -0.3712927504109799 1.153700011215568 1.1789119917048212
Ni 0.5096153377081726 8.240487790225215 8.453785166910794 -0.8568874914013501 1.1134085106853728 -1.3698256574016794
Ni 3.6599608343819394 8.155070533481569 2.8363056492087724 0.9369225903780702 -0.6694468718547567 2.429125559168107
Ni 8.173521400081574 8.548525793452171 4.702524418417042 -0.06824453409969537 -0.3849854174067241 -1.1623949678864047
Ni 3.5793110524332867 7.3435280604328925 0.8716108076071563 0.14489966086058917 -0.5246634248570576 -2.7235924615682836
Ni 2.2102696857219084 4.05472807385039 0.11337165934003239 -1.4365275296046034 -0.7702531419405573 1.0787824359710712
Ni 2.8702877660614643 4.596390820616541 10.06652210570118 -0.14313536987131478 0.9148183022798632 -1.2028096242580253
Ni 6.999299749508276 0.8589825429757645 6.045795551217183 -0.7117931980314516 0.9471185570744658 -0.10575075857526949
Ni 5.184203832113306 7.327128316709801 11.865479751343408 0.08467696862410579 0.8102633637849077 -0.2839204943428981
Ni 3.0861268720418153 8.939985366299288 8.515543368019669 0.4483718520831697 -0.535741022827458 -0.2916608004099493
Ni 3.838750378486463 0.9291032274895813 10.572444498301682 0.4127080801329731 -0.6981311271633267 0.6352787106134802
Ni 6.782573671473043 8.46025359540687 13.763476142276296 -0.590970375614408 0.5848403514572702 -0.7069183864376535
P 5.2871295476486475 8.747022747901118 7.9840225923435675 -0.7889561176666993 -1.020887620536816 -0.3498731470846232
P 3.572621804852713 5.164237721586208 1.664907526343517 -0.134700094619768 0.8424993410004781 -0.9210555414388266
P 5.709300527896076 3.681386753082699 0.11250408979885029 -0.10600375512634001 0.7714515331240327 0.33617919453729844
P 8.997601592697707 4.446390911126751 7.027038876595507 0.1997844858239269 0.072336701891198 1.0375995339748583
P 1.9984773897419592 7.181055106421313 9.457787640859872 1.8775804794288566 -0.08147543096767258 0.7452756460596133
P 6.267279864755173 2.8033860509634922 5.425065713262811 0.05690288383463103 0.22234308785073323 0.04799992491804637
P 8.17152571295809 0.9349701780609405 13.361529048809414 -0.4953294517796309 1.2238613027220018 -1.0508340303872614
P 9.155990779539929 0.13132452808839162 6.492002550222709 0.4295040686443893 0.27507589946807465 0.3098295008991761
Ni 4.979812209216284 3.9093755283564944 7.937369710115187 -0.4300568558240658 1.2525208754402235 -0.3294130794580585
Ni 7.2275841821337 5.636772083824943 7.008621271447559 -0.9922247053844847 -0.22688854112957055 1.280544614346659
Ni -0.05862146139395283 1.6555241011462378 8.474096826967605 0.30687838869065215 -0.12706288978948438 -0.43394025003887204
Ni 3.8228865137131978 5.383486126402515 12.81869014014132 0.22375179527280173 0.28858010460209654 -0.49842043200012864
Ni 8.288984835184372 6.475348725963063 8.947402670108245 0.7096784656812939 -0.6490109725979081 -0.23376469942411354
Ni 1.8184959769386873 7.942871708643131 6.27807412987725 -0.47684013472619163 0.37829437853979364 1.430464097019343
Ni 8.49453136961119 7.18688509982372 1.214112294812422 0.3218013285490716 -1.057123977161031 -0.13741646510966657
Ni 2.179318056723399 1.3108615434864193 6.637817060328521 -0.8196915990773431 -0.5637156536635131 0.46570751514813985
Ni 4.786018054516663 3.1921385111847695 10.49688002280102 0.5631173579578818 -0.7018060049117527 -0.3852574401211881
Ni 7.330482179792326 2.4845195972331773 1.2225764104319847 0.03937593069446122 0.5303630463449963 0.3817152312958845
Ni 4.841906533266508 1.611489634338209 8.016639141803429 -0.15831310605301768 0.9983063928021904 1.7553312089779318
Ni 5.133711100030664 1.0456846169532203 1.585137325015956 0.5896395726181264 -1.1490018344089503 0.33747477342027044
Ni 4.38872848826714 0.5216384286979517 6.20633656922172 0.10590528187526276 -0.724506788943378 -0.8071410161058421
Ni 5.557748417310241 8.788913698909848 4.506094293641816 -0.08212977672221985 -1.464389289011878 -0.7660190492545518
Ni 1.1639290790197643 4.59200215680332 5.268595527418496 0.7001998367668973 0.03635205626647287 -0.1275969079160835
Ni 3.7417470492759115 6.7707566167001785 5.43377467012669 0.9509710980513364 -0.8981634673320015 -0.3557452895946841
Ni 1.4160878427891124 0.520436396777741 10.128253512862566 -0.31372215108536294 -0.6492873661877463 -2.1052568065670454
Ni 8.55980696927521 2.0789331465536067 3.6795776996624276 -1.9255822041191162 0.6930534555301031 -1.315798809563263
Ni 7.024125727752752 2.7607467172834563 7.52077741452128 0.6047003236059909 1.060543030144909 0.1557340324719318
Ni 6.8342397936699575 2.5778179702561466 12.162246741968787 0.30771502565933456 1.6436502009611562 -0.17452442570555748
Ni 2.5956867614451373 8.04124245310496 11.481328458656833 0.6560899909318765 -0.38949153280719373 -0.05345503449534665
Ni 1.760288435837013 6.619592556388355 3.985567351800139 -0.1326367843328361 0.8863381925622994 0.6593064409866451
Ni 4.536039763715568 1.9991610973675982 12.809548784400684 -1.3617076562802357 0.9531161694187972 -0.11124983401662775
Ni 6.969992714528195 0.6017209181031694 8.902452589439394 -0.39579382087613774 0.11117424358368594 0.19978474293424303
P 0.3510478325257497 7.992782365314757 2.9610656601618084 0.1596678203086992 -1.0330399396286338 1.0211966671368025
P 2.8587386507635126 1.9207287455561515 8.873338655667094 -1.1739641607812428 0.6782948091636899 0.19307596345549974
P 7.390260400574522 6.523032713205244 12.21660796571163 -0.7710985206599882 0.6956279011254987 0.6919656217825632
P 8.380804921449204 4.858666609386894 1.589274680080294 1.7043637167911294 0.15077103203970163 -0.698225743759662
P 3.0177283916012287 8.809064595281713 4.894640717646177 0.7970867171936337 0.29629547096848324 -1.5661190993532126
P 6.734483155372374 0.8885057773942232 3.244459699201384 -0.12068552550823085 1.0417775766119477 -0.37690675416364766
P 4.7729074988304285 9.146502026411133 13.117202433070524 -0.8532357535813757 -1.4905998859689749 0.661015710368268
P 4.913575723159474 5.3480719192528765 9.639166034649584 -0.40850201247142554 0.9696990134781428 -0.11169720596669151
