# total energy = -381168.1923806484 ev
CRYSTAL
PRIMVEC
9.23534799486351 0.00000000000000 0.00000000000000

0.00000000000000 9.23534799486351 0.00000000000000

0.00000000000000 0.00000000000000 13.51686531376153

PRIMCOORD
 96 1
Ni 5.750758691350354 2.95756470531533 9.196510343550754 -1.0818124810466465 0.1802253327450767 0.20014469737682308
Ni 1.03122816527465 0.11298616792601353 5.46493576086028 -0.6984800258623132 -0.5814994600094954 -0.4597389562695308
Ni 7.758458645081308 7.799417412358988 13.464663248274341 1.8932883770824167 -1.4127795352553862 -0.02858501072654432
Ni 2.7233101095998027 2.7215092167882697 12.60154334751501 1.4189342420028725 -0.23818005488298977 -0.2911591781831825
Ni 2.8186927811767775 5.77091945549177 2.425303908356016 -1.487793269758115 -0.22571894630150158 -0.050733521799125526
Ni 5.53563050082808 5.381501782204132 9.602840709175622 1.1434341105131856 -0.1232975092097812 -0.7331500664406728
Ni 7.619494367465241 5.017739904970022 5.482102425260676 0.05142437721856305 -0.2206315044762652 1.73940759576914
Ni 4.350384441102499 2.4068239775053653 3.877785837687102 0.9902290151106945 0.5936093558991519 0.24263551955118212
Ni 5.170197025650957 4.382089389933227 4.817329164624458 0.30768622930392814 -0.5823481811630358 1.4492858577115364
Ni 0.765891083166843 8.65466602622976 13.28483440392766 0.6587698517568848 0.45584887718650524 -0.6681440938829332
Ni 4.075558962714853 7.666040520132548 12.902050480929887 -1.3547255685354476 1.3445859089982843 2.3872446026636047
Ni 2.6929535215407867 6.558916267036483 9.250036572048607 -0.23516672197796273 0.6126275488728674 -0.2550593471368317
Ni 2.0827371542114843 7.252130704608065 6.663381903127008 1.1410802655690282 -0.529194994178824 -0.2956357258972973
Ni 6.9908165399807904 2.5328310622261476 4.796540396835945 -0.0646475607770564 1.670856071951987 2.386038755280962
Ni 8.481327784282797 8.531401839791158 10.635096768655007 0.826271566287706 1.6570903856264623 0.28102106130791604
Ni 1.623186250099336 7.457072306560491 4.069468250872771 0.48439480714499805 0.5896264599920039 -0.47140970773923974
Ni -0.1090260508101918 7.18247771186663 6.150524571793491 0.24481787191448162 1.3519302651784972 -2.2574326893740735
Ni 4.9256727232358175 2.681076864332422 6.528781327323501 0.5869555980280601 -0.7935931022180783 0.5200033003772271
Ni 6.182982201465961 4.538776299884326 7.357918842496599 0.4419512932688066 -0.07091719583585206 0.1613611488507221
Ni 2.8599932563212613 1.0062742556502324 2.9146683620793956 -0.03707016537942003 -2.1559378778616805 -0.21968790961607326
Ni 2.9825647916785045 1.2907322017426415 6.978351591120658 1.2484999272062884 1.1735299014573015 -1.7050545722105668
Ni 6.571891930627269 0.9454502553591833 10.115399738776766 0.09879026809703632 -0.7455137302123483 0.7668806259238986
Ni 7.418708672000967 5.563262661300418 12.358496700740103 0.1083581142911295 -0.42000821333881216 -0.07287046290748096
Ni 7.0609313001097975 2.911591144208612 11.52933147952375 -1.8756842908474085 0.6972487245583734 0.082212052023381
P 3.3135965964814758 2.825443820383087 8.383064607742144 0.5330750459595206 1.0101710054502604 0.7371190783907499
Ni 7.758227761387521 0.4893616831190535 5.741153006154071 1.5872738790539567 -0.44842918768366646 0.7798564693582762
P 2.5542201276185055 3.9566261543716803 3.5042742038317867 0.5811533895239862 -0.8889429771749982 0.2870053039158089
Ni 7.3878441398156225 1.0663224867301597 1.1380645151329731 0.278667730584391 -1.1815412017975522 1.0869606009064894
P 9.189725133557761 2.3135192591724665 4.985276734088901 0.03811968968985693 -0.5513640740766955 0.9822025452617924
P 8.864576245272465 4.0392455753561505 11.48229308282129 0.24180479611977065 0.02870302436164734 2.1793845389203947
P 8.584514324709746 4.604688976786424 7.622633462165959 -0.23436865155669961 0.8950714586702392 -1.1116830433538336
Ni 7.149655285957977 2.1513465526570057 7.415866031963072 0.6170429043317438 0.20027505230710022 0.2357264511361747
Ni 6.725854412991691 7.780226359731475 4.9729761744187435 0.09808809982368914 -0.5400481348432441 -0.6830672908516688
Ni 0.8397710945741168 0.00798765227022904 2.2070606350371778 1.0189904035141033 0.6061056885939496 -0.7112789773991943
Ni 4.831176645042982 7.626836468927643 7.533030271211841 -1.203219200991618 1.4907238131413487 2.0494407280386895
Ni 0.15138304973744174 4.517673530272263 2.0286383341530407 -1.2561299329477205 2.0652674106583016 1.1825171925575764
Ni 4.2178479655214405 1.6352937910014869 10.713670183789569 0.6080977793233141 3.0261195152687757 -1.8823233934304808
Ni 8.000951170991128 3.172766778619616 0.6529501684448115 0.630937660035965 0.555531575190824 -1.377650809873053
Ni 4.486781292043663 8.250721150929092 3.4902706460362634 -1.626491686903999 1.8447284658958423 1.2404932548517282
Ni 0.30934166707391586 7.165780203132009 1.6263899922343141 -0.4161114493875672 -1.892301330578799 1.172181614959523
Ni 4.9684600893682855 0.7481832273882129 12.587026304384505 1.7073947903079691 -0.07498648080921924 -0.35235271897336734
Ni 3.740980784375324 5.232027678846914 7.735012867744702 1.3805206752216803 1.1137476391923464 1.0378862119773415
Ni 4.620010418706079 6.9494791234453 1.606925573313358 1.0034786810317493 0.9855935732212123 -0.4591745991256286
Ni 3.347222497644505 2.805809471063505 1.5407875539261247 -1.5279369318565363 1.454390268817637 -0.3422950776270492
Ni 5.524464965396577 0.2996851874649998 6.287829257418623 -1.4606588754351684 0.5363341763267666 -1.4761096627725998
Ni 0.9962077266011521 5.301218904200778 10.596911376307087 0.04523316080618661 0.523562221373079 -0.23510501550209187
Ni 1.265224171253137 4.052978537462557 8.53638708050739 0.2506432203470071 0.023247400563714802 -0.8594429108333521
Ni 1.2566814745830457 3.9082329321540823 0.30219350791429356 -0.10778527250679501 -0.8598558300010546 -0.6477580740274135
Ni 7.988520392917677 6.412471357741741 10.183335880371207 -1.7285796519157004 -0.1613531784309221 0.15362187122493542
Ni 8.767642035273246 1.8012806961382963 9.484986589449818 0.3108643699215936 -0.7003309630281229 -0.2109908960627076
Ni 6.9236847971755004 7.82936764511694 2.285877863352377 0.33291003686772347 0.010734869919000868 0.9602031581725656
Ni 3.267022737770914 5.953446868451426 4.787484214830873 0.26569960045949725 -0.6813510794915104 0.921852069198193
Ni 3.346686847474921 0.5990000374851664 0.4395748469257621 -3.5084196446682743 -0.8022124684559732 2.6147167842107875
Ni 5.485260914191671 2.896269702288957 0.09659342566718992 -0.016434748517255564 1.084072480725417 -0.18705186874860688
Ni -0.12739423395305055 1.8748956530651038 12.02756371415807 2.162680853012469 0.3720190870540432 -0.1372002353338024
Ni 4.8318323547333355 0.6245283857397242 8.516003744485166 -0.2355683282917556 1.3000495171488062 0.6994984398244986
P 3.1755835596838082 9.090417439186423 5.345027699794556 0.724394688845546 -0.9523412389259857 -1.3525550432466902
Ni 2.881225320801845 8.764889901643315 8.132637994579053 -1.9505049355027246 -1.2728068793827694 2.567225680608359
P 5.992336917832781 8.66485261479961 0.5273226565166133 -1.691084740294036 0.3697863410687825 0.018860584349928808
Ni 7.255316899582316 6.794962520215791 7.059615263055217 -1.3543247335526032 -0.3031438613488844 2.5750616317130106
P 0.8523791913243962 1.541388775064744 0.4353496753294738 0.5146163250337008 0.2164066677616402 -0.321894145373194
P 1.1995793194358308 0.2909503955616784 9.957401409444962 -0.1400389903341782 -0.5478822861756822 -0.16939584622974052
P 8.812710532300322 8.158653969194887 3.65028320471266 -0.6809034504311304 -0.7956199028401202 0.8291563440346689
Ni 2.992529731902319 3.9307764160153713 6.291452284341517 -1.666131412782808 -1.5798207652100211 -2.0148269946195625
Ni 0.7556139881890295 2.380928062410299 2.388376370371844 1.045688995851212 0.31712654878122154 0.49352736557388543
Ni 6.212276724533561 7.840246884768148 11.743682053765353 0.2742798859293405 -0.2980826447758931 -1.1107543608919774
Ni 4.833014479245521 4.482902445988054 2.25876288235412 0.42814035552764323 -0.7027930514153703 -0.28481806645650304
Ni 0.28752408154589054 6.6502169149073165 8.551214431322343 0.8053726113515097 -2.533147507977728 -0.4213205043923325
Ni 0.8495901163034584 1.7878432651599367 7.014820132321583 -2.3347717295758694 1.636977159816355 0.7924787861079772
Ni 0.2407710570889504 8.685336616112325 7.992833300317604 0.11213583616600686 3.040695356200421 0.11630333728013519
Ni 9.152285033773385 5.791588163759514 3.968186962686945 -0.17084851951586708 0.9720929676316161 -1.1548150986566177
Ni 6.177911995550416 0.6368972869832412 3.8185281523746992 -1.2941136112803455 -0.6680908720474945 -0.35215243003710317
Ni 0.8481558667976583 5.138649077732004 5.987389542042329 0.7888792416821769 -1.1110081287739961 0.9486020835985275
Ni 1.974702056215023 2.431676298304517 10.24670237189823 -1.0070162618713625 -1.1577620971000835 -0.28312293814226724
Ni 5.408090348380557 6.245976508478602 3.643632830796841 1.6762098800647325 0.19234062795137197 0.2075438180543716
Ni 2.562966001939129 5.1468038897965345 12.342843709836169 1.4770625136041724 0.32678695468912106 0.070331241425395
Ni 6.639614735688652 2.7999727312845883 2.619067968924862 -0.348366994852742 0.46643025224677737 -1.5204694198348974
Ni 2.1393683066233753 2.1347136913566445 4.7555169821240035 -0.6263343569359987 1.0700913359549764 0.46043546811592323
Ni 2.663529703604667 0.518103932391116 11.868780380267394 -3.829928895898224 -0.044616096047477995 -0.39638620304449795
Ni 5.001855106837529 1.2795204895723813 1.7420396344518456 1.5886496763555606 -1.4738663752643777 0.8990088460514323
Ni 4.084849722552811 8.606466746314943 10.790378058678336 1.5461028041322857 -0.9854349361561608 -3.289147225323064
Ni 7.2513457000491925 0.7213249890574461 12.415605320630743 0.018501915458929426 -0.8647419544487623 -0.5788581657319062
Ni 4.360192380414539 6.399190927675156 11.182732572550934 -0.5520050500948042 -1.9811100619830913 -0.7060231283168937
Ni 0.6618382671208068 6.105396045006031 13.166264544751119 -1.001240792840166 0.173315750109437 -0.939565427317556
Ni 3.2512302931159347 4.377222361668212 10.127983823622891 1.2648755403508347 -0.45142580841814517 -0.0812625436259181
Ni 6.915040511680144 8.965638655716582 8.071487986512377 1.9855909805725804 -0.0829530439544636 0.07208293400917908
Ni 1.9089002034859421 7.505059173477024 11.222485203412276 -0.5916622594751101 0.35495441826227253 0.4800226462192314
Ni 8.341089028677029 1.0763705450837373 3.4029652096027068 0.31640766833732603 -0.37637222181641633 0.14212775454240684
P 2.5568706724231722 7.556721708798636 1.2430113128413496 -1.0397772583524674 1.5024943234137156 -0.6687431609195128
Ni 7.980162403202614 4.108455271405517 9.602366935835972 -0.911712666771346 -0.2543312107215555 -1.474958579887292
P 5.273836098117728 6.2939079633086275 6.2140268229324604 0.5904340434949638 -3.44441408835059 -3.6052643590031646
Ni 5.020824511119007 5.55919910828978 13.422787410964942 0.012474221207610775 -1.8911358495157882 -1.6713533233033797
P 5.921852743793716 7.572938979450182 9.390301186628077 0.6330359373258905 -0.08372257513063645 1.9996240616268788
P 7.173593307329734 4.634232854243312 3.5422296360206955 -0.38504198167627235 0.41472999565900837 -2.142810339340787
P 4.813324717839429 3.9496904082103415 11.732179428140922 -0.053225949203676085 -0.02148259535380816 0.10657891090351966
Ni 6.913479737910148 5.268516537812894 1.19068845015551 0.6457040197118621 0.2525869743369392 1.4067698387261967
