# total energy = -340896.81116341095 ev
CRYSTAL
PRIMVEC
9.02080338107560 0.00000000000000 0.00000000000000
0.00000000000000 9.02080338107560 0.00000000000000
0.00000000000000 0.00000000000000 13.20285758498877
PRIMCOORD
 96 1
Ni 6.5575467664555225 1.970378011282718 11.462087232269692 -0.04909495775443803 -0.453916950271115 -0.5690265243534651
Ni 4.634221265894287 0.2573896823552538 5.860141236185884 -0.3855793422369811 -0.29289698680989557 0.25947290282349506
Ni 2.6711681470014934 1.5455613150774263 4.69666597351839 0.7118613322652256 0.5752532219894674 1.0109845024904913
Ni 3.403522073942368 4.368847270417947 4.856130324175589 -0.04511463295045134 -0.13827495645521992 -0.19864291602031597
Ni 4.878567768561621 4.607122772372942 2.5777261546110632 0.4306872903192131 0.14402162913101002 -0.17767068464402305
Ni 7.4997155605112304 6.242540310475041 2.4939535614235395 -1.5766778487056652 -0.9717895774585845 0.16553559194338588
Ni 5.1855727718944875 4.658324852674925 11.51514940224015 0.1955262247682052 -0.16793854495792368 -0.3084282496762753
Ni 5.387629748054476 7.803382866572827 12.473505125981177 0.6016021442966414 0.7502108785777015 -0.004005264504651167
Ni 1.8166003751114908 6.505271210544672 0.3408330162173685 0.4737905492665904 -0.13110517817965808 0.34408148010351064
Ni 2.87778964970003 1.8205244246060928 0.24879826916293393 -0.3002030335530056 -0.22221119025855923 0.3254988320053169
Ni 0.47268649171806426 9.102531914996106 4.848247946133327 0.27451359920670143 0.503405543919546 0.3718185410074629
Ni 8.658103992121239 2.3899897039055142 1.4444714855340683 -0.12245187338003428 -0.9267898728194426 0.2631390388211726
Ni 6.901239377362061 0.6131809948299771 4.902709242716688 -0.25275101071862915 0.402130818837759 -0.5823111572775133
Ni 0.768051050297288 7.412556557713882 2.588736947284883 -0.20216635579254216 -0.2698473040792837 0.015660332245076253
Ni 7.520770115730544 3.8416444552155635 3.6682159008396433 0.568778155788085 -0.07887064635497384 0.6615965225724024
Ni 7.533525531788861 3.822060290956296 12.800276513802716 0.18674333636925258 0.1134689531551336 -0.6701865782342588
Ni 7.874214215151255 8.707537994949792 7.130982101347069 -1.0586563546451575 0.9081000097194232 -0.03721543270803268
Ni 6.7339305360370325 0.7699760897505021 0.32347518624607297 0.5046589567106728 -0.6541115270492671 -0.42181081376518964
Ni 1.8590612968841174 6.576021371892177 9.103224712699982 -0.006751974011852887 -0.41889543989060757 0.3090620266055322
Ni 0.023445970210162308 4.743327883451101 1.3943013851451496 0.5996131388910705 0.3262634780854833 0.8782363893907714
Ni 6.376282742215207 1.9969442774013468 7.0494015633944604 0.06359726513567111 -0.3656067557697961 -0.5584387215352898
Ni 3.1919481501575397 4.353818611893793 0.4794133048401904 0.9198242401348867 -0.29792940702748044 -0.09265021663756946
Ni 5.87650316945786 5.587160899252422 4.6368436134530935 0.7328767581746282 0.3159932065077267 0.7965087332029767
Ni 5.681302003909131 2.7669239754732233 9.29718822401731 -1.0237531150100692 0.7662388785748416 0.3686239453295651
P 0.20533874444995676 5.388585953218677 12.457793592636927 0.2105970030583986 0.764510068809193 -0.22061427808508455
P 3.9982275612553453 6.088672466269455 12.706192240207653 -0.8141231038506302 0.5220241874619977 -0.47255204887379904
P 2.3491615475547794 8.40885919318823 1.508030262382501 0.522538665204571 0.21405539392064427 -0.784956766699319
P 6.339793592317125 7.674845438415156 5.797242782148957 -0.3266861674451987 -0.035922424928222 -0.28900125129991516
P 4.691016244326507 1.0235815450644097 12.389019889322219 0.46012616440562043 0.06851449993163039 0.7158650541079801
P 3.8603896847552956 6.149806451154327 8.235519944766324 0.8596306013641261 0.028386264452176922 0.7322236979716615
P 4.770751125896137 0.9712879475466878 3.6867265894900427 -0.09407923577461218 0.5231773272298345 0.4473354403988554
P 0.19254544101720994 5.495735056429908 3.699242954257308 0.1543600349425406 0.3272921764603137 -0.655813083121406
Ni 1.4474871401226785 0.9545723987800259 2.7601764145031944 -0.9550000167050713 1.526214549848791 -1.4753627573042463
Ni 1.7595708557899385 6.560099653827872 4.835097418884521 0.5630479381725271 0.097351992988613 0.03093577034690801
Ni 6.028981809934322 5.553765884932841 9.28867258557385 -0.6710525257789798 0.36300325670867806 0.16978922501341726
Ni 8.662524185804815 2.2549212140602752 10.08278473699736 0.20155211924731092 0.12613780687205373 0.36127084739860366
Ni 2.4041613861032616 5.133044633487432 6.953139667849978 -1.1489139026808342 -0.36754408200182503 0.5365989999523791
Ni 0.521586462983213 8.971946764458494 9.070812063874566 0.08693773963382447 0.2540370765199045 0.24790088171517952
Ni 1.5105064729256468 1.1290527788365683 11.387068426736334 -0.3011204031609524 0.5202948634757169 0.1925352604606813
Ni 4.074408246271243 6.858453706665743 1.7306176850821793 -0.16050574282896227 0.45354851118810274 -0.9577377273512087
Ni 5.567405339727872 7.800505230276785 7.9409645522552985 -0.19737201972769233 0.0803171489935133 0.4976755834143042
Ni 5.285875085297894 2.9591392550846805 4.662721592269566 0.30054756137661787 -0.844346678621862 0.15215608531268635
Ni 0.7117819847053795 7.522195402673411 6.8953776592894345 1.0797687111437404 -1.1046816723353363 0.26579216017330354
Ni 4.940811312269104 4.371165616900965 7.360593121601912 0.9543420714060982 0.6636495484466893 -0.8834557288081818
Ni 8.125398486822975 6.975715130528579 9.133551751771023 -0.2615488115159173 0.7970067558853178 -0.25329634169913795
Ni 4.537527273865227 0.3477961743895144 10.2315810855113 -0.6666813932944776 -0.7754763380127097 1.0668527744130205
Ni 8.08337056361527 7.342131145290068 4.43178992639171 -0.4051942882544312 -0.4069830047237377 1.3512039285354343
Ni 7.021730248854938 5.960955931224448 6.948043815989057 0.6137135828481947 -0.4235159693817545 0.0134466124232091
Ni 2.3368571716682567 5.361054461132412 2.691890736654367 -0.9110513790382633 -0.7653999276133141 -0.42501800784857774
Ni 2.56424456387616 5.133261132769894 11.261205666797398 -1.1238621019185289 -0.4975886801274528 0.4987197084081023
Ni 1.1060948340922865 3.3579128917706234 3.8018022726803693 -0.4419235253546647 0.015341258342760676 -0.6680803305245333
Ni 3.7402596453998527 2.6114774906663603 2.629164579963065 -0.8544498284941349 -0.4542391094972241 -0.4105689223027833
Ni 1.2545953002535315 3.4036934692076493 8.407514191395942 -1.2617285100814206 0.7258144520112081 -2.0960242322251834
Ni 3.7312478627674217 2.4802969671019803 6.946723170366046 -0.41616518544363806 0.07295196687769372 -0.5105989763441916
Ni 4.014870943594521 6.693526357447783 6.057682398145877 0.6684204874727714 1.0310313938390374 -0.1996541308936497
Ni 0.7335735395654037 7.221099025591038 11.331207101459727 0.2554990057774116 -0.40989760726737146 0.23337080641980454
P 0.1320546394173156 5.545114934437844 7.833545727021335 0.7249773008218934 0.0293231744441495 0.3631528949126649
P 8.403744397640093 1.7346102926828941 7.9248831659701775 0.7044732673312707 -0.7876124591546113 0.33730945148699976
P 1.805576953312861 3.0817500153849866 10.380522668960559 0.6427994444705575 1.136391087623475 1.6910456595259844
P 3.98651855839559 6.243541619656423 3.8234422780426707 -0.4963977451431451 0.2370258866738886 0.19476877777689036
P 7.122438498412959 3.9101394157041027 10.590395269217382 -0.5374238098465196 1.0821097005720912 -0.7179481618892538
P 6.240438463274485 7.707212081143046 10.294373996148028 -0.24527192873276468 -0.458883550247771 -0.7787606651909361
P 2.4031781185287517 8.51092056326163 5.795882444990828 0.08503743728731807 0.13972685841039809 0.8422265469550656
P 6.755472214641883 4.009332170284898 1.6379072798503984 0.19432166293714276 0.38859061825947916 -0.26338483628339154
Ni 5.294607223023814 2.916651270901746 0.15610410137733743 -0.6758887708253586 0.5408120095924621 0.7551548528465382
Ni 1.5610139513630668 1.1704943498209421 7.072466855699629 -1.371866084870476 0.1296908143306347 -1.2165927940850467
Ni 6.797121264105282 0.6151231738097194 9.300832628605399 0.4924359322819197 -0.24224111232624088 -1.0770343429317129
Ni 2.629717555213684 1.5790916414485445 9.068356601179325 1.048224617788872 -0.7133155482132489 1.1563004249528925
Ni 6.261826788220926 1.9995512895943124 2.3504650536512623 0.23076370781426067 -0.07675719955639684 0.9364052844220195
Ni 4.205724081887162 6.885633387418011 10.54388130046102 -0.7789635252303616 -0.16445881393943934 -0.9215875026828968
Ni 8.279121998173588 7.022000872958014 0.4595873830488416 -0.019144948359567027 0.5897647853420811 -0.9841133891312598
Ni 7.60846134593061 3.909390689018926 8.371641162372528 0.6122254283384424 -0.21959894944669278 -1.1163336547519678
Ni 2.9914066689747774 8.498751499426646 12.521893617691514 0.30191615958937035 -0.3897514713367997 -0.19129650295757378
Ni 9.152597374065168 4.947134895477647 10.077807057661445 0.28438560690477477 -0.6586569803281044 0.8981390418519692
Ni 8.543503705271982 2.415744097714915 5.74117037007195 -0.06279276695650476 -0.43163859848888886 0.3073820677999481
Ni 3.9266384651883035 2.6826786921856596 11.162659703822953 -0.8222292778975323 -0.488387730354475 0.2632979329965401
Ni 0.9467513622011291 3.366157906111006 12.716226981949712 0.7262181152075299 -0.5496041539627954 -1.2431137231937106
Ni 3.124228978764485 8.425060556159046 8.006714482258303 0.2272397538214022 -0.29279388557312797 -0.11935035163657509
Ni 5.6550514659107565 7.963583314790391 3.397187665769702 -0.0745517072646458 -0.2784088204960496 0.8500043911282715
Ni 2.988709448747453 8.497290129270034 3.6668032430215862 1.6465673746079514 -1.7923532947282355 -0.3819371174987035
Ni 3.5942038169697277 4.094939594891278 9.269528636522253 -0.4384882744208706 0.7109915280657627 -0.3260431345445611
Ni 7.3251630140272015 6.132919507122383 11.427245281078998 -0.002601185068272939 -0.6045892519494233 0.29393314138389376
Ni 0.5528706092988002 0.06657262727635598 0.4015276879749134 0.30256999112328536 -0.28314890628419626 -0.01892563325990934
Ni 4.52418550558358 0.30781777772243835 1.444485016739222 -0.4946617362886449 -0.05020875964390708 0.2256292148011727
Ni 5.969516673685086 5.703439055540748 0.4504204425973134 0.3171347763113377 0.061320296176036335 0.29417379663979015
Ni 7.936313426003765 8.63465892399142 11.165643785599537 0.3951358755771646 0.9687695596853381 1.1597030228765384
Ni 0.2118409395665298 4.711340114467516 5.752920868627511 -0.5233192521243375 0.6204799550377508 0.6090570579127897
Ni 7.9227100544224776 8.963602521280315 2.3628497146883642 -0.015344857887186475 -0.2157150410112543 0.29680094984999206
P 8.398611560485085 1.6743062217141222 3.5905828664705703 0.10663907471749377 0.02182609473615596 0.1175112415453073
P 1.794174657769925 3.211306794330911 1.6381580581859154 -0.2897273308326623 -0.46879283894168294 0.5805417240819163
P 4.7575536904694635 1.0685502501922073 8.2406293278324 -0.26232014246430313 -0.7173460095288807 -1.0701119047802667
P 8.56260976694915 1.4901284779640227 12.346705104565254 -0.6909919450153841 0.6505788313056602 0.2831260234660608
P 6.30001184916495 7.834928616188054 1.298562696199948 0.3707875286397872 -0.5606745528443441 0.12933934452848692
P 1.8355350415233758 3.1531947785970544 5.914496989369045 -0.15206249715761552 -0.06768326227958667 0.7688657746747274
P 6.717557777800933 3.905304265062478 6.070013836442707 0.4392182106083597 0.7573711437715666 -0.9387951248104348
P 2.2713932011341686 8.401922195346048 10.370409446228608 0.9404794544913933 -0.05611792603949045 -1.3493100539468312
