# total energy = -340865.5085874377 ev
CRYSTAL
PRIMVEC
9.28780793727773 0.00000000000000 0.00000000000000
0.00000000000000 9.28780793727773 0.00000000000000
0.00000000000000 0.00000000000000 13.59364574221904
PRIMCOORD
 96 1
Ni 6.008589320779857 3.423263023366804 12.99876060192751 -0.25362878533789224 0.8711069774348418 -0.9154531076503847
Ni 8.4906816352295 1.2522658289674933 4.591729607054282 -1.5018422916520136 1.5690221319326203 -1.046638504248675
Ni 7.916388619613075 4.467742017709248 2.2245321181780873 -2.3958541987094866 0.03789034728787023 -0.9347731481352353
Ni 2.9801788676085974 3.2974875310329756 1.2937563236768184 -0.26386768945708106 -0.958384359796272 -0.6728767234719122
Ni 5.076446360980144 0.5880176091049573 10.80341356199197 -0.11903204906520791 1.4834496480774386 -0.18887426666932633
Ni 0.8075265858710879 0.47391317596967303 10.239331562198306 1.0157600695022635 -0.7493773269328127 0.1240932656381992
Ni 2.338307762919588 0.24182107728551902 12.611531464320034 0.27762206292869607 -2.049539715510399 -0.7133625994011006
Ni 0.8493700172743051 6.893494490444446 -0.5545006973352712 -3.1411475853809123 -0.179368126951104 1.883803063299801
Ni 4.628783316009075 8.294318804117271 5.794781200400855 2.3794549314158564 -1.7367413617908865 0.8654114697119611
Ni 0.5411847673870354 6.928630267102169 8.703847968094083 1.396206975608686 -0.21935572308763512 -1.0210251745559449
Ni 6.213794144854854 2.447968908834927 8.094009583498865 -1.2750352544926558 0.19164077367086996 1.0841033339633523
Ni 8.49565061236719 8.374714067862774 5.967705319915563 -0.2944409342582478 -1.295806425601736 -1.831829498445987
Ni 7.021294724864287 0.8608553203181694 6.545815624510662 -1.1984752585487295 -0.011355534222135283 -0.382599947893683
Ni -0.3924869655656945 0.6523431079090948 12.540342275600468 0.2549467328183674 -0.5771548098875543 -0.15886563612237803
Ni 1.3290481355044719 2.201359037881757 12.119944519013332 -1.4442156422774803 2.3451849544893935 0.260900379298641
Ni 7.732833675366031 4.396792454429222 9.8155771918961 0.11090453486206706 0.053431637456578945 0.639981258295472
Ni 1.864973217371743 4.706252920318369 12.515370146946063 -0.6789854074728113 -0.34080615178634854 0.6133880811879758
Ni 3.9788968332456234 1.8038222912510866 8.785967048955017 -0.14699639548861781 0.6286352371550334 1.5300871454303198
Ni 7.17336400089307 7.1826239452038685 12.557007389017585 0.3322808879241568 0.6002852252574307 0.29042487112031923
Ni 2.5429088794918746 4.9187579612722905 5.883777902888818 0.13792374376338828 -0.8626141094724821 -2.217822274071303
Ni 3.3929661945384963 9.000712309134379 4.125467727095878 -1.5836661070980405 1.1438174619945334 -0.7938527836373683
Ni 3.903489122253277 1.9330714236774313 12.634803924159117 1.245271392966662 1.0894098337779303 0.8408366085860745
Ni 3.5283638556847485 0.5105963013958796 7.031516886056328 -0.44069685203641523 0.9421249605146162 -0.4762264124015927
Ni 6.573845299471101 0.7950892825344885 12.609275455821445 -0.7244430255849781 0.21790690645625052 0.4326647257605581
P 5.666445059474763 4.313740877671793 9.417500823636084 -1.9017879299129954 1.1235857083286909 -1.4441122839303968
P 6.7642174945949 8.027637980650926 7.450853975000243 -0.8517383431002428 -0.8858692233456807 -0.12970289851549277
P 7.812244431491732 3.444680708001408 4.131449075276574 1.068094874350238 0.34475228091829013 0.5343364291704474
P 3.105945072134692 7.63935189052332 2.2534998617196598 1.7692349635432174 -1.5566756945521256 1.931306765307719
P 5.087879652300698 1.2069784784565092 5.226444455884245 0.5695134912922128 -1.00392759564371 0.032568420854324556
P 2.39670949795098 2.558605274562335 7.1442894475625565 -0.007675000046754523 0.3302124354309023 -0.2212645100745738
P 7.933701093229251 2.67842728213867 11.863283382530428 0.4225703176390336 -0.10006579237535024 -0.9893556113668058
P 5.473202931761158 2.0172189617474716 0.8083587734440543 -0.12798514449343765 -1.0114228755794905 1.8920701884045994
Ni 6.543251260795304 9.138209014828515 1.3500487975718192 1.130870157805246 0.21337508002416797 -0.1824969023880728
Ni 0.17839928217389964 2.6101897587169716 2.3332542667315184 1.8500930726418654 0.997630192670772 0.4137612039878358
Ni 1.9155639060988414 8.864385867214725 1.2226154315574715 -1.8962664858741343 0.37184990846603055 0.006666356276582068
Ni 0.2366784181432032 4.634996859383121 6.871736872046778 0.29150730555122056 -1.1903068638053242 1.209143279785537
Ni 5.438689438221614 6.111331049933366 7.444845692177118 0.12437171611056645 -0.3084408480817656 0.09607004095239584
Ni 6.1792806513153105 5.345718482804274 3.7313879025038026 0.3331365510562327 0.8640783527228344 0.4017834628006694
Ni 2.5243332640238747 5.543976026694239 1.5186819499134179 -1.0978425379263157 0.48243588364641427 -0.1220824058557575
Ni 6.883482233707194 4.4695345646019105 5.968792922201214 -1.9591764951347936 -2.5088061030188857 0.5183318262120751
Ni 4.140987653819392 4.811808855215281 13.50819592735664 -0.33200732254779597 1.3754841412390375 -1.877595134716876
Ni 4.757270848201232 8.171329654103642 8.543375083627575 0.394390769881024 2.6273961794506686 -1.6558439148138708
Ni 6.16089079200199 2.565886915825791 10.549674369822183 0.5158100882314859 0.20685270552461796 0.517315983353051
Ni 8.969105899415577 6.5569600650106885 10.824076147857802 -1.5258995897115333 -2.068940231524198 0.4899147085219627
Ni 3.719869163352096 6.441475463646132 9.221222511574235 -1.1266898011753113 -2.6127249505917387 2.80152851192413
Ni 1.9760553978703836 6.920744918336003 4.471806362373647 0.45197319628118293 0.7239331758280952 1.0927242428631438
Ni 7.2641894727238565 2.0058785485042576 2.4776053745333475 -1.6452951927637471 -0.1949837220011739 -0.7166361279460497
Ni 5.644795179646809 5.345727770612007 11.562659336919408 -0.5271975041328211 -0.21845480853992058 -0.5114153015978999
Ni 8.44113118096861 4.912897354592137 12.50074370732656 -0.1705800963458288 -0.5870818391932793 0.5122825346942016
Ni 1.679300652961348 3.0051166313743876 9.206785543232504 -1.4676417345109047 -2.919614909246617 1.626028374114335
Ni 5.131207275379809 4.297087838404731 1.9229430693435041 0.9873172407805385 -0.6556133084057741 -0.532941862815766
Ni 1.5624321682444253 7.593442256894159 11.102800471612824 1.5206959340234067 0.37197486407966907 -1.408510475566387
Ni 2.415415142727256 4.680042726893022 8.148234591392278 0.04185164592846341 1.9317896184814087 0.047617858988279284
Ni 2.9495105264709296 7.199899267589108 13.503179582399506 1.3539323832101908 -0.007680656473709352 -1.1446785244432478
Ni 8.56944224481382 8.905967382439844 8.188594759900374 2.475077343307873 0.472133987499774 0.7651646716740563
Ni 2.4661915876090346 1.6791241846144018 2.82024653355221 -0.8827268210619572 -1.7164512440832829 0.9046110227295583
P 1.174480439195243 1.4873495305227689 0.6676141213853377 0.12430152499426335 1.271990554129061 0.2699342073661351
P 8.472876907803421 8.364237420738823 0.45406698840366166 0.29558044717932963 -0.7692452695013332 0.3691397086237191
P 2.4107991022834585 3.6547337677135534 3.575536631165735 0.24950113632276386 1.5131314914125877 -0.5003783270574479
P 0.49904133979401016 4.866634784269083 9.685975122775863 1.314348964490614 -0.1810660834788172 -0.7387869530114761
P 8.038421125430101 2.884755930949481 7.3958673668726425 1.4788206339458596 0.8641904528206665 -1.103347784015261
P 7.849702160082954 8.256350246100679 10.744308739915116 -0.5409979003510231 2.6571782958091075 -0.8467475747538709
P 7.3087059351929184 7.39800820655533 3.9955665905666065 0.2096598359561099 0.12580587745393174 1.4760988641393225
P 4.775985780785242 5.768638807971966 5.395521565435529 -0.345073925923767 0.002741824411195278 0.9269731924748422
Ni 5.719264822058022 3.073530623143032 3.981891222459065 -0.8947289877291558 -1.128335050088218 0.6037199619705925
Ni 8.99317060925437 0.34177925046114777 2.1434049751831434 -0.05339152824726289 -0.8992649279262964 0.06519186331630063
Ni 3.584192867973823 2.732538049996954 5.2288360663757505 -0.9621643956639946 -0.7626879279987897 -0.453089312163497
Ni 3.498875066129299 3.80992374714096 10.36803642909144 1.8406674084525914 0.09150941816490692 0.36852650051975244
Ni 7.999644528140651 2.9789621647954436 0.39739557195311354 1.6030429689627552 -0.874626817662642 0.1364643856090424
Ni 4.322220646132935 0.2913557422732615 1.7824399002858715 -0.38982371933563187 0.23800367720612559 -0.20113302943202133
Ni 6.294997447873217 6.827504616494376 9.827743291246867 0.9923398908061103 0.053533710252082 -0.3180002096354265
Ni 0.5623934763476245 4.994982999345229 3.0371056987718306 2.5318503864328585 -0.14249028008814815 1.7741164600052348
Ni 0.3223277947238315 1.4784146594826606 6.745397609783495 0.4314269966987151 0.35954717983927753 1.1908619649778458
Ni 8.763120899490923 2.087202593023162 9.282842471985457 -1.6528521791753987 0.3029248033595428 0.20884376781271774
Ni 0.8145509548603123 3.2594911095931813 5.088400698314575 -0.1140559360068552 -0.6361302599804981 -1.2357251440391233
Ni 5.156470112416288 7.524145923390784 3.3365195430351107 0.16285907355248724 0.6222182778850961 -0.4585297664527781
Ni 8.329872532123023 5.82200655121153 5.039164171955094 1.9087021405343259 0.7600389204117168 -0.5380994957573055
Ni 3.217909594368063 6.7006238750402005 7.080835145123868 -1.099178740239236 1.627135748245901 -1.215209797694591
Ni 6.679113312328257 0.18484780708361587 9.16024155233511 -0.37060523742565205 0.6990762646854154 0.9745974792210247
Ni 6.632711424889193 0.11550967844543848 3.778462227222809 -0.9796828641637322 0.27641647265636915 0.6562131467733021
Ni 3.7154481668707113 8.284157942456275 10.688996129736053 -1.5018443485345425 -2.0276406014444626 -0.021453284777769505
Ni 1.517534905658269 8.636119416536207 6.594331416989984 0.5194929363997117 -0.3883232235307054 0.5139979747234116
Ni 7.731468367629133 5.886426785654555 7.465467411688918 0.6973831932537087 2.1299183138694673 1.7548344718471713
Ni 5.128049420750249 7.202258370753544 0.6965549302844819 -1.2415710612969393 2.652806391993657 1.2196742612238478
Ni 3.7067547788316877 5.702918280446181 3.5037214442048996 -0.4563186177340721 -1.6086518305091004 0.3107460991761745
Ni 4.4462964696514415 3.76534227001776 7.1579926790933 0.36301636933480064 0.8308766691598851 0.5480856604357399
Ni 9.406227282608555 7.267811717740116 3.31422601813119 -0.7928132866292603 1.522236024817017 -1.039166878461978
Ni 7.3943859615390695 6.77178705789811 2.021252656646348 -0.23930722650889752 0.7541531510549012 -2.2472912300646977
P 3.2978961945732714 5.69146641351016 11.320910704534214 0.6310268773156615 1.7027161538853772 0.5601726735072611
P 6.307870349392541 5.7138407423413655 0.2855750107396199 1.2932281233515985 -4.631373890060552 -0.6650947655336481
P 4.546289007715687 8.671719583580629 12.649675561902798 0.3178104622221236 0.586387641339732 0.6856221960630385
P 2.8358370476145027 1.698071312391762 10.769932872672447 0.6757435034967458 -0.7567394237248386 -1.5618348701555618
P 1.045463501962248 0.5603139361959819 4.837801713939653 2.617869728017472 -0.9294229395669155 -0.6869702254505007
P 0.48339881400840723 4.925315153532495 0.917067919066658 -0.35921319353862646 -0.12246395756489234 -1.829669514680191
P 2.232240998597307 8.511319144014449 8.87245047067016 0.49925861163070795 -0.15057048599312134 -0.170950335201054
P 0.8623562300479839 6.618705410826321 6.449463907078145 -0.23228322978258062 -0.719330129838445 -0.8504206527300837
