# total energy = -340870.8068795269 ev
CRYSTAL
PRIMVEC
9.23065351932622 0.00000000000000 0.00000000000000
0.00000000000000 9.23065351932622 0.00000000000000
0.00000000000000 0.00000000000000 13.50999447429172
PRIMCOORD
 96 1
Ni 8.209198543582746 3.9569134323911297 7.457557512340859 0.01436526758273655 -0.1469046071057599 1.2708353574786952
Ni 7.28138864568118 7.6804113317397285 5.890046717227018 -0.38984403105060605 1.2997404705488194 0.25286131104424836
Ni 5.651458326007677 3.785564812947601 8.170736256910478 0.9847535938184202 1.236328324840761 -0.8162584050260782
Ni 2.5052731835333195 3.5371863907105463 10.428202395653468 -1.1537851147302065 -0.5109877271421781 -1.998351622672358
Ni 5.338816094657555 1.7443811914334735 12.771767454175562 2.677965407757788 0.9753487555647524 1.6080887589167787
Ni 3.2535930256745336 8.218309198508715 10.75749487964337 -0.36167425348460935 1.0871791446751986 0.4102938142645256
Ni 7.133716652261067 2.7937957174958448 5.772915263713755 -1.642061773428114 -0.1332286522805641 -0.4246817075550815
Ni 3.1186777952814615 5.091102279466772 0.6988315399582381 -0.20563014597142648 1.7672130480171822 0.08034774512113259
Ni 0.2743728653343407 7.845095419413703 2.6705480330262015 -0.7791149632065614 1.3382663945381597 1.1496880618426975
Ni 2.208387677571881 6.647353523538367 2.4828399265256373 0.6631764654650127 -1.8070810878567134 0.534461384784086
Ni 4.194353530324969 3.4584766089945003 3.2128932286131535 -0.6759913578414939 0.3138314229697176 -0.24141167444641007
Ni 3.8265950674014335 1.0837340954795471 9.364357589098931 -0.7563110779381684 -1.3886667013675829 -1.1813668810032172
Ni 7.2337677046851585 3.4072280212042476 10.081562744690544 -0.6198644329409388 -1.1846766621027405 0.3065518585891688
Ni 5.89451066122114 0.5660347445251555 10.663938514965896 -0.7426873165071467 0.2767072644239105 -0.6339018848706115
Ni 2.7096952341822647 6.669211710837956 5.735451733741579 0.4765704260045728 0.9111740206590566 -1.417829696084784
Ni 9.213382867884988 5.58379763643589 3.0987331224359282 0.2836181326111309 -0.1470889552024241 1.23176718783264
Ni 9.231945711913482 0.43027767854013943 12.785615280436897 0.6681209539544816 -2.2465211846678925 2.7194941231291936
Ni 5.577548484070255 4.68667043050385 4.923933299892017 -0.6200171564687192 -0.33743132177684465 -0.18906067164851956
Ni 7.242767591770082 5.5951236481827635 9.580518261702643 -1.0454696807515542 1.495197018421354 -0.7030833289622794
Ni 4.264404959132647 1.4899843831662951 4.6139328815508245 -0.419742104161619 -0.6962858464244718 -0.08907818301559497
Ni 0.6522499705373568 5.443731701434215 6.386687255468029 0.6590233625285876 0.5006287525053572 0.09664262562641421
Ni 7.019468854876348 1.9703475871657128 3.330727134851712 -0.8311420070061298 1.2659453763762456 0.09330584794369738
Ni 0.07991622811809683 4.735666738859516 10.364125045739495 1.227448505852628 -1.0631154188577754 -0.8598278049765967
Ni 6.836803454339367 3.5389771374741112 1.4257768810390938 -1.0890113127879308 -0.2940750662783968 -0.7396061064786617
P 9.091602857309194 2.6049550098205927 9.241971124593416 0.18140238377231338 -0.37598012858432023 0.2613510936828144
P 6.468684995932435 5.217368387604897 11.623823087372788 -0.29080822260166694 -1.2174116904419163 -0.27175480551464165
P 2.1223672183468505 0.16606499342567108 12.635505471448448 1.1696434219187017 -0.6695558866287953 -1.1909339558663619
P 4.871874260731449 6.890470473325774 4.76038181339273 0.5651577854266783 0.5008776352913696 -0.01150722930865115
P 2.7197751077173793 5.574363908640207 7.499587446560124 -0.5045447997303116 -1.1039926166881115 1.2703368205757217
P 2.793103418489312 0.8965835204455772 2.8208332244296392 0.7437689796070998 1.0764118788563657 -0.9611585801072995
P 3.110665588112524 9.177558701960281 7.376754218429059 1.6206619675960994 1.0526559140873484 -1.600990971529733
P 5.2231467766460895 7.675454470852955 10.243561635284514 1.1397584614338114 0.15379104981294803 0.6643918259293525
Ni 1.530885408472241 1.18913892688749 8.535276914051652 0.155104626418049 3.39567522838399 0.3608651273197527
Ni 0.6708866597932144 5.352772842629253 0.9247933203637675 1.1343069514009367 -0.14016625994066184 -1.368937084149139
Ni 3.158452680870114 4.073284280062548 5.860419088943449 -0.9083666331172485 0.719989874909631 -0.9908627920399515
Ni 7.765185652753 5.601105111599205 5.295607405996502 0.5203141467494266 -2.111053101533848 -1.8363746946145083
Ni 1.7587163961954084 8.327950899836637 8.58823594192071 0.2843033316036136 -3.8252973106634833 2.3905572119766054
Ni 5.026764625126343 8.73726576445897 6.263936180152407 -0.5675712799641773 -0.28400328386469154 -0.1709233386178605
Ni 4.092160966307338 6.33074211121746 12.251146601413604 -0.16058647546822666 1.5701840134512053 -0.6601983566732952
Ni 7.059686811829182 6.840191104144667 3.1747004770207634 0.050576427395970965 0.7791632999459935 0.6681453794345138
Ni 8.537117506343685 5.505567848697707 12.399837658971332 0.13078507583607799 0.323451719668301 -0.2093299634205169
Ni 5.953688380299546 9.107165738976047 3.803185207261869 0.034066859776721976 -0.7887967092706996 1.2955446872999172
Ni 3.950959660934949 3.982860799155971 12.2351369561212 1.1372896881783445 -1.1209665255382886 1.0393692242807713
Ni 1.102121557093053 8.501699489169479 6.367327806049352 -1.3588545031021566 -0.5201295415424462 0.6891206961346004
Ni 5.190230266548819 5.983660311955697 6.9186027357552335 0.9207128133874272 0.16285110313268727 -1.1185286055207575
Ni 6.078126819060425 8.777585258599428 1.2677102488022294 1.6667299655987553 -1.1101966886162946 0.4281089880690756
Ni 6.613089338041714 1.7359905274742984 8.202633702870132 0.2227809467191002 -1.335387787438784 0.043185791358854655
Ni 7.18155912893918 3.3029400988601774 12.57653451900666 0.736501499411409 1.146684242019367 0.10553092925497953
Ni 9.160925064496658 6.727235598238809 8.690790347552424 0.15616906312682138 -1.188497321400411 -0.47369387578772615
Ni 1.6416532495174565 7.269951866093262 12.383517863724006 -0.37348821540040195 -1.1356297839774183 1.3467021840103388
Ni 8.765179260402364 8.93627865220354 8.954221196322182 -0.6583109098425953 1.7989615440733728 -0.20422580942473215
Ni 1.3856318462482817 3.822635117084067 7.929637127960779 -1.4782830162748346 -0.474341536674054 0.78649814304451
Ni 3.1481789636131703 1.5931092431793907 0.3074979881989124 0.31335731154677643 -0.24173460500346755 4.1140555927146565
Ni 1.9035545790154478 3.2751835240249307 1.4558641958630005 0.05966784817427789 -0.4965396700376481 0.8814744367120947
Ni 7.625747402183914 1.391225622221065 0.828721602629226 0.3023216225579051 0.015899187728759714 0.40943275181581096
Ni 8.960859882262158 3.369096191924432 2.5646696690977904 -0.8485488896286677 0.020193958449371673 0.351310136641466
P 9.171124936526237 3.0514324851135948 0.43462623936650613 -0.7715312373220325 0.11761614255428776 -0.361909509423867
P 2.488482624961549 4.854096022243692 3.750171718537629 0.3213120476174789 -0.3044456108794434 -0.44808825940447994
P 7.9223190659290585 0.09792800213739089 3.029913062794536 0.12371248526001274 -0.5307101452717699 -1.033222230842769
P 0.5610040384110186 3.2682605339596043 5.6941925590829205 -0.6575064116634289 -0.10063683438747184 0.8855858877773071
P 4.293656899822005 3.3282782424992705 0.9443623056150888 1.4376531585686145 0.0676485523869093 0.27165864625640956
P 9.222475061504115 7.62883044042634 0.5858741879216955 0.35105662586976316 -1.0017804673937198 -1.1504560503569734
P 7.015398136717937 0.5769278386266103 6.144386295442989 0.06075516770118569 0.6331634640426902 0.6456765089080364
P 0.6292139518613202 7.790219184829219 10.597347658125539 -0.6248706279062787 0.23908585452671083 -1.2472735109983553
Ni 0.49668576844277224 1.1867020343844954 2.3199899696863033 0.3511203892281631 -1.012601983489256 -0.3946525081828429
Ni 8.090741568238307 1.4983750471254702 11.361459302138433 -1.6330228031542973 1.6172763389533182 -2.267132690270657
Ni 4.033675546235464 6.762025930980427 8.639060842718965 -0.13177597899443758 1.507897753817474 1.0916613488162683
Ni 2.0732232195364566 6.194146901901869 9.963877451972056 -0.1131053991681278 -1.011518006396458 0.45685340719161965
Ni 7.737724458827207 5.965180543807988 1.0543953866480376 -1.1761053754939617 0.6126859129146287 0.6655534503376216
Ni 1.5531312832154882 2.5225529667363733 12.55585139388749 -1.810102648291857 3.87429070984305 2.327025252861231
Ni 7.708546363365214 8.337236937177595 10.945756825349159 1.0534940937179278 -0.9720477162159775 -1.2716213437151005
Ni 2.1819972394428584 1.704680151072184 6.2474133105298275 0.11517745120580809 0.1328013349351584 -0.1917184209863408
Ni 5.587868354594302 5.128911035876873 0.17617532811707312 -0.008787259274326801 -0.05137192671407281 0.18297744156891713
Ni 4.915766017745616 1.3636628911076474 2.018865747674201 -0.7444420944147244 0.90711399165707 0.08638726644699317
Ni 4.583102499126573 4.8682835365509005 10.192574274986061 0.880982841787657 0.18204695933484777 -0.6329904287999357
Ni 3.4882454662754023 3.264872884154305 8.180125677569745 0.736583517602254 -0.7408533486222015 -0.267948544394674
Ni 3.46185502814638 1.7728946798491958 11.672972624575234 0.47114231301046605 -2.0889380148023635 -3.6593359440365885
Ni 8.818698588934044 1.4641939375096007 7.195611875706449 0.2628526179290054 0.3353770103509772 0.11207875767582633
Ni 1.7309505907067408 0.14597724545212126 4.439748605376539 -0.11275187248345096 -0.5090974520980006 -0.9879502463788469
Ni 3.861182325767802 8.171186712797397 3.0992066549563964 0.5017538672487358 0.17976150573478072 0.46851104603520605
Ni 2.1402469940222324 8.643140791530797 1.235422346202891 0.07245111598187523 0.1349852299603546 -0.6667338437989679
Ni 1.6725205545553896 2.699079982748765 3.8891899743760843 0.7933732728977884 0.3766293321325449 0.4739394161396289
Ni 1.1288073761315294 1.2975067980433923 10.942108871117405 0.10262738245493938 -2.0038144455591427 -3.718975767186408
Ni 6.617935431087442 7.131279759758073 12.509538436481144 -1.519156871671061 0.2935325635113655 1.2334453468660111
Ni 6.258438402975195 8.466558391597884 8.432073593484482 0.1383268927390779 -0.5772825937146703 0.22040164785364622
Ni 4.976983711229939 5.751915527182266 2.6208040417434795 -0.23031119365787434 -0.6688074384985448 0.7583389070014747
Ni 4.3509884882163234 8.928460288756431 13.233323201830844 -0.7811515340206159 -2.1766514562599477 -0.9603394266401138
Ni 8.802424946953819 1.4046377616409567 4.826499137712619 0.7866979177601419 -0.8984398609218398 -0.6156915325101718
P 4.596791558149078 7.219783264753199 1.1882103231533943 -0.942310594162861 -0.2088226847667952 -1.6727576598500737
P 6.905230288145049 0.1287879226525879 12.671172716265007 -0.6720233743326812 0.26432200338568024 0.9981564974878874
P 4.992971202954131 2.5760169113475304 10.164487242758362 0.8417205538529245 1.6801112720016675 0.011970542098314867
P 0.2785469668110612 7.0046167335228695 4.840293426184116 0.0918148652204677 0.7851169464262672 0.1441830944095388
P 7.558095943265549 5.999066272514403 7.33531873829007 -1.1016382575233221 0.7361672560004419 1.4137100174894557
P 4.846240736182903 2.852382674755343 6.151776356571389 1.1714038562532343 0.46740032946953053 0.9587782528005808
P 6.913547106876861 4.430012112148665 3.2637578212211165 1.0105700406608917 1.0052781961343331 1.0274251645450176
P 2.0485127603299533 4.884455641343502 11.963208367812593 -1.0647028179495532 1.6189028188131473 0.6180389496964259
