# total energy = -381170.0415369058 ev
CRYSTAL
PRIMVEC
9.25643789245297 0.00000000000000 0.00000000000000

0.00000000000000 9.25643789245297 0.00000000000000

0.00000000000000 0.00000000000000 13.54773251068203

PRIMCOORD
 96 1
Ni 6.524270811057752 4.009463192704273 5.412332852409155 2.3358467078076033 0.5220961783505138 1.101805893449438
Ni 7.646799060546957 7.38740589541596 9.253751890749596 -1.3845241399541188 -1.9233934239979136 -0.0751983397097092
Ni 7.297146367414236 2.629207936943707 12.807565991890161 1.2228341470090682 1.0680444807282765 -0.31258212394364876
Ni 3.5334508629443793 4.895026626600804 11.548737616888435 -3.330093842938755 2.2987670293464864 1.5261438445118556
Ni 5.7779056934457 2.6885972438516217 3.3198039405923105 0.3825557249193089 0.6571708827008811 -0.96167125807766
Ni 1.0653697441655818 6.0440005197676765 6.803657882504381 0.887023134444466 -1.0112056173623616 -1.8837141031304203
Ni 0.27248454554868135 0.8897640055104352 2.822127843081905 0.9785232966379923 -0.8184039906141712 1.71647001313636
Ni 4.796140098281408 3.2959214046270504 7.671932141300756 0.502837844341534 -1.1728542155465156 1.319049969510709
Ni 0.3549473757311212 2.063463696154306 9.261744825056796 0.18342944150467116 -0.40747100010374987 0.4641340000134329
Ni 8.597333433531183 6.770288423121116 1.882118965871524 -1.0178130953765503 0.24399409046160558 1.835986200926838
Ni 4.374629676107829 3.6260152440352678 5.357031188570215 -0.9773225914616716 0.7281664971831524 -1.0094670374047003
Ni 0.6896129699214179 6.5867702811703195 0.19726302689898167 1.8122086388912662 0.2685671518152794 -0.9179540196953675
Ni 0.08063098108065118 -0.04061539913506008 5.414662697881212 -0.07699116994407385 1.1887829709616302 -1.01427731430915
Ni 6.443443593489188 7.139259302587507 5.816231049792571 0.6381305782399784 0.3785275775965223 0.5787483796269194
Ni 2.240733742381466 6.431521301204682 2.3274869316274684 -0.7538980976213017 0.4339335651706527 -0.03925740283872594
Ni 8.249865259792205 5.066094859294876 12.999347356140941 1.3334535465305486 -1.5349935815930014 0.3277953413489774
Ni 0.07302218895498015 2.276750543063931 1.020881451325679 -0.12928123759704185 -0.20581449406809071 -1.040591783833963
Ni 7.4009295514933395 3.893230099368445 1.4395686598759858 -0.9814486978149033 -0.2773197011969289 -0.44863950392225965
Ni 4.29476512810261 -0.059096803463666886 13.262404219475513 -0.676133539846313 0.16563406519446314 0.11948327767001357
Ni 3.8032667773862108 2.298716070696799 12.346319532201885 0.2879648396156008 -1.095269377882501 0.7183955338393175
Ni 2.0258455316789683 8.805362623594846 2.270329351947656 -0.5823062721815068 0.40893858578821185 -2.9838608637098805
Ni 7.714408084495743 8.29300026138056 3.855793361080046 -0.06547725576720337 0.09320917446483303 -0.5573136067919111
Ni 4.30736314036908 7.700791864037273 1.763766148208714 0.07744779786551823 0.25523238237958623 -1.9450320853136114
Ni 8.73329199647748 5.245114372324654 10.032055422413249 -0.8055492461386901 -0.9517342014696061 -0.6952095826411575
P -0.2242140720974048 8.619447064173796 8.452213773788321 1.3296817381929422 3.428103009895393 0.21754026714545116
Ni 5.19395403889572 4.042453138125066 13.224958224749008 0.7771717234372616 -0.21634136174134352 1.2291428628359156
P 4.038306253852195 1.7290100743967072 9.328617036532098 0.45749026944467014 0.18672251043364615 1.8254552194885272
Ni 3.2740576978133826 5.041519016115244 0.6172405829216957 -0.12872613642452022 -0.2053835771782592 -0.8400110273609857
P 1.8858326488408905 0.8923909826457946 4.41110096790145 -0.9438640546929099 -1.3328128276227562 -0.5042028430098606
P 7.423024669259734 0.49423455382144665 12.88562831139554 0.2854644417912503 -0.7114414711189877 -0.45127565599352604
P 5.174802468448015 5.6939405433581545 4.969376188780628 -0.7015684349796498 -1.1044484732786075 -1.5313729541212788
Ni 5.806434035697912 1.72400234137969 0.7902758087139482 -0.8456160322525887 0.8298122324511128 -0.6050067991028161
Ni 7.7907366731432885 5.39632754527473 7.649605612581633 0.4508146571967075 0.20530284453899483 -0.7502612721996628
Ni 8.470686847322629 7.54964348615396 6.76575091716004 0.6675748516430244 0.2413592239419198 0.39174356206616406
Ni 7.690183985964257 0.651565306717819 6.900700528352447 0.019147519462728312 -0.33464398883969465 -0.8543896646801608
Ni 6.304587765414746 5.901692040278544 0.5526935886993973 -0.7389476469590563 0.11706798336030161 0.8793509626111887
Ni 3.875541046141976 0.805415638885174 6.239598313450833 1.0834075934479084 -0.8367323566097139 -0.9739331061641484
Ni 0.2742691868161137 1.246675597408305 11.566878384294625 -0.799120974014843 0.20513597994382735 0.3283000488995378
Ni 0.6609892863566824 1.6187196143269134 6.9401783112438995 -2.0508306664076805 -0.6872198795674617 -0.9727709675352472
Ni 5.704835371012552 8.159929707124299 8.05437113821587 -0.19555759222677288 -2.3034019570153363 -0.1551334227734554
Ni 3.540383935088087 8.485663764183135 3.673481333014865 0.5402093430114566 0.16221475510026903 2.9037617442644446
Ni 0.8651752033174517 3.165414883727007 3.5619838334156455 0.3982242846945013 -0.4695173758125334 0.15452535687581131
Ni 5.0030955415244165 5.571588944432218 7.213084024726544 1.0515297709027052 0.2643101763111384 0.07240920700034627
Ni 8.361720057902435 6.021933171315609 5.109785247169775 1.4119464978311296 -1.385348435627627 -1.2165681114946985
Ni 0.4232247145113824 4.499212076618056 1.2972037161143886 0.8662979860819726 0.1958643248339143 0.6102793603556652
Ni 0.3049829741058814 9.098652865081325 0.5308585768438676 0.3961920847558209 0.030834725992669478 -0.9490743952492559
Ni 0.7275393737857876 6.749729874080829 8.869443093336447 -0.3202650944102033 -0.1629197515870936 0.0007466483580374237
Ni 0.8064431035152828 7.720517333647741 3.911379197568935 0.46700797912711833 -1.749904638645722 0.05832238988997697
Ni 5.885132272501385 1.4517612401532778 11.337759325643214 -0.680092524494061 -1.0283564181100355 0.13890667650194788
Ni 2.5078560333335522 2.530080741233475 5.587585920772345 -3.0771417719529137 1.539015301157885 -0.2423251873996149
Ni 0.8890160853112209 3.831276759104313 7.7510783897087085 0.3225703455046122 0.8327818566023979 0.5870846674067567
Ni 1.6921694507225336 8.150987987910918 12.203770385321917 1.7855249589524929 0.6487561762746247 -0.24066888274311457
Ni 5.182022490173105 3.8928413289678634 11.017693911282384 4.069842131422236 -2.0527566797858 -3.2014697793097375
Ni 5.688469988435683 1.0410715941292235 7.900820714643251 -1.5996272584129871 1.8547483120256896 0.7732345931663844
Ni 5.80990519998882 9.155144906861095 4.86317522306743 -0.3308744944949334 1.498778050904393 1.0758164113642117
Ni 7.941126023101655 3.858759123850198 3.670406344275025 0.22690371063822215 1.3457534469438244 -1.0111572806229296
P 0.16312620879647288 3.527202767220744 11.109316912617578 0.7205969123660105 -0.2784854393702559 0.5013409480810334
Ni 5.0045673151837615 6.21667011625462 9.850394121947136 0.8430163898462126 0.7075459927193234 0.12608484214693125
P 2.856583082655366 7.109583162009767 0.26872458038876945 -0.2233162503972799 1.0792966566033284 -0.8922231905881665
Ni 5.441573014751955 0.3226211169227502 2.6244936330147484 0.015192134359406095 -0.12111618528774624 -0.19109467135941283
P 1.8501027977398075 1.1921366640695534 13.014223377826058 1.0568987485241024 -0.5969746728269589 1.1774647177353335
P 6.37475156628164 4.423188950428109 8.88254373019224 -0.5066042533625016 0.14443377696776413 1.2653396244714468
P 6.468435976383728 7.764957493009477 1.7465195527238597 1.173877000384075 -0.03232802270874432 0.6268529484436302
Ni 3.43438846230091 -0.03925933095207856 8.25185631962947 0.17364613686566224 -1.2032883636666567 1.0654723491257263
Ni 3.888240879227646 1.5579788674550723 4.008448687087517 0.34943554532657234 0.11267525360924466 -1.1281666428311539
Ni 6.569053458629524 8.239100022271336 11.051630790321736 -2.274864511697276 1.0170291660226742 1.192561978388088
Ni 8.816627708773607 8.090052855838787 11.283012122447008 0.8833472282547754 -0.21143338291676492 -0.6665206993468973
Ni 7.913384478088717 1.646192722634689 4.266709789837773 -1.2589182943261352 -0.42274720953652994 0.943399970572298
Ni 4.571782551393312 5.756088268822578 2.74116733280457 -0.26264050191819927 -1.1718026343535495 0.7031260092747569
Ni 2.386430078218525 1.9434076938794231 1.92907502511131 0.24814539362581778 0.1379214297705431 -0.8639353993870669
Ni 1.1914054054589356 5.597951280166903 11.645157304451756 0.11081223225857689 -0.11137890339532432 -0.3744546930787293
Ni 7.482932336701757 2.7999151685515242 10.363229488148797 0.1895869764656348 1.351227325574202 -0.5298897062530036
Ni 4.6359296674892985 6.8986289375036325 12.443714848341907 0.22583721704692075 -0.1379168017848528 0.04820304206778795
Ni 6.678890353231972 6.078795470619742 3.382286749116282 1.2516449005931733 -0.03814720049368269 -0.17535129248222703
Ni 4.186214878397325 7.437196276004749 5.537865889113186 -1.0995183829668418 0.9039718464836626 1.2997247868195358
Ni 2.859646963669474 4.213539883695356 2.7734241683271224 -0.1687147610023159 -1.7197340285996123 0.4834355285555223
Ni 7.376399990504254 0.6380999662005276 9.312833883912289 1.0216525237272986 -0.40453839983798723 1.142179412170478
Ni 2.7197359016505964 5.676010822740849 4.664660725736099 -0.29125533744141446 0.01681707155733878 0.7095635373699846
Ni 3.2577385974270587 6.953889873014893 7.765208342482232 -0.6607688844647845 -0.2432369005806069 1.3240034568612424
Ni 3.2764921410360723 4.84590270955587 9.114562830903228 -0.8384655372507366 -0.6212787967899622 0.09321225978862656
Ni 2.399777861971831 2.9961516564642077 10.658259014355977 -0.6396727259161177 -0.4043504521968972 -1.4053282211836635
Ni 1.73294406059307 3.378599909817432 13.011676006058435 -0.8779324849971073 0.45344361017912227 -0.3769980283258733
Ni 8.982947388717715 3.599310420090547 5.740879015365533 0.030173181149270617 0.07532278110271545 0.199048893209483
Ni 1.5713266512083783 8.89948208628806 9.824883378518487 -0.2897445572238429 0.32134804306173687 -0.19064215720302652
Ni 4.084486623578439 -0.0907056883185835 10.852248964739584 -0.4167202866161598 -0.24388250458440583 -0.6533283690263394
Ni 2.5599049848209594 2.0439603810584557 7.794606789916699 0.82106919615116 1.2042075330468163 2.4334298429704155
Ni 1.969834824680872 8.328258034138079 6.443044641006686 -0.018345078166090985 0.46570442982434634 -0.44045825366304786
Ni 7.624500301142162 0.5768908435603666 1.6638651142725616 -1.0274699017400242 -0.7983105622984058 -0.23144119349725947
P 0.5578716401776217 5.339826247056851 3.2945644108002576 -0.2959386018496968 0.5276515609511041 1.2402343447633866
Ni 6.998857649348846 5.900433164695709 11.438120404553388 -1.887242170888337 0.31465057643690325 -0.9588304461947551
P 2.92268330719237 4.429622174913926 7.009488668517135 -1.0210714544128479 0.40402289365414934 -0.9135476630975558
Ni 7.743019734690936 7.414656849209118 13.170428547848363 -0.5090326602983362 1.6809191126149436 0.4577381237894181
P 5.954574071195769 1.9216365514468463 5.978302950288418 0.11497921915207296 0.008400308248553276 -1.044628930017814
P 2.4218359539857897 6.754274785192392 10.061102125199572 1.7314626298904503 0.2905331145634093 1.2333728417568628
P 4.301837046817954 3.116198402300981 1.5303382176175222 -0.06466298739602412 -0.23928305813918146 0.4195397583428258
Ni 7.745037638198717 2.9827946162727925 7.8453431784802365 -0.384659401525873 -0.5348249387710918 -0.21873171635039104
