# total energy = -340871.96405682334 ev
CRYSTAL
PRIMVEC
9.30914698727684 0.00000000000000 0.00000000000000

0.00000000000000 9.30914698727684 0.00000000000000

0.00000000000000 0.00000000000000 13.62487759887873

PRIMCOORD
 96 1
Ni 3.8942488371710495 6.372930192891303 10.071264311893945 0.038665277780681795 0.16231142857913336 -0.10665758666025502
Ni 4.950408778777227 8.683209082910428 10.15384482228577 1.5516412174520116 0.32228366750212883 0.6592254512370646
Ni 6.735456296915572 2.272949211331369 12.231338256386211 -0.670607210711445 0.014338013889226918 -0.9156832213833197
Ni 5.88225437395041 0.2609353849421013 1.7770928521935347 -1.3262711698494964 0.48702735967183863 -1.413732643197275
Ni 0.9809885811563928 7.952804115449058 5.156988986440041 -1.3731444373622674 0.4092576596905274 -0.5953697902336842
Ni 8.337541843749882 0.707570561263565 2.0143290111996532 0.6475459580166074 0.8582967130440508 0.4353551281085276
Ni 2.2646175249409595 0.6605882282537794 13.08984173845678 0.05031263221162303 0.5447519680768167 -0.2726400363330724
Ni 6.814919174042428 2.453444258732097 1.2709340602866877 -0.7795847037541284 0.15826374087232098 -0.5590357316893405
Ni 0.8125619116735722 8.79831668315335 1.0056019653086194 0.006620590640311179 0.5277022116833815 0.4267658437776199
Ni 5.783977711130797 7.434238092680606 -0.04187254232856124 0.718718207286059 0.270513734018689 2.210060113627381
Ni 5.300125496797916 7.034754675840777 4.569211319006317 -0.18902107665983575 -0.9096812381636139 -0.3855443752339876
Ni 4.8738317371598985 1.087168709613389 13.481270881480986 0.5187614575503259 -0.612134668396849 -2.507516951893817
Ni 6.6638875762792935 7.867011018494852 7.91668090218722 0.5031589751263786 1.7384812273001284 0.11154345399764662
Ni 1.5415109285746518 1.6172222195391224 10.951008474229312 -0.2854870674990696 0.7599221923281945 0.3456930475650047
Ni 2.716921040751943 8.548533656083551 10.98966284450741 -0.8804637360593932 0.8666142317708108 -0.6294204520604901
Ni 7.219541239918576 1.311733257988641 6.238572207970473 0.5780261567489142 -1.8644310865310925 -0.20898774958974975
Ni 4.233446219302171 0.10865170693370442 3.540546873403171 -0.22427604320738795 -0.03452348769816635 -0.5211410135260961
Ni 2.224262373541601 7.597492600198608 13.103644410424446 -0.03080053032062437 -1.112383411854968 -0.6296199696658059
Ni 4.793642746582258 4.424777113583834 5.514505838568578 -0.46346165653675664 -0.7512794290515319 -0.17219320646921957
Ni 7.282117324741295 3.5321602630466122 5.893753962998537 0.7387332169554052 0.9840108021151248 0.5533569361370082
Ni 7.447401226262771 7.662442517456583 1.7112846316001453 0.1437658043664621 -0.838152376885692 -1.1814542985107008
Ni 0.5161381972817285 3.7853318195534045 1.3648996572209395 -0.46679946266073796 0.6683073589336748 2.1646842565957427
Ni 0.6749494490297401 6.390226587654857 0.7001344147957894 -0.029580027649961958 -1.0710652698324716 1.060376679770374
Ni 2.357243535649982 6.497896179600642 6.241610713487601 1.8074130172748357 -0.26028948518751943 1.996897663834651
P 6.120428894954466 6.227269972834612 9.230213618253254 -0.04158656519253483 -0.9013246386688025 0.7167433429478752
P 8.47797963244901 1.4237595306391313 4.316633686065678 -0.5358644357791997 0.12356181861476138 -0.04022902272337588
P 6.8238931915623775 5.283396959989462 4.823588410024347 0.022098117450620007 1.8212625215634182 -0.43779484789827183
P 1.2519219897669855 1.7228344900410182 1.605501072797039 -0.751209752155861 -0.47839642346971806 -0.6777461357490715
P 2.791673489595506 0.5836881592423198 4.993612529098892 -0.44360991191815213 -0.292925783165302 1.5799629472148402
P 0.4406708059635471 7.76353985175809 11.672718698574881 -0.5375675345132356 -0.7424101515863601 1.2325997110362643
P 8.812643460086132 7.696988761249667 6.861502144654282 2.892400039394722 0.22744647051556957 3.085988423710266
P 5.373146444335762 2.3656962409488558 6.807874011740459 -0.23175692496546538 0.5401676911402439 -0.23585963427992926
Ni 1.1860970127093473 0.5433022876585053 3.5627966651816267 -0.21446214244075967 0.20691081245606302 -0.9347332960362353
Ni 1.3492211921720816 6.9875014466589676 9.929919812296017 0.3955678209082607 -1.341624255266799 -1.594592781312873
Ni 2.91028132903708 4.010548008205001 2.550086235372765 0.5459624434451501 -0.020450811655184135 -1.2424979439865826
Ni -0.026487315404058534 -0.13619747232948315 10.096947317014056 0.2973956460111975 0.8120186559131176 -0.22174196393162454
Ni 3.4373931485724563 8.847673779513073 1.2026579848753123 0.5851596824699019 -1.0374858912151292 0.4977519451781944
Ni 7.318441615574119 8.84689181118146 11.743349988127903 0.4765930517123922 0.36814469170030145 -1.5297842694779202
Ni 3.110763114627986 6.215624230181648 1.6519071696195995 0.7906260491699545 1.2445831086503856 -1.1042600114168855
Ni 1.0817880227601413 5.538812020876242 2.9793794021113307 0.6738995083094717 -1.5078172782885257 0.8142254337564494
Ni 5.395199813116635 4.5920066267875415 10.732751803729078 -1.6030213716962005 -0.6768380221125053 0.7295122125777695
Ni 2.887408755337374 3.793281830924812 11.631953013801427 1.8859643326171778 -0.42880832812894537 -0.2667061873471407
Ni 3.312119960018555 1.523534966094338 6.894665049232153 -0.16168870739346994 0.4395069454933721 -0.14409207735762924
Ni 8.885822663119663 0.6407178543986629 7.625530819460368 -2.4149304986146474 -0.9668445747484834 1.3908781071966045
Ni 4.603131057219429 3.6222728041183045 0.21938773183703197 0.44709401381201064 0.5605423981418539 -0.47741400495179076
Ni 8.845653694656404 1.2250464829411614 12.981156518594577 0.5832706929773052 -0.14945462722112327 0.29664899765316005
Ni 5.398374232177114 9.166083836828792 5.577616268417899 -0.5548954842687218 0.1103437772625906 1.6628658546576585
Ni 3.3416858102710028 8.146201640321415 8.398538166359804 0.4923739686957326 -0.5834025905694791 0.04914612270734761
Ni 0.9280325686418855 1.8995407146921408 5.8922961506088845 -0.7222578450082012 -0.13785483819866579 -1.101689936696864
Ni 2.8642196706463015 2.8390291193921695 4.496999336325818 0.29427689787655775 -1.4647510432266708 0.855421705489101
Ni 0.15820522629101083 5.697681920249125 7.91110751599511 0.4786476202485756 0.03676394699291088 0.38902822001753
Ni 3.352987114492184 1.9306705016078163 1.2875564728215652 -0.38060528606115746 -0.13914733175784422 1.5541069053836847
Ni 6.940201671743134 3.9714589007711134 3.1416648274469408 0.7536607847995149 -0.03412085294310898 0.30682619529647803
Ni 1.0591016319965345 5.2746370528460265 12.030330504000828 0.35996369855140586 -0.08537939400776909 0.15102325725982377
Ni 5.842495007946568 2.105840717036126 4.504411279011901 -1.0398834449130285 -0.09335238491091664 -1.3779719406578979
Ni 8.129258993136448 3.7753244867381084 13.331302388282975 0.13516649273322529 1.2357210302740653 0.6876412833755964
P 7.251062011000058 9.257266929783052 0.1293412857076545 -0.0926036796703502 0.8998141155615471 0.9353413619338795
P 2.491751397834371 4.649509226601574 0.27967097380169714 0.055303400557995076 0.17226879690216138 -1.025706124971382
P 9.015042929918854 3.0558856942129413 11.577657415061688 0.5819794849697074 -0.47316911363250763 -1.7047779215104124
P 5.025366028850498 7.571110478153445 2.365033429696345 -0.4732881557088752 -0.5696137643155028 -0.03391259358704482
P 4.258078221748008 8.212063853966272 12.412467256684357 -0.31757597761381434 0.4624021049239907 -0.7506669922785136
P 2.4579498857856814 5.362105796225119 8.712046026968052 -1.1443604789821968 -0.5932635425239589 0.04819378609640732
P 2.5646606356105583 4.962966817817073 4.602197349794895 -0.1080557525593623 0.1680835551762202 0.5162859994266399
P 4.970069696829232 2.978805958668147 2.52466295544851 0.08821249258119002 -0.10312077715159015 -0.16661494105049368
Ni 1.316564705180398 2.8540261548949064 13.131003061969444 0.6504970702251313 -0.0179702113251755 -0.7670531469460209
Ni 8.142114924874052 7.031766439716395 9.897356416772382 -0.0932827080152458 0.13253342598575238 -0.07208679066392101
Ni 1.153915292204715 3.798485643988766 9.935056599502976 -0.708217050644419 1.6941178706934048 0.14321661673121142
Ni 9.287661294101138 3.4907252506178823 3.94949769254361 0.08667420155979266 -0.8152569603447573 -0.019737587638243428
Ni 1.55193717299617 9.083064865622454 7.247903417489146 0.7320876866144296 -0.5678451024508543 -0.7976004236052586
Ni 5.854029040837872 2.650230313041447 9.661822900716885 0.2797663629652085 -1.894688342753737 -0.5774211761750636
Ni 4.220478577802908 5.861578758896668 12.495511362587068 -1.4071169376529702 -0.3860038313689094 1.4911835263865867
Ni 8.362145918755305 6.510938294274344 3.4220647074434636 -0.5600603162991129 -0.7912551981135211 0.7882192395006747
Ni 5.14160934500362 0.5450524072578314 8.089634609761276 0.9471995468240461 0.4933990675261373 0.19964744602543036
Ni 2.3602503900679737 4.006033072004612 6.79311901405465 -0.4913606969398699 0.28208189847226256 0.16298120095264834
Ni 7.541935612066805 7.513812679569121 5.413940056549634 -1.9571553509397068 -0.2763311120314144 -1.5968005875974691
Ni 0.44986079568937093 5.40596118682313 5.472350298177147 -0.8909551225090203 -0.40803252903417464 -0.27108014804512026
Ni 3.355146836550927 3.1803396778480097 9.13892719376946 0.4681981427804775 -0.09017064474882536 0.22725003823404732
Ni 6.8214448859526815 9.000734771279681 3.614761253561409 1.1177742438532363 0.04968862547437894 2.8273565287308275
Ni 7.187359519413943 4.306290293050725 8.338846986131934 0.4901551066675429 -0.5309292032611115 0.13301550782849353
Ni 4.454175399193793 5.146329082433719 7.840789944689415 -1.3994758761679444 -0.3794405763290949 1.419335076985717
Ni 5.696713768981413 5.393151800819551 1.688013626417189 -0.13038629773576255 0.9452995015878559 -0.6943343791250559
Ni 6.304964112068531 5.78808304487177 6.9103202414139995 1.4831274888513295 1.26325934490365 -2.184092485919025
Ni 7.606410762837728 4.837246790216535 10.634979696666292 1.899261563946716 -1.1744925224808869 0.7231559313424385
Ni 1.1954527052482988 2.143794108559813 8.259782540488327 1.8198476434937625 -0.34780263770883973 0.29648470416115397
Ni 2.822738112483547 7.067979020787561 3.910871249705927 0.9235538823806482 0.5101796294185857 -0.4173378655955006
Ni 6.1194886711271685 6.8506011337457124 11.447226959177858 0.2976411863631003 -0.8623613700317276 -1.8165648589774326
Ni 8.346506552123026 6.260159188496418 12.692595309594175 -1.6113746287569024 0.9986483495226413 -0.26533836046533654
Ni 8.410292826030387 2.4829263266633004 9.342564780127237 -0.5536186744388273 -0.5180927136180755 1.0211593861409638
P 6.349312887447203 4.999858966604998 12.909094413177638 -1.2813537405115158 0.46575662321852046 -0.7080357878715483
P 4.6090423654405575 2.1847264270610767 11.451205688522283 -0.25132430557443164 1.1459715322230586 0.08098923535987343
P 9.096916876068185 3.350417789974024 7.280902481083252 -1.001988469639468 1.569321408340594 -0.5259762301312103
P 0.9011877820005177 7.578753287680291 2.7495412220710875 0.14788162630704854 1.6096887564140474 0.37171261155721785
P 8.040812789342837 5.207750833052627 1.5030827705639136 0.009414608445680562 0.28080508864236803 0.46329299216937636
P 2.2787581189376436 0.5763525515600373 9.28265576586413 0.5377549679336933 -0.9235289426799838 -0.9245694681293559
P 7.169001881914627 0.563267614811032 9.615948356176885 -0.8758833157775626 -0.2900949985847262 -0.5934617745776941
P 4.5910664029602435 7.235953265735661 6.731738223681684 -0.3275387452534811 0.9074168676094695 -0.4138691903206098
