# total energy = -340890.3405585094 ev
CRYSTAL
PRIMVEC
9.07333825977592 0.00000000000000 0.00000000000000
0.00000000000000 9.07333825977592 0.00000000000000
0.00000000000000 0.00000000000000 13.27974769026779
PRIMCOORD
 96 1
Ni 6.8407978428405745 1.8865193703593357 11.312871043588311 -1.6332912263243353 0.4076751456947559 -0.46780167867300726
Ni 4.830853855226452 0.6314616823665422 6.160766581986576 -1.6129316888313767 -0.8571931955672271 -0.6513100530447299
Ni 2.344196687389841 1.6090476199903996 4.879736463876027 1.1710639564153122 -1.0822575390038651 -0.24166158567368706
Ni 3.6829223473808383 4.610462474419367 4.923665937293712 -1.2319037134105042 0.07204333902049528 0.06786683904530248
Ni 5.066588250646332 4.340821014772395 2.8164748199820906 -0.006210499686086077 0.6789535257936113 0.0666378517342078
Ni 6.922947845385957 6.0044719830418 2.740780497446763 -0.15358073357435487 -0.16964678589828203 -1.359635090021923
Ni 5.144029190752896 4.47529695775065 11.418776859770134 0.24177291444057072 -0.28209501109838514 1.2324891536003288
Ni 5.961972467698021 7.676951309216733 12.665080591229264 -1.9610868247836293 0.052798888968586484 -0.8560593390730998
Ni 1.7689833494875788 6.52713254706038 0.528899391249661 1.010820466108801 0.217224021456613 -0.8597735546998934
Ni 3.098064051150131 1.7620694659068872 0.23743927563616804 -1.8611063930332332 -0.31011077958502076 1.1682092605753367
Ni 0.62897740241327 8.859071154768444 4.551885911415972 0.2952495462024721 0.2865021390271453 0.610757071323032
Ni 8.67930110833243 2.2955998888882867 1.1361969597683057 0.8145051697803972 -0.3985130195795137 1.9375578884237536
Ni 6.8976876723037455 0.7018735074994042 4.995057682934074 -0.10773616443641446 0.605596610168015 -0.9672886042644374
Ni 0.8825009843794801 7.377812427626418 2.565354765260664 0.01653964952623603 1.3626201407921759 -0.547820065479179
Ni 7.569613720293398 3.5825621554044216 3.8298124314550277 -0.1073435569836861 1.5107799604612755 0.7162512338028051
Ni 7.647499253963551 3.7622868351502734 12.913690960650927 0.43912307979139215 -0.5719840643198923 -2.2863663416892885
Ni 7.838311552785 8.671779311103569 7.045795398341883 1.46898822123647 0.6992562419067054 0.17604420478419358
Ni 6.837141287613516 0.8076622776206082 0.20570073919882007 -0.09083167537159197 0.4384363381370126 0.09820817034132119
Ni 1.9894836103510525 6.513758446800617 9.131672337281586 -0.10571013514532117 -0.09274534745453704 0.3687054492997779
Ni 0.023928207059054924 4.952500098226888 1.4673592806101874 -0.1876401371519091 -1.197856136907492 0.9710524421822437
Ni 6.51112717877122 2.02031481298516 7.169629223141932 0.4768529902419982 0.5298166869232231 -1.1900114440520924
Ni 3.396930732599475 4.443730814735917 0.48578379625348206 -0.29330964886728195 -1.032064463089242 0.18819832364822425
Ni 6.155960434830812 5.674837612324575 5.070486156665052 -0.9229998096493909 -0.19038144734247212 -0.5566656887952671
Ni 5.607032557208423 2.9000656686070188 9.264071393184222 -1.4146559263424927 0.054951159424898914 -0.30486470069473304
P 0.13922765010582439 5.467892918481512 12.618734887893549 0.536962811049701 0.37409628129804606 -0.9812640926079229
P 4.057533254724689 6.049711646471365 12.654390384359486 0.8285580483290376 1.2718784540312287 -0.6206833292978085
P 2.579985522837915 8.499521988558383 1.2561510252256982 -0.3905742243484112 0.024817573264312096 -0.876278237223136
P 6.249751530071768 7.8797131942268575 5.904999163524953 -0.6396791536740208 -0.7256424452097181 -1.1176590584316106
P 4.832441689382122 1.2301722437713203 12.461249866998921 1.0553915678509564 -0.10192907083633414 -0.5832485814901182
P 4.0291609266973625 6.238899817785013 7.885421231183043 -0.01901176521581242 -0.8888853844641853 2.7096439698079915
P 4.6677606040939965 1.1174813854088668 3.788512411399133 0.030085763641786896 -0.12574159987489958 1.0028497891984987
P 8.961046400914627 5.867945465668222 3.548812967259093 0.31272353461751945 -1.4666960827681836 1.2709793392557271
Ni 1.6635239415369512 0.8631992723831479 2.461507689478394 -1.378454022500639 1.5784202853180687 0.01348157942620259
Ni 1.714879034800356 6.509675444686035 4.805900360969736 0.5657805066123418 -0.2939323700529454 -0.5890711017091661
Ni 5.948779834198906 5.595817911400371 9.267258856835008 0.7871964546631152 0.6392731764848538 -0.42472155965408137
Ni 8.941330037370216 2.46792979813773 10.025943255756701 0.007733878309147971 -0.5708304103314233 0.4205190915369596
Ni 2.3165955930952693 5.1620942067754125 7.018346736126256 0.6537158342727452 0.5977830276608673 -0.2625613119408317
Ni 0.5260412897694539 0.123322995868824 9.485656825276372 -0.9212918258193488 -0.837468720555106 -0.021240654546331162
Ni 1.5107198557332413 0.8830118133107044 11.825109971542872 0.840449657560301 -0.025687891684407372 -1.8745362932858944
Ni 4.339568894123923 6.989700393290351 1.5292557779996385 -0.34024590840750435 -0.7473867788653451 -0.7853565732408991
Ni 5.708554136452987 7.8062463761784855 8.038430374426285 -1.2085575824853958 -0.45253421099097546 -0.009568617525041585
Ni 5.290291399835243 2.9808093037573786 5.061748532139847 0.5399211223470766 -1.2992162226142336 -0.543353030846761
Ni 0.9389906796354219 7.381323809444957 6.935214998405767 -0.5657607091179998 0.5873924284551625 0.4619030538003851
Ni 4.916959833153962 4.428378726785091 7.000220021405119 1.6693198378131187 0.94687121695035 0.5977334053698544
Ni 8.134193106021684 7.1377591233031135 9.38273885930862 0.39319109314596795 0.1554452975869194 -0.8951570764055099
Ni 4.615788523844388 0.4460625370152253 10.363767221381972 0.07008261574969867 -0.16530959197550885 0.20862753803685358
Ni 7.774054172839517 7.476103898531447 4.4260069562234206 0.4129772746339597 0.25476881247960637 0.3341223120082697
Ni 7.440137186570998 6.348415007836126 6.999197456208868 -0.14441860745911256 -0.9867078893313136 0.9088885670589896
Ni 2.292451440591043 5.208105103937731 2.541558121603079 -0.46339300808235034 -0.19873213330001258 0.6987047402786096
Ni 2.313038844586567 5.350819637849408 11.460966066953203 -0.06315143584750414 -0.5627671737073147 0.22344069179028617
Ni 0.8650103106544156 3.2324038940579 3.548082563547484 0.7236377560748635 0.3754270842943276 -0.2822629041348171
Ni 3.5122619323293582 2.525391247896942 2.678591838572668 -0.35849585575662773 0.7361803686265643 -0.1702571657887713
Ni 0.9064173960990929 3.412418920620788 7.786181596453628 1.1616272364824445 -1.5437070502065995 0.4571195163688127
Ni 3.3714346527284214 2.805684806393956 7.225948339642865 -1.0406511763169883 -0.5347400923667693 -0.3538740407139002
Ni 4.09789146229282 7.143393666221236 6.018793339792146 0.25692134004623496 0.11521113265722092 -1.817328476616335
Ni 0.7955012826557777 7.3896803537728015 11.6856727273285 0.03299650953067866 0.2427237083896142 -1.0941990276364575
P 0.20348956672032328 5.624789079737837 8.140631546689477 0.2011371431970794 0.5035078738253652 0.9336344065451018
P 8.495792846627067 1.4383872049389193 7.985922059898962 0.8967509032551911 1.0611099583919725 0.0936524326498387
P 1.8342025032644964 3.4564155367399136 9.78879432693757 0.989286448691767 0.7967180210003052 0.828496856073799
P 3.7960759459829445 6.239253677968277 3.6070184307369626 1.242872553717182 0.8838871599186454 0.3471256662464731
P 6.989119699656277 3.880585016416752 10.40923734759756 2.003872038269955 1.5290810727633084 0.8381050685875243
P 6.125900465929458 7.778726941926205 10.23593659117865 0.5117976246379831 -0.4280143714727403 0.3261657761653544
P 2.501319682096975 8.606024830382738 5.939619392121392 -0.8728378440830192 0.4698297648466296 -0.8523500085423128
P 6.974393672029686 3.904311795371488 1.6850939880413844 -0.6598096058753089 -0.16393456600485315 0.6018435708834861
Ni 5.186610366138967 2.8945762990974147 0.6814421649180377 0.8662553057694953 -0.006015867176776737 -0.45707015118811606
Ni 1.495812361346002 0.9705296026360571 7.242269460095552 -0.7801585739797274 -0.11960000575353595 -0.5955875626714452
Ni 6.801836929329433 0.5710305290693242 9.088751819053103 0.17357157487398495 0.2754132282028353 1.0705469354351562
Ni 2.5876524934752956 1.3936828684532663 9.336299700591173 -0.05622462682068381 1.6399894642801176 0.45002430008492816
Ni 6.41596600948737 1.898768376703081 2.650385552631335 0.056954305897856744 -0.2734188234806259 -0.13444324141395556
Ni 4.054920133371356 6.888623407609375 10.511451222533998 1.0635131685168264 -0.0399063492766345 -0.6093249668621957
Ni 8.150162180958715 6.982196742737553 0.5577743822039823 -0.2952654870420721 0.8289025761526498 0.13658908411236476
Ni 7.799078439132887 3.84641482538672 8.231398498364234 -1.3513072868825178 0.8496117836755432 0.01554668948534742
Ni 3.2957630135381746 8.29513597604046 12.276117477785759 0.138029158993001 0.22035768198958824 1.615220999086186
Ni 0.10388518380200566 4.8927249472694125 10.43622145490593 -0.4786944143261111 -0.1594184233020545 -0.8550339831323791
Ni 8.942418837934104 2.1547181692591555 5.641634639128798 -0.18314224928155556 0.841785088542273 1.8470190617022317
Ni 3.138785192239559 2.7389322584895623 11.378977569824798 0.832387963598089 0.7268994575452706 -0.33028339787815375
Ni 0.9448066893141928 3.3771054889986734 12.544115755915062 1.1129228292982059 -0.008093318531095739 -0.08127077115603423
Ni 3.247402121825463 8.543545824691606 8.204201167612103 0.7420532824675736 -1.1233813056273685 -1.2997785228756067
Ni 5.382993694512312 8.056734019239054 3.4940608162363564 1.8166538191468133 -0.4502467005083794 0.9377088337247915
Ni 3.1106759910151722 8.387938077435884 3.529477683912041 -0.8865449092564668 -0.14720105530025618 0.8958420182876765
Ni 3.868544696847753 4.558109313972398 9.545057247373109 -2.460491732184214 -0.2813283081356897 -1.4670686356162541
Ni 7.38178654968461 6.276971544168979 11.503222416837714 0.17326381382557904 -1.6295042484780777 -0.2936320652037072
Ni 0.42848022257603346 9.009588759387988 0.3655439206480688 0.17445012082419634 -0.17590227988969062 0.5223383762683069
Ni 4.711421506705923 0.4719859711076058 1.5525352413893767 -0.6812580055570719 -0.34285326412336437 -0.15378333650346418
Ni 6.184105929407328 5.278296446956405 0.21311728570650681 -2.187360100926704 2.1536264561196843 0.9395417731684723
Ni 7.801373993655085 8.714923033447647 11.27531559013839 0.7399933146147514 0.2669105900484629 0.7557348937197241
Ni 0.03978567993828679 4.946965362027122 6.134605426437746 -0.1755397543439493 -0.5902702642235899 -2.4952674451025025
Ni 8.005542246060232 9.045328637897626 2.3047267596150816 0.6086760204242873 -0.43811237913869067 0.7411917057982267
P 8.50044746903769 1.5567851929237546 3.7117819136605052 0.008792144370333245 -1.0436169438135317 -1.9256467388084642
P 1.7046261628237398 3.3547941507769927 1.5140642881319852 0.16909914092492814 -1.2891326131259864 -0.8666299155000946
P 4.606479279023142 1.339006933470002 8.197614831534382 0.022061350675413618 -1.1517742549477648 0.5921345711258382
P 8.69020726064738 1.6163335104304197 12.287510868353047 -0.6153356918326499 -0.4998504795784359 0.5933167643593975
P 6.341047457353813 8.068229938526109 1.3766848769833613 0.5847243947046963 -0.8707382812415133 1.552003485887437
P 1.771033923882902 3.501582613465219 5.58275230463371 0.4336036926350597 0.8424821146092974 1.0283430483735967
P 7.126589844185225 3.9144376406156507 6.041939425112807 -0.9663642926779552 0.127016095711949 0.21993884928461477
P 2.4242961155399008 8.427697444693877 10.224954222824229 -0.5025529661112635 0.11100506499567334 1.216993629067891
