# total energy = -340858.28033175744 ev
CRYSTAL
PRIMVEC
9.35541026231910 0.00000000000000 0.00000000000000

0.00000000000000 9.35541026231910 0.00000000000000

0.00000000000000 0.00000000000000 13.69258857826165

PRIMCOORD
 96 1
Ni 5.9330981900939435 5.035614986235012 8.770431296071791 -0.04144721140119313 0.0436241644478539 -0.2223250901286042
Ni 2.6440540750137904 5.861136375432695 10.219996897612871 -1.5213716199341927 -2.2036788926913853 2.3060003138701317
Ni 0.708285938331263 3.6624840209346856 8.462540071239625 0.7674627236796138 -0.12095600556079812 1.1649850972110838
Ni 9.19097943405649 6.496958113579137 6.0854379463625214 -0.059732639973942285 -0.5742206669598949 -1.7130190784732822
Ni 4.946747945482644 4.203928381766688 10.83584857731211 -1.1368939954018227 0.6646041990504747 0.45649062453556216
Ni 4.757647040679237 0.47465795905044766 2.7147061322579074 -1.2045024385794156 1.3202337054061648 2.130119117026364
Ni 0.041502470384845454 5.786704732499142 12.189511869688799 0.14496111022614389 -0.4748030496915049 0.7276875006642048
Ni 1.009224222360486 3.834735832107711 11.373132587262694 -0.8961078703545534 0.5160278606692469 -1.0254551853028404
Ni 0.27761056888910035 0.9793523978397675 3.5159558454341213 1.6277474136879708 0.4441819823715382 -1.5781492910448691
Ni 0.5637317543665181 6.8756464045123185 0.4720889634308456 0.8593683488416748 1.1783563763116673 -0.5727296842366653
Ni 8.450882294686144 5.651397435899344 8.105546976380214 -0.7909060423042186 -0.029571543009529716 1.1231920724346978
Ni 6.073569673081288 3.068265791602409 12.657607008538408 -0.45427253383832084 0.26100939407267953 0.7049607484906505
Ni 1.5677422066658089 1.5579377368575682 10.775642771010626 0.4876871047430246 0.6564358043070695 -0.7564823134087102
Ni 7.255719296143609 3.587556541264646 10.378516837808284 -2.077083172346307 -3.2772892975432137 -2.3707982841821233
Ni 4.330675478104519 2.6717741552063643 0.726220259535841 -1.2806271467581365 0.13793042863160762 -0.9594647373446444
Ni 2.2283464262264028 2.752118417337254 7.033020306967743 3.8648815007140085 0.5961339220932185 -0.2260094809587269
Ni 7.199633612460016 2.9101874267647707 2.881878891275499 3.1796534547655946 0.2391190217574914 1.2347298700053897
Ni 5.0148366203532335 7.66993943472154 12.587062538510697 -0.1352096872663349 -0.1005239629586914 -0.7483298595049047
Ni 3.2193275988482726 4.916576747838011 7.946014780809559 0.3519143458843681 -0.738461194240941 -0.04724324925767993
Ni 0.469632232732712 1.6915329934049719 6.719295048383269 -2.6496220807284043 -1.227040471780932 -1.0727927940465394
Ni 7.497846665520594 6.557019846564735 4.136380449601172 -1.1180951175277647 -0.8705919854716361 -1.4593540405808156
Ni 7.76048109388581 7.822310999384534 12.481122809826022 0.09029045815614127 0.2598997059482685 0.46368508540147235
Ni 6.926867274932278 5.578097797590597 13.315234336598063 1.5611481285011823 -0.6197106809718941 -0.9455283297692103
Ni 5.665627014695465 8.867843568429928 1.0961734040377669 0.5402677070532179 -3.7301276700381694 -2.795541955323392
P 8.56540186999404 1.7739073795324152 1.5826163732193606 1.317070734297151 -1.8858280641496297 1.1011021825141938
P 2.7733458429049054 1.2208997317891668 8.86073439227794 -0.10441327071076857 0.662497180009801 -0.4016057995722245
P 5.969238139396648 5.64023643162336 5.1821384840305145 -1.522025708578424 -1.0326920693709118 1.9638070519282695
P 3.6073806553139427 0.5311403121232274 0.631718455266773 0.8598095501441515 -0.7971790197971238 0.18623708615679538
P 0.46654588293334304 9.21930761590702 11.194485417730018 -0.8748253068266933 -1.1357889352631019 2.174473731882339
P 9.165747892956468 5.418008019576649 3.940138560251361 0.33087706559809466 -1.9593508159291289 0.49076060146202577
P 4.639591120345084 7.76427939039549 3.79554414802309 -1.1902549275214662 2.3521408169819362 0.42720601663883195
P 8.322058297301147 7.992673017712842 7.459188239812949 -0.2953606178590397 -0.0877635779692295 -0.05589038340971665
Ni 0.5158114726377288 3.517465808627871 2.5712624354746874 0.6209887763533692 -0.11332677115031449 0.36023494993492156
Ni 7.7121229789632935 0.13946109869412812 10.470913674799819 -0.7822897613901172 0.2731966801674908 0.5471695763793737
Ni 2.2145004192452995 4.137112042672742 13.455993966217177 0.4230703972039036 1.4815568019301 1.6728286222973254
Ni 6.3693596749201715 6.118980833815258 1.8204982574828161 0.111876154746717 1.1453292706533695 -0.3819111493567745
Ni 8.728588288758491 3.511543834020413 0.5300129852034822 -0.8606389880239823 1.7123009693603348 -1.2073373369250495
Ni 3.022003288547303 9.383102136329425 4.306894025573461 -0.6708252402595222 -0.18845517685403673 0.3972092131664256
Ni 5.175871294789541 9.007379510405034 10.100721031798761 -0.017049242172802896 -0.90716978459567 -0.008717325268339824
Ni 2.7872854039872323 2.567218091678788 3.257289046501802 -0.9083386080927904 0.6132929503710083 -0.013250180141686859
Ni 6.3939550481318745 2.687949659307937 7.078876785223538 1.0507173023037386 -0.20123587355847278 -0.5316503976978522
Ni 3.507595850948774 7.122545033051712 1.377324060117171 1.409423988519592 -0.9012739879365251 -0.14225862369331627
Ni 6.29513385100931 7.0571507162963645 7.058542801322573 1.3745369468344197 -2.1132809624231026 0.5243104123930131
Ni 8.856963226457616 0.5167348516168064 8.461444552714296 0.013004382679467926 -1.0620162722563258 -1.6375957672369603
Ni 4.788894110487943 5.795143312429516 3.3528629807708934 -1.7062439645329774 -1.486211784203608 0.15385198495787053
Ni 0.9195180013201434 2.216586675702587 13.052651362988522 -0.12047958014501187 -0.8534501835850271 -0.6128134396314284
Ni 5.1028897404249545 3.34420361316163 2.8449643140146628 -3.6090089136472616 -0.3384875309555009 3.1251165000599794
Ni -0.22308910977796867 7.299193886982249 10.386718725862563 2.042314915627186 1.2593170724264504 0.06047028947091521
Ni 6.164242307987271 1.3410980410413407 4.682276114569397 0.7656004736598944 0.022027412113684645 0.45723341623885766
Ni 0.5316146314164315 8.705920130031995 5.656599979468392 0.7029773995120345 1.868424009740569 1.4507351885635533
Ni 7.89149425723944 1.4936099368561708 12.519243299451633 1.0083858885253794 0.011010749288206842 0.4022745435044749
Ni 3.534726540303639 6.428298758691085 6.295770018897631 1.8442165592564301 0.7830220115704515 0.35104377035395673
Ni 2.504115850403421 8.67783518884465 6.749391402746924 0.6616865111830476 0.09688250955136218 0.9058014434932335
Ni 3.7274947658750155 0.7727905555839727 11.820250089994916 1.0099758587203187 1.4872142573261935 0.7841666666978558
Ni 4.690372286489294 5.362726901163581 13.735857317863744 -0.46635749002731297 -0.9733080709856399 0.18463528888731426
Ni 4.23602679389653 4.0639153138753406 5.578620765016437 0.28872382926881246 0.09499634827224285 -0.2762758333134468
P 4.097604145725985 1.9805309674950176 4.719301085669677 0.13258227694581684 0.8634265780714485 -2.5152058358976426
P 8.281100311785423 3.5815690787863317 7.574657389248266 -2.2607931212058743 -0.28274627152913884 -1.9819502984961996
P 1.6743845266506727 5.29114865831735 6.053753043360089 0.9845623037432205 -0.2705111629155276 0.7846369214660551
P 7.90840883874068 7.760752400779358 1.0865607201370346 -0.5268959137320023 0.004892809315927058 -0.09394553841022531
P 8.143482228885402 3.722555109330405 12.15339063120634 1.4715876065325302 1.1175505578782043 1.8086895699944139
P 4.4514444673741576 2.9846284251084465 7.598113273507066 -1.7003826206561943 1.816247070626698 1.2406837735959793
P 6.162427358423531 3.977237439091608 1.2676271987273542 0.9507204154931109 1.2342873831513324 -2.5630208984983924
P 8.365196093375381 1.622237470628598 4.971819509069578 -0.7455659236065224 0.5338294076270419 1.322673168085593
Ni 2.7250532158532454 3.531985405137785 9.735334262977563 1.2058309275828525 -1.7529020307111487 0.20812000227281577
Ni 8.666009950449977 5.583177785287043 1.7580462172109537 -0.8808393742312571 -0.329524151114626 0.7484704988478271
Ni 2.861006035751486 8.171885254016908 10.877296786318244 0.04190049688852784 -0.6189730314749211 0.8736030043838181
Ni 2.3625684952520056 6.959367969697382 4.480844779224709 -0.0038432850054901557 1.613725388377266 0.10265386481750062
Ni 7.676394667705973 4.0279531173649605 5.164501664867828 0.040985955494058444 0.12428635548561176 0.3099007204567437
Ni 7.130618751987314 7.362221284976637 9.391362963467476 -1.7676856167782267 1.3804885364321644 -1.3764503618070487
Ni 5.238674162940992 2.014051401963459 9.467699367901941 -0.5020276897354128 0.5114903778102095 -0.24100441170566236
Ni 6.524341399007307 0.35788372990306005 7.77970459060525 0.3342647511234049 -0.6384082573813972 0.17851863446661512
Ni 7.657861600253564 5.6183447719370205 10.686928223443253 -1.0328095687853827 1.1074813465676605 1.0785872892411295
Ni 5.135979826027767 8.487115798090072 5.967134107660128 0.45809550712883684 -1.0762054192725143 -6.042887928339954
Ni 1.3861162745501716 8.888490958569992 9.28406763585607 1.2395730570303038 -0.24765482714264445 -1.3308719018463013
Ni 6.435455647434696 1.498044401254173 1.2507303925053468 0.22955606065940468 1.5499018661634019 -1.3414882439095672
Ni 1.7679199170541002 8.287695875921692 1.9261498395357213 -0.8559217850539711 2.0155219638040576 1.011073976880504
Ni 1.4602672551800544 5.892823149517152 2.8219050991450523 0.9537825993582026 -0.1382459029894974 -2.3463715185983265
Ni 1.996416453882797 1.6503224118159443 1.3536932296890836 -1.0143001971272854 -0.5686352024523175 0.15642205967789188
Ni 7.360836684278527 -0.0003031152879646979 3.0027161750390308 0.45323483660242586 -0.02540172790255625 -1.2861861289031526
Ni 1.392842814428154 6.7068373842643245 7.999799033603049 -0.34874391857618653 -0.3931535550398132 -0.04015420362138246
Ni 0.8752126500626367 3.491934894403931 4.9758732082755985 -0.21467245867935286 0.21895823053890032 0.21158482089296463
Ni 2.3149307469089115 8.65178972706398 13.097700469350757 -0.7811458775936612 -0.7104089160894153 0.5919445666022192
Ni 3.579174093795005 7.132564677292766 8.939822222829397 2.915729458149282 2.411494476349905 -2.659574563955426
Ni -0.007583495445190867 9.591727782058214 0.32327151907333807 0.344795989672032 -1.6112260189941798 0.4384031709062321
Ni 7.636746439607381 8.452238829153886 5.129777189116638 -1.2585547403391293 2.018898850696091 2.420257824364832
Ni 4.217821165798403 1.0235567106679526 6.436187240506265 -0.6780063313889936 2.4072272164331188 2.584256410838401
Ni 0.08475908016763475 7.932274489962839 3.7003257193386485 0.26148453393688514 -1.3006475557441213 -2.2818987928362375
P 4.619692163014809 8.764578551499238 7.817262820082505 -1.0867340867179802 -1.295884072917207 4.376104998016077
P 3.0066510605364987 6.376750448916841 12.94787544732307 -1.183982207138877 1.2134776454948326 -0.3859575515120062
P 5.361192613903513 6.472952131205144 10.559326978161252 -0.09217327700115092 0.1936801726984019 -0.32596394456719346
P 5.923686647510842 0.7930122745634695 12.275638710816326 -0.43929868613730794 -1.2706407249693858 -0.663804843077631
P 3.0846845363671638 2.9988580039045667 11.906115915180028 0.880667110319451 -0.5590519296392565 -0.7687310488690761
P 2.8459625362747194 4.434473753412184 2.0023496549824027 0.643468188402808 -0.7578732802189657 -0.2826840508326357
P 0.5759733085116356 5.358301792175701 9.739305634574507 0.34564136839146276 0.7639354272526456 1.0009528292861019
P 8.612796377673954 2.1216573291909273 9.670281418691683 0.6692576386620861 0.5703205605745404 0.8106235753378039
