# total energy = -340865.71666785603 ev
CRYSTAL
PRIMVEC
9.32612816397078 0.00000000000000 0.00000000000000

0.00000000000000 9.32612816397078 0.00000000000000

0.00000000000000 0.00000000000000 13.64973126745190

PRIMCOORD
 96 1
Ni 8.890075656027232 5.803043319263593 2.066842520671802 0.22514327630368966 -1.0182573820028205 1.2735689543597744
Ni 1.7673012752423938 3.4094738897463857 8.57455595532145 -0.07823429832255557 0.8787318409699513 -0.7424515463472567
Ni 0.3198750025292022 7.329170921800086 3.8996328000560405 2.1762202822598002 -0.4010039043221675 -0.6480735483853033
Ni 8.221550815324328 2.2488372475093623 5.05849468011534 1.239209503043298 0.1510080877511722 0.06097679679368853
Ni 7.181193247212904 8.143677645676442 8.41419971090509 0.2765748526111043 0.43387700090110437 -0.011696976721954048
Ni 4.665041189929015 7.634536334228907 8.682130045134318 -0.36153078592820964 -1.1364728487040041 0.03702825639789106
Ni 6.7084051831051825 2.4167541839776434 0.7756382197875566 1.1739991277842363 0.45121214974544227 0.4776142938880549
Ni 3.8933693724230443 3.4153493504503576 12.480276851802179 0.67891110259145 -0.3556175057675682 0.39822068515007547
Ni 2.9686744450269567 4.827548972098401 10.547611201352897 1.78555169842537 0.613660361012756 -1.8891951808496497
Ni 6.151514095777746 2.1274017334991715 12.13110288522917 -0.07624117915192677 -1.7027526635502674 -0.27679005394570394
Ni 8.79807340230551 0.5681766349431129 0.6005187145864538 -0.17901460026642715 1.9265980469781399 -1.304981921453417
Ni 0.3795874029249514 6.607552433815097 8.360078324306215 -1.907995344275288 -0.13939955697796638 -0.5395043465246322
Ni 3.048823189931617 4.532889954730151 5.770301148724696 -0.5195785541349826 -2.375148847841335 -0.9176118058646003
Ni 5.3654800409954 5.024572754371598 5.740722400837843 1.3632711441126135 2.068533483004083 0.8766250790395935
Ni 1.8245357234015631 6.197435950549744 12.054637028311808 -0.3944568472322691 0.4487500613581949 0.5887905943542698
Ni 6.680212297854218 2.9879608779409477 6.62147074739384 -1.1464014206716258 0.08513796742092433 -0.5333303565034363
Ni 6.161138659978539 7.093322468240165 2.9194595344223044 -0.41535605927878144 0.15193368488923512 -0.27714358063038075
Ni 4.371575916957762 4.913731721884759 7.983645950518016 0.3366877587426008 -0.3741091368138525 0.7633309608994273
Ni 8.402794788849713 6.94296663098709 10.1434699683622 0.5332750777854686 0.6116443590239917 1.4575884640399606
Ni 0.9747109524046625 0.9800734760630497 8.424832429553659 0.5516399534459016 0.23645124511734117 -1.0527705852883418
Ni 5.568780307480935 1.0721503388095834 7.970870087631713 -1.2093834208208012 0.6968576597675419 0.8597468152270162
Ni 7.88278853816388 8.542891885191091 12.323236978538725 -1.1416726477373886 -1.063132645248956 0.0162974516084429
Ni 5.482625536078881 0.2217604044497295 3.1375407813359755 1.6680751667727403 1.0680272543370959 -1.3251157160888147
Ni 6.986939324985865 5.911086513319969 0.7924093959525614 -1.1151113523090925 -1.1276364813592967 -1.1958879574375274
P 2.3440476892980144 6.825550678188664 4.463271341064942 0.4463738478165345 -1.8625194713306763 0.40952813974309465
P 4.258058285705781 6.3119048468680825 1.2790989866084426 0.8120505375923176 0.002649007587072857 2.7102456079477326
P 4.1830295851288675 2.8369615378488655 7.199632867695275 -0.28669600020550623 -0.31098032667416764 -0.34833408473227756
P 8.624859225075554 2.0878682764767307 12.707066837137072 -1.2768730790323428 0.49046749570163917 -1.3428882095808874
P 1.7323749255021155 9.330791165593746 13.572705923555755 0.5678782696816349 -0.798519078764786 -2.0260107791505235
P 4.557734759992661 6.457439075892661 10.686619938544824 -0.4261292386348855 0.10910450553885082 0.7875245274264954
P 0.35651176416330366 0.22419825433547283 6.26848892271697 -0.5831513937906214 0.041416358163257706 0.5955793351413291
P 4.984022749386089 0.025150702264241098 12.391717804575546 0.6312217669352871 0.5648284271117175 0.8528693713808925
Ni 4.18963248382476 2.680170672205725 9.78243503206965 -0.93522643362257 -0.7952491497642626 -1.1795162009477236
Ni 3.7348345208249154 8.347994460125047 1.2804158358963804 -1.5641097822326675 0.8919275137246188 0.36600861919390515
Ni 7.179850284766281 0.23487014272206846 6.464785266998247 0.44542665341191673 0.9688186677557186 -1.2536773576421698
Ni 8.111521155982322 8.984810465282706 4.032744626449364 -1.1866836652304402 -0.4972611215847049 1.553565173947602
Ni -0.4889894138457216 7.733318683080451 0.8453780731180849 0.9868580417559326 -2.759377332477377 -1.0201026627416754
Ni 3.7844588484532258 8.376047453454488 3.904396586290309 1.711101549735595 -3.0714115543373555 -1.0346270816100955
Ni 2.761671705685109 2.6819146581607134 1.883431154975617 1.141103662607796 0.11578114622807802 0.5062864650117668
Ni 1.8164313180813223 7.516821945331232 9.777029608221996 0.8312307100651942 0.33516206612669375 1.3572365078827593
Ni 3.3218828946166936 0.06363683510087849 9.555562976807465 -0.26677766401502445 1.1655201437789475 0.08433784011713216
Ni 7.850231024961394 0.9787864703850369 10.619586527589364 -1.2725016894375245 -0.5486721290668292 0.8846916580978119
Ni 0.8328633418186244 1.0506536135355269 4.139021451843307 -2.2785224201648373 2.1992424541865865 -0.9651543315302539
Ni -0.16296289722074167 4.686332740384838 4.791369190741276 0.025184212575111466 0.6942500469413656 -0.7612967040782179
Ni 5.627152543268493 4.070118152203487 10.956993718336657 -0.15756002993707702 2.808501086587221 -0.6797192003150423
Ni 2.0432800580232535 8.98423224534041 4.924058543531598 0.5309978517155177 -2.48340103268222 2.86437604337797
Ni 2.437579428028389 1.8745983790506457 5.991590583705298 -1.6385586453708618 1.7136857655230033 0.7119870592098125
Ni 5.849869808461441 7.9485843719202665 0.41546874818282786 0.6521649448458575 1.010022652797854 -0.36297805989769744
Ni 1.173870418013113 2.1633353050744164 13.8473790484024 0.1957313988004758 0.2801468862330788 -0.46142482861238593
Ni 5.773479493181702 8.920189723667114 10.35773030059267 -0.05840646496335103 0.1636214056398085 0.8781052631295457
Ni 5.892079864249024 7.585135833675034 5.510382891147504 -0.17086266058325414 0.9090068378044087 -0.8383907181487432
Ni 5.05849188227691 3.072436946284724 2.62138995200732 0.9346970434816612 -0.2947489524169698 -1.667244443341329
Ni 3.9975702017015844 5.350409017983306 3.565145620017341 0.44904085312573633 0.671135058190457 -0.6629337533265874
Ni 7.150239828043882 4.097210554338469 8.604517074460468 0.6631936918561933 0.02083056359210606 0.9104998774101675
Ni 2.8744898773294745 1.2874346799056016 12.170537485293734 0.8180736038579459 -0.7596267725749628 -0.48163035702598345
Ni 1.4045708488609814 9.179222931687471 1.8836223406016988 0.1648334236700387 -0.12231329091964097 2.489771712095254
P 2.3433762080747034 5.6792482948437115 8.465713512086772 -0.19300320123603534 0.12352685161176791 0.25587335839769476
P 2.095245243805051 1.9625624193043993 10.128182579178153 0.9449104936795533 -0.5888918958188245 0.735067852288676
P 6.236782885010154 1.5991045549310663 4.620652550616911 0.8508484842961218 -0.1879090745425796 0.28278818051066784
P 9.00992572826016 3.664422253658266 6.838037431103819 0.5600004095954549 -2.5013941268255304 0.9762509556640478
P 8.991133580135552 6.091369895650897 12.408247434022723 -0.4224875281172401 0.2307436532096026 -0.02573005777625246
P 6.40599615328455 2.415457852171529 9.83109597066507 -0.45679324337764554 -0.4650040613232121 -0.19886480222313493
P 1.2489550753586354 3.2211607111200298 4.369183765099716 1.551593909153844 -0.6207211245142794 1.1438647702927012
P 7.511459421672845 8.827432053569169 1.9580672255594556 -2.2520665399661537 -0.49757582461164634 0.1555095751659515
Ni 4.8122354697556675 3.214688378217559 4.7514990604943685 -0.5882547764554579 -1.5547545662700126 0.906624196504845
Ni 0.4349668842047238 2.593363071836563 2.491417300332976 0.6332259418495094 1.9668556089466063 -1.2811454811554517
Ni 1.8197327674292685 3.6603840401902974 12.08136384622521 -2.3881707140223 -0.27094028003314624 0.9378584719287784
Ni 4.283182874811337 0.8067212721371892 5.460560849603441 2.1340256511696216 0.39366623301017367 -1.360224901087122
Ni 2.1386117394772257 6.372589962424823 0.7961379819675583 -0.23416476307600964 0.3896985066116772 0.18543824440458384
Ni 8.177372946507319 5.479062955144092 6.717865607451387 -2.602372917933454 0.25758339911026606 1.2964941956973801
Ni 2.120304550013897 8.15484102101399 7.347704736176283 -0.25176190733248255 1.2160554335243379 0.5834527270811242
Ni 0.5499114130562409 4.966405693402275 10.476277512729814 -0.31183290448245005 1.0462304701769787 -1.1680385393254271
Ni 1.3259422628368724 5.820818919425133 6.4970947051932315 -0.31192700685815317 0.18512328426732633 -1.4215225715553388
Ni 7.960559120402647 1.451639817389469 2.722684759769419 -2.4663733877759717 0.9169836853622982 0.0460253176901788
Ni 0.5000110320361251 0.32856415608140976 11.634511744367881 1.9157042828837716 -0.03799781940001198 0.7117034665311227
Ni 6.886403664051232 6.126137701213448 11.782502475534406 -1.0300841994344194 1.264480361794945 1.253379623896093
Ni 1.593536856454445 4.904013896402952 2.928072213724079 0.797903042447342 0.29057630909651894 0.8617412199492256
Ni 7.942130691273999 4.120441939439413 11.655874173397274 0.09468061680403693 -0.7911464404497988 0.4335908371192533
Ni 4.857569778457268 1.0688115849492312 0.8065804476028559 -0.7057166528200683 0.1740605986952615 -0.7818339047996212
Ni 8.662359586171856 4.011661981263016 13.987561945122314 1.3686488634847591 0.17442775222669313 -0.45587921620380845
Ni 6.302392196204509 6.074125884791144 9.54012450434817 -0.1398250745511592 0.021749990082581896 -1.1623080645995532
Ni 4.662373917291974 5.942869957890028 12.949240270775457 0.059772234962626083 -0.62772429530499 -1.2000588009857656
Ni 7.802621141003017 1.6303843885836415 8.402624120705454 1.4967237394785255 0.0791606667915669 -0.9987491367665637
Ni 3.3182550307851937 7.99992470711926 11.816053221379706 0.453251034552342 0.41062831478580897 0.02862563415649264
Ni 3.6067121729659184 6.644344009175684 6.369933881141503 0.5743844462312688 1.524325046135562 -0.22619999970297816
Ni 6.9426122381192314 4.688188639877044 3.8262109913510236 -1.651723979108226 0.9555420052514704 1.2529705613831323
Ni 0.10755637016947482 2.688620144265723 10.599875755846753 0.6189452635607792 -0.7562935944366717 -0.6457762677106943
Ni 8.545894898439789 7.546581620103256 6.30251809893388 0.9186430753425922 2.3217961432518077 -0.5826839672358997
P 4.2834626586543845 8.927091058462256 7.075706344869161 -1.3155992919579471 -1.3430108512016805 0.5599037361165906
P 5.716692699171407 3.974021728245188 13.289624361612761 1.076914529524397 0.7957042350238104 0.2786150229695846
P 3.2049052698390406 0.8866872249310593 2.9924849826830067 0.1433989079453466 -0.27506895748953913 -0.6616191482802218
P 7.742402331851354 6.734163948921644 4.43139929827792 -1.1666162050566038 -1.2701051641808903 -0.0342316674893604
P -0.13174741385206715 8.946955711318543 9.54569406805041 -0.6868043892965978 -1.5673532288706298 0.23657980027540546
P 1.676185003690319 4.29220124068553 0.8470017520205636 -0.5949134194225562 -0.5121722343685825 -0.9984884269060094
P 6.177459384156239 6.433433622159289 7.240964402215693 0.16054405226606544 -0.860460296354273 1.714774370601492
P 7.756941765561659 3.7782569732656994 2.2331236542710724 0.04768856432521464 -0.9913248192780345 -0.605696368970673
