# total energy = -340870.76864589995 ev
CRYSTAL
PRIMVEC
9.20145403042103 0.00000000000000 0.00000000000000

0.00000000000000 9.20145403042103 0.00000000000000

0.00000000000000 0.00000000000000 13.46725807074799

PRIMCOORD
 96 1
Ni 7.182084464204583 0.29144133157967633 3.692156089427236 0.05463568506700914 -0.13753293608287284 0.17595318773228405
Ni 4.100950004265032 7.101350907236273 4.2246515907495175 1.484839843556746 0.48243639786704656 0.06022706311185757
Ni 6.802874143965467 7.1434107532474584 3.4907270609803156 -1.1493250220763238 0.2802034505026271 -0.3753427521106375
Ni 2.092539448870678 8.186073507733907 8.349781175707657 -0.5852949224961855 -0.37665967114984805 0.7529017951463033
Ni 7.867243128322924 4.412299601613643 4.923669484809238 0.376911382149338 0.070089300617918 -2.7747088206281245
Ni 3.0048360037757456 1.1478813804190464 8.351800894849958 0.1179231322717453 0.6880233493053635 0.3793325899963209
Ni 1.4121103320832815 8.473591339348767 6.167614044479386 -0.4644697860862969 -0.29213696871541944 -1.600075144583683
Ni 0.18555560023561082 1.4037278075336885 6.65888611195465 0.9511968409088973 0.4535387409960898 1.3582276681514351
Ni 4.6216878877284 4.394964062369479 13.210315804375757 -0.8043855648478921 2.304092555324458 0.2416459019444032
Ni 8.307652318791837 2.599346331051845 13.026878378839724 -0.42260297064918184 -1.4214508377771389 0.4834008186628449
Ni 1.2313109633950745 8.882457945672778 0.1483283578396238 -0.23580255578974876 -0.07008621529412445 0.415175310726543
Ni 0.9196347144311936 6.453264901087538 0.7986917238412945 -0.43745109140560795 -0.6707103119482125 -0.3781090020018649
Ni 4.789365983082117 3.6816949564300545 4.897840083422671 0.829960327993203 2.5571608401731893 0.9407255090639283
Ni 4.749440874387623 6.037598420293549 1.805326185381603 0.5536186744388273 -1.4754352624133946 1.6648186075086555
Ni 6.56062746579078 8.299021354985559 9.938109472556818 -0.9630840792647865 0.7148821213694204 0.32399319399406784
Ni 0.36932519825928306 6.082170263233428 3.2448007213705217 -0.7239185205400759 0.38730403823757165 -0.08595120735083905
Ni 1.161149877016756 5.753917594976361 8.253664628023639 -0.08618852017262577 -0.1919012264211082 -0.7953219119837271
Ni 5.87584606128444 0.9306718584457238 1.7287111992018744 -0.060365902682567 0.32327354221922394 -1.7090829766436695
Ni 2.941934864564967 2.479994271850118 10.724287219024404 0.09814800652734709 0.6682286831769395 0.14530023873311748
Ni 5.91382966319522 7.76785822419542 1.2863200155518617 2.330869823418302 2.9866319986971144 1.3914854017633005
Ni 3.4160305779494236 5.374274806401536 5.746950254044471 0.23015564191661655 -0.08674927777210223 0.46872933269359923
Ni 7.248141702120642 3.0839317019407324 8.555587335799189 0.01951647276637284 -1.9294506859355864 -0.3317934067647769
Ni 2.9803509348114563 2.661170900150327 3.131016461954699 -2.0588905605976797 -0.48377054329743785 0.2747077174953785
Ni 4.940932332567188 1.8833627961968005 3.7785356585400365 1.6702053257418654 -2.1994188318634507 -1.1463230020252064
P 7.850524086493494 2.981096252581508 3.1905682719272206 0.31132871115252186 0.013665156191918403 0.8441057662556495
P 5.846999503147256 2.589841229120199 6.6420649339863616 0.03935741875169996 -1.1846810329781146 -0.49956405868626874
P 5.882903576465053 6.041352613505661 5.2698318630370276 -0.9283528464311884 -0.3845825255413506 -0.5876914477528201
P 1.26090283930231 3.609647571991729 12.57109263867287 -0.5019538990746838 -0.2188798118924811 -0.14842515751534438
P 2.29493462998248 0.00037357903042094817 10.54157670835052 -0.06872198795674617 0.055949518782426225 -1.3126111558639006
P 7.482162280462908 0.37562175319812674 13.36210574919184 -0.5763179158085558 1.9618512137534792 -0.10281353032381649
P 3.7900880839758373 1.045552011027141 13.022770849795883 0.015710725867037457 -4.023690572566839 -3.741079798174299
P 8.406374718234849 9.139592576340595 5.506303708711908 -0.453265175619729 -1.760834655294664 -0.390333826202831
Ni 5.513354782874754 8.692622749204439 12.52255680937079 1.7479948232175184 1.1123109067458197 0.14168706746056242
Ni 8.830248895953357 8.096506554972391 9.071086831528108 -0.1761655608534063 -2.0197362589957217 -0.6021865560452017
Ni 2.339331645297285 6.888364852626576 10.35609287945573 -0.5183688500975976 0.2874462481079694 -0.41611427760104464
Ni 0.4157474535887591 0.9725108695620797 9.465084808412286 0.9343990526252682 1.6506551715240798 -1.0891085004874275
Ni 6.525855171308987 4.6435413408626305 6.863924870786648 -2.1937978861322476 1.6931434225952777 0.05480769186849916
Ni 4.60944075251928 6.858064464765094 7.070471747921257 0.058427033788641315 -0.12246344334426007 -1.0334166062417622
Ni 8.57693286867531 4.031837883637157 6.833124843975612 4.196553037188941 -0.8801742298434325 3.2034299883599022
Ni 6.489748666004264 6.1898180730091585 0.01564431200792355 -1.3776780635665629 -3.332414520652132 -1.3428547852397907
Ni 3.6377948196286174 1.8065674615196272 5.933121431549421 -1.1941205811244597 0.7098059923980936 0.4618359480078756
Ni 5.490829623602082 0.4104400549496753 5.60091121794792 0.2711724506486104 -0.5184763222097393 -1.0644963583657021
Ni 6.1407651219950194 6.3308579591739935 8.816784408386486 1.0384839934623404 -1.2485258953482177 0.058535020121415315
Ni 6.5379918890706925 4.743340310417941 3.1104650145545714 -1.0662845606143765 0.15233709097524087 -0.7513606759114286
Ni 5.410436520429968 0.37614715621874345 7.901630802029554 -0.9425998432685058 2.752903808937891 1.6073850479815348
Ni 0.8974316060468155 3.833408529178345 3.36379760444973 -1.4791744177408526 -1.1190649376402018 1.443892711720423
Ni 1.86598124968288 4.266594578295522 1.3923529701591473 0.8325831103280307 0.399691356158331 -2.2965425108913418
Ni 1.1067324783490347 1.4405612277005617 11.69278533451834 -0.15327965739416827 0.5744106714835139 1.6064566226299946
Ni 3.254480650927242 8.11204781069606 12.314488011752644 -0.8119700620633694 -0.43979465193712 -0.8155999455064727
Ni 5.263397286288916 2.5448001120288066 11.987394726693434 -1.5361891445629996 -0.6174434822042721 -0.43203249149319795
Ni 8.574117223766226 4.016324232275341 1.3686905111781 0.23184485669358137 1.142452720436523 1.0234376406521795
Ni 8.234390342431945 1.4552927554765207 1.7793753248028787 0.5981992892626794 -0.26820848292428 -0.8293093246727653
Ni 2.9265500335584687 5.207167201192797 3.3361766799788533 -0.7039266507991813 0.19755559649340815 0.4037511280500014
Ni 7.223895870959085 6.542546608776564 11.211774728489518 -1.3593039319347493 0.7388054649542373 1.1072239791412157
Ni 8.165112595632948 7.6437122074850885 13.38475788852904 1.4694147672509275 0.37363579672185976 -0.046876095726248304
Ni 6.497450282961464 4.321168401680415 10.254091081824487 -1.7936743275325044 0.07332683371860921 1.169260070437354
P 5.088882510649415 6.915637962138096 11.339417297701324 -0.7784403057370399 -0.3365615175773817 -0.8081679147084597
P 4.466551374110242 3.994268347154183 2.422328759937604 1.018282064593169 -0.836442593283437 0.08137181551027275
P 5.037096727811752 8.875529250847482 3.232572909214699 0.7641300597619549 -0.397679982155257 0.12190834217173845
P 7.42073337388433 0.7124464959561825 8.9272294601634 0.8640138180334862 0.5401106126500633 -0.8951563050745616
P 1.9131479026370124 7.105077496086531 4.35214601655271 0.04969248212912087 -0.036990718291736294 1.3225060463801093
P 9.577333345163645 3.1920487858679776 8.963752791332114 -1.6736428906685046 0.7559194989267046 0.8747689996674612
P 3.5578065804303587 8.80547858191658 6.703286807851035 -0.14667449337282482 0.5749683437591969 -0.04722268043238965
P 4.65879735151381 2.6419214584843016 9.469017509831051 0.36556716078111234 0.2619175077092457 0.6356867446851762
Ni 8.676372981526521 9.062226751518445 11.321910611413667 -0.7581005657384234 -0.7001427582767168 1.4097746869907912
Ni 0.35666491776775144 1.5130318790206452 4.055503103054389 0.3876321110009518 -0.44885599080843985 0.3062626094835242
Ni 6.699992687336486 8.084599873559467 7.066458993853114 2.453972185898141 -1.3173412143497183 -0.26377975772896506
Ni 1.7256314725643893 3.109217297398781 7.440000298312862 1.993411505058264 0.8568370977793889 0.5238607264501043
Ni 4.356143128149134 7.922267822951428 9.14977582542845 -0.7830029854070579 -2.2719008010832615 0.10194809699972765
Ni 6.862600781563062 1.3414891730074006 10.937177578513007 0.570819611698146 0.11938686130146534 -0.09529433912863589
Ni 3.8664877561331066 2.4414861870641165 0.7840586516226139 -0.3509645803765891 2.742108260984284 3.4708059480805575
Ni 2.2281228728424183 7.670009962877776 2.2019907436208546 -0.6688107809326546 -0.681555996413465 2.384394534809319
Ni 7.551246796728929 1.9605077861241214 5.291999085750996 -1.7866066220524457 1.7738675772192223 0.21777346620217977
Ni 2.2950910546996517 5.589892476841292 12.232108314672452 0.3613546653616615 0.20217869708771632 2.7985452609260904
Ni 8.480234789101573 3.273647279507706 10.90345609007245 1.0400670216787444 -0.22911460224661187 -1.064426167249399
Ni 8.939056088926947 8.361609644761995 2.371516490927984 -0.5836877259100657 -0.6731826847481052 -0.19700460908594458
Ni 1.3082075140657115 2.0344414686224543 0.7764453686233456 0.43136349045063127 -0.44119924559413043 0.3513073084279885
Ni 1.4254248359507475 4.531973711703665 10.477930251369692 0.027762257714932834 -1.1138947062931719 -1.1114107635290538
Ni 3.8695610417528257 8.62620665458428 1.083908271822947 0.13894267194620585 1.3353430502437778 -0.32616911859946407
Ni 7.93496582940416 6.719076502831388 5.449041220482458 1.4363979460052745 0.8773745556111083 0.5700565082798764
Ni 1.2118958955579267 5.105334710314259 5.454751642804607 -1.296959822479889 0.4253532797008094 0.15625828040651796
Ni 4.186127863491799 4.916907336300461 10.633975868638233 -0.604572796889191 0.21179513713155781 -0.66476257900521
Ni 6.15360115025702 3.217564417674807 1.121254212974905 0.834089519670228 0.07366673355653121 0.29713185082684956
Ni 8.47163142965715 5.516372859770765 9.79316080875349 1.3961056741441311 -0.2226153676755134 -2.279686615676267
Ni 8.56789704089518 5.358144657624987 12.713967294755584 1.729608607400847 -1.7991626043405853 -0.7172899594799645
Ni 3.0704975791719007 0.10672674423521025 4.048958108858861 -0.7576061426005082 0.4369942063738474 0.13348087750068624
Ni 4.462456727101934 0.5044347473525341 10.37395014113893 0.43434854122088423 2.189009463604669 1.5793235138586286
Ni 4.270946866014466 3.8776123139601735 7.560424326899911 -0.5924027371855605 -0.003369944913497422 0.8219981357233327
P 1.4514281448169937 0.4405858583847765 2.522726744145141 0.1404835340707645 1.5052551739883044 -1.4914750894850766
P 8.371455200489837 6.512917927053524 7.528951673805039 -0.43347539458731155 -0.7148047311642658 1.234446534437016
P 7.852796845619454 6.26901498716761 1.7968019584411603 0.4707790161337763 -0.03817085464276652 -0.7266667727091743
P 0.2620785718758269 7.043482963336831 11.383091998880955 0.2997104101873032 -0.7891561494926473 0.009775848439841228
P 3.274668640896295 5.819339932569784 8.58304723482592 1.0640710979028254 -0.24636310491441443 0.08413060920233253
P 6.712157009460045 4.050480029342399 12.456405716624428 0.5192885336983896 0.6374872882290247 0.3079963043451792
P 1.5907565605468954 2.9407938842750116 5.4182283116358905 -0.10241886598855911 -0.6859510401573671 -2.218679994085908
P 3.2010846136481095 6.465134776684657 0.6440769326621734 -2.111053358644164 0.1333446090331381 -2.3916288477742293
