# total energy = -340859.9155027262 ev
CRYSTAL
PRIMVEC
9.44902977504751 0.00000000000000 0.00000000000000
0.00000000000000 9.44902977504751 0.00000000000000
0.00000000000000 0.00000000000000 13.82961019834973
PRIMCOORD
 96 1
Ni 4.611957914590066 8.80127963733812 9.80880319651306 1.1228755696355435 1.3527717872431864 1.3009141791419465
Ni 4.706816721822716 9.787115783985877 0.9639682576569697 0.1642598105547558 -0.7354488897771786 -1.5411313190596234
Ni 2.783107702310738 7.383963007228689 3.738502855494933 0.8960615904976503 -0.031912532437880524 0.07851994788377445
Ni 8.741334994138207 9.001315592026355 11.282721403182407 0.7485342622062269 -0.9854557620917674 0.7374882888047105
Ni 2.998668412480919 5.425046903769221 10.111906330367704 0.5723064806563176 0.19489013384610304 1.7803943225941468
Ni 4.557087400236047 3.0000479707891134 2.85221884903654 -1.2180722068440508 0.08832716378218336 0.8063357465957275
Ni 6.026694959643763 1.767374826299089 7.415422606073234 0.3700889599108658 0.3433607998874022 -0.2545502687108971
Ni 8.807213627869258 8.831818900708567 1.1813639693576394 -0.24338371057111632 -0.03569693918097723 -0.31112713666467706
Ni 4.710397904006317 1.9391770808168738 12.768933742144853 0.7796669790552895 -0.1481053122820804 1.5953232317209944
Ni 2.0725123362068456 7.903007647142694 13.365875236421369 -0.5885468537745799 -1.581795629548205 0.3428442652622999
Ni 5.41480415578235 6.10955349940102 10.443180800798046 -0.6217076567972648 1.704447277643871 0.39909665999712557
Ni 0.6478849919669339 0.6659345281334652 9.531601742346247 -0.07213101363829513 0.45879176186491316 -0.9849268861714907
Ni 0.7774491396801896 6.5643069425413465 11.822020982750153 0.07026105030909191 -0.7965305875798476 -2.041538442472478
Ni 5.156779507002395 6.401934819472729 7.771715271932392 0.5670334051828363 -0.14796595849073874 1.060412675214632
Ni 2.969470911300633 5.204260880281015 7.853642137380143 -0.027260635488165957 0.258369128236355 -1.3563859869570059
Ni 6.902818424672006 8.189851835922608 13.121685856647295 -1.0266090964016255 2.583580467817299 -0.30961147135109907
Ni 8.80266864467582 5.795023654162129 7.469164906303976 0.7106575417651115 -0.5266884257068865 -1.0153422652385546
Ni 7.8163600465526555 4.251430193705341 0.8794551928328294 0.3592149933108394 1.235936488718981 1.8612804567172523
Ni 1.7343410191384807 3.3170818088476723 6.741865545835517 -1.1078256172809564 0.13442987167751685 -0.5179582449227402
Ni 2.568198975176622 8.086177084158823 11.093034025611534 -0.36461122462574624 0.7695689713893392 -2.3237147004307595
Ni 2.80941380046152 0.9980915379198713 7.571186077903829 0.179805985819471 -0.6555986531177548 -0.935262429066828
Ni 7.367890208035269 0.05085751152189382 6.042364285277182 0.17896420664446597 0.20148552767543362 -0.3854279042607814
Ni 0.06107285732319056 0.9199839701993282 13.22092712376584 0.0841959152226292 0.6148744359255153 1.9459417416120743
Ni 2.818191948874622 1.351352955112804 9.890120599557532 0.588850758168244 -0.16346225435412493 1.2279352156810595
P 7.806929915103489 6.963462296055526 11.501215092111929 0.7052055175116049 -0.12020164389327684 -1.462721928611784
P 8.643395803285888 2.197230076685354 8.545413146897832 1.286029034499998 -2.9308956243667588 0.9154384523623653
P 2.7835045615500817 0.4163620362485795 13.62719948630558 1.2077507703133845 1.32061191468119 -0.3340827170195859
P 4.936239158281401 1.546012412010884 9.217144654634568 -0.7761257986712504 0.47777421650468677 0.5569145715812795
P 7.611476739726721 1.1034387679066044 12.148634246924109 -1.7969470847465052 1.018995802830742 0.4885257985942361
P 3.470467904854009 6.45206192101364 12.143157589421167 0.40425069339423925 -0.7839902890209918 0.1731691972292437
P 6.567566857721671 2.8982252288089323 3.5640841647063324 1.7282448942841009 -0.39081128005988175 -1.1923128384917596
P 5.0309089849238875 4.401008330819878 7.004392657176123 -0.5902602369212608 0.9900174133205207 1.3953348574163775
Ni 8.900692876793713 8.164074883424284 9.120295881787495 -0.18289388071617535 -0.5169966523404192 0.11399988595793915
Ni 2.807986997005784 5.009743158825558 4.8132439758822345 -0.4922140460791007 -0.7479570495465182 1.4810824333968429
Ni 5.729863146673699 8.073099627319499 2.656847880216494 -0.29279388557312797 -1.2564760034332296 0.8469864302375542
Ni 5.866807931335797 7.544690999162883 5.318080110124785 -0.8548149251430375 0.45965333853425994 -0.9348307408460481
Ni 1.9190695460234604 9.066532793691835 1.6052445983858803 -0.34359579871634377 -0.09225426675073145 0.8518614989416683
Ni 1.925872847269352 8.934917261672352 5.2859392362527 -0.3780403535474586 0.30412859385965685 1.0785158125732457
Ni 5.5654783803198375 5.050695252714023 1.7937829739685591 0.017642909892743808 0.1872956093282968 -0.10693963667704809
Ni 4.445031359298504 9.024522408498452 12.322666472405825 -0.0017966868891065833 -0.6236349557269646 0.29365880467658456
Ni 5.026534084261598 4.61536901424252 12.305863263231423 -0.46987167382815853 0.45137515768586783 1.636277562646169
Ni 7.476610741556424 4.9908545488386995 3.6971661861054845 0.169734717626398 -2.158092462310838 -0.5718573089340411
Ni 7.79407923497236 0.43510418627806063 3.478824626551045 -0.5804568776775939 -0.1939524525231821 0.7283559874861392
Ni 1.5752949544567432 8.569986293036814 7.80891704600906 2.4872278626274777 -2.67036368415113 1.1260835350498801
Ni 8.600960211764637 6.754742683249269 13.40345024716361 0.49398913570165254 -0.9428104166174149 2.0972282798356137
Ni 8.380637190722332 2.840255432776229 5.088604759100854 0.01917374471497343 -0.5745955338008104 -0.9624418176950972
Ni 6.096721717328907 4.339277821042919 9.029144873733856 -0.1647208093515744 -1.1926450250201976 -0.9669193938504765
Ni 6.883599098652362 5.193177168667916 5.970615914415647 0.07625172067488802 1.4685267082190192 0.43392919429527843
Ni 1.3226751505554684 6.511307336029948 6.402915628735678 -0.8900182125170478 -1.1949924422064517 -0.2998312520358836
Ni 2.4275407219178087 2.749667586881278 12.697380021291185 -0.997669787659456 -0.11845226530233793 -0.2005020807162418
Ni 7.8352486565395125 3.498578767640853 7.2954652866609475 -0.4486245915239242 1.1667992676016874 -0.3764866359070935
Ni 9.256675614485003 0.03966324626354932 7.335529171775644 -1.9960378869375173 2.5861636551634426 -1.3690975209864034
Ni 3.8710689598829386 0.4684337480622749 2.9668941609537516 -0.5458341453974019 -0.28607405035079114 2.2867268103525005
Ni 9.073761301265595 7.712278986520018 5.440955289849199 -0.9325812826902391 0.265289252394956 0.968099787311823
Ni 5.847834280083365 1.2039764418736725 4.84203705859957 -1.1626258529502882 -1.6626727648102462 -0.8195085365322596
Ni 2.6450951773142157 4.566791553540951 2.278041011748188 -0.8121078731928143 -0.29363437919655233 1.1007944214657879
P 6.632377751118297 8.347083686938776 9.092359826046552 0.145685132876362 -2.164631034760304 -1.2778297865186574
P 3.36701992979842 7.5534408004874605 8.808410819907946 -1.8141171687678888 -1.9712681361920052 -1.1831833653866655
P 0.9374419971186473 4.2130104397250685 11.184019675648779 0.5274327600720787 1.2989143751030985 2.9068300987771227
P 7.607045144887384 7.022698262042325 3.981503547356877 -0.5645330073584858 1.6751816959105341 0.6187807129584569
P 1.4616136804437925 0.6785234701472177 11.677058696550363 1.0713457771873678 -0.1839107520164639 -1.7209303629005588
P 2.0803172345806047 2.5091897858980188 3.3366148426469886 -0.35829556682036356 0.9167219470604794 2.0860378104364337
P 4.596555996491728 3.37929421912955 0.6125295582561653 -1.301189030069888 0.6165785631008156 -0.8720397736617562
P 6.766875237137777 0.035486775220932396 1.5682781051439665 0.9733463804227429 0.20580318121418104 -1.1087208754017164
Ni 7.140395373596253 3.5100498894637875 12.818706505079208 -0.24782169173781188 -2.2109198905245147 -1.3607308941892629
Ni -0.20304074607183817 2.2054034872099324 11.08881597883908 1.2751013318439008 -2.6393561800260223 2.4841358539657152
Ni 3.2798053874378903 1.9949547020036786 5.371212947952249 0.04540645315925729 0.20626932221732217 -1.0253050328782212
Ni 3.6671778011553635 3.036133814480865 8.018711958373347 1.3481319744783298 0.011074255536290604 1.2079803698256872
Ni 6.242369058168041 2.1457990090723134 1.3160863422794125 1.306389343323905 0.9939761408579527 0.2902621202902098
Ni 1.2395331399129654 3.9180589836271333 9.219689278281122 1.3005315989915476 -1.2623759138574324 -2.2917494603780724
Ni 4.341961345423242 2.96912129720883 10.887899374600682 -0.3440313435918656 0.17933007462431694 -2.6503152501406873
Ni 6.958718883242417 0.7403673682782759 9.896994768524735 0.423015118485936 1.9171124760852076 0.277883801230515
Ni 0.4419282753888705 8.387175919141995 3.407104602778034 -0.35012691496664217 0.3565567297523859 -0.720176022778508
Ni 7.626113286434897 6.313236779479414 9.256033080478446 -1.368900831594565 -0.9861520168278436 2.1791991623824667
Ni 7.171907887006044 7.447290402992532 7.174248411615221 1.0241837747895846 0.6310662151940294 0.41473539497564704
Ni 1.0955866243853043 6.322147214305631 9.062944052284626 -0.20154132061403357 0.9146383250585731 -0.0684713053985208
Ni 0.785960825461161 5.9807821252635005 3.8206092525033393 -0.8031882021056813 -0.45180401769317025 0.2723240477545504
Ni 2.7220197265403345 2.008589651583987 1.4957964895925955 0.3725633895932874 0.4768555613451594 -2.8162218522702465
Ni 2.974592285294068 5.129840323874565 0.11878658465622204 0.7674007600934267 -0.23842996611026682 -1.52338145127537
Ni 0.059696133723848285 1.442951847165131 2.4256443016955163 1.8504142034267101 0.22533328082730872 -0.4363252053312808
Ni 9.501660602543666 3.81551811540433 2.74965813785177 0.48466065921187496 0.36971666417311166 0.787119835788909
Ni 8.525160097049993 3.7460016053126273 10.00287397887278 -2.4322859591739596 3.702228629635056 -2.4139529651927267
Ni 8.386108178807572 6.511288437970932 2.011876024046933 -0.8147620229862097 -0.2898314605106944 0.10566642639157929
Ni 3.6197531220537926 7.1308707518520045 1.4320703447835073 0.2758168913991572 -0.36103456301808146 0.41970045229040626
Ni 5.097071089540186 8.90623000808551 7.387667026795897 -0.16131409766287058 0.3528250306240956 -0.6198261235038357
Ni 0.5286013883585815 4.81528213154715 13.397960361019356 0.3829326486427534 -1.2035557583954304 0.13589462914850145
Ni 5.586644206418168 3.313538422782104 5.403214921090564 -0.7570520698692511 0.08649988076545748 -0.15362495654872896
Ni 3.3552180919426995 7.184106584101109 6.552884010768905 1.1689389396525094 1.901176778691558 -1.2493959566579966
P 4.199233754702137 5.60613755429355 3.4247648389288283 0.5124558270472722 1.222945475775952 -0.8596383146736097
P 0.9285514052543977 7.004310450619401 1.4028756783120742 1.1221433194552093 0.5369844083162559 -0.08747612863579773
P 9.583016746609124 0.6661905968331371 5.175122907986631 -1.6519409802150389 0.06609020676085392 -0.42204864080760857
P 0.1585707784974761 2.990069795628472 0.7899379219811552 -0.11497870493144069 -0.44238709525464454 -0.9126210375182283
P 6.924400008068696 4.634786769881837 11.044630427052914 -1.1672350695875253 0.7703210190640152 0.34321527544847347
P 6.296842713282717 6.5246493656955025 0.4060040101017092 0.5917468487691163 -0.4373791005170919 0.8270608949582209
P 3.981178500741796 9.337134100747182 5.05331168898484 1.3850892684289693 -0.8873555780832201 0.8224035986918675
P 0.17767860596892393 4.6001749747933625 5.782491406325426 0.09048200534165708 0.018891180477548113 -0.5402252838510567
