# total energy = -340865.7547350854 ev
CRYSTAL
PRIMVEC
9.33594983752883 0.00000000000000 0.00000000000000

0.00000000000000 9.33594983752883 0.00000000000000

0.00000000000000 0.00000000000000 13.66410627949707

PRIMCOORD
 96 1
Ni 4.889376860753028 8.809290039972558 11.443866084264274 2.160458905660486 -0.4514409779267967 -1.9005244898195395
Ni 3.503828576086068 1.282031275163643 3.7926501818309597 -0.2608440721394088 -0.9893517547120638 0.4280786490517724
Ni 0.9712095041144071 3.8553550875244147 1.1605556329510387 1.444984659233021 2.2429069849540726 -2.442740064627748
Ni 1.086583169648497 2.871803457998447 7.532311380748957 1.021203609115338 -1.1419207591924527 -0.22999726196188133
Ni 6.562024268458046 7.326713230795499 5.92375900163738 -2.6174161854198212 -1.7192426907854905 1.3086233748607463
Ni 2.7155756768811576 4.241611331588333 6.395266469752483 0.9996425951151104 -0.8312610490824973 -0.13738664031299566
Ni 0.1445811839532031 4.908898331430466 7.6407764435564545 -0.5388623420652591 0.6322198691824983 1.2472940798236456
Ni 3.9844245911664924 6.544229948462257 7.036727432131681 0.805039139271491 0.6915709574473058 -0.8257403763745844
Ni 2.8477540517502016 2.901659824916882 13.143763261750884 0.38726212925604275 1.194867486592813 -0.29771034903813887
Ni 2.625465091047282 7.9904152259795085 3.4425754105601607 -0.7761957326772374 0.8495323365878596 -0.45253086855686575
Ni 3.9970748029158605 6.9735155843732874 1.7209254704344157 0.6133232893883115 -0.4905073478006391 2.037558631889123
Ni 0.9224795814228927 3.6354654658765413 9.7003672212182 -0.32937168469716177 -1.3755695018639924 1.4669637346072735
Ni 8.659233321561048 1.4559786886796784 10.299976054998693 0.42459891803328814 1.8876592038210973 -1.523646017790666
Ni 3.3187153668119187 3.896853383632121 3.911035624715859 -0.14473382470668622 0.6213659571871298 0.022458843224148418
Ni 4.9278503091804415 5.262637462931248 5.255898774487932 0.5629522931349272 -0.23064903661326724 -1.2879910433223754
Ni 2.8760606510299684 2.733986169552563 1.887122178567185 0.3890300197897429 -0.46320248933809904 -0.34237735292821037
Ni 9.233179496997142 7.999396409524079 2.286305912084498 -0.3155093248927728 -0.1285225050541464 1.286580536128094
Ni 0.2735115819457857 8.682713234881831 10.869564209147256 1.2433356093965298 0.052876793394373456 -1.2579474457724333
Ni 7.499997791887767 8.537679257371547 4.438949033308698 0.8073721582800417 0.9698761624859555 -2.6344682558061012
Ni 8.527727135065403 6.673056717413941 6.508186647723669 2.297672253620411 1.0046662735819472 0.5260273950841199
Ni 6.142055910278284 9.148913215631978 1.7832476021930188 -0.5064345605538568 0.1983248705592649 0.22990855890281695
Ni 4.770576901704534 6.602504946056024 10.065963942344718 -1.1223418086192607 0.6995544898734146 -0.01807279834131081
Ni 5.444445746036189 3.3301985848574707 9.548682313191126 -0.950340406445873 -0.8686415466134847 -0.5617050509913876
Ni 0.34511924920691395 2.844962602810673 2.914567708876053 -0.5878621690027296 -1.0076551810069418 2.5161116355413635
P 7.617668101030967 3.627903346675812 4.182214152848975 0.7960107105206355 2.0987951101021016 -0.6559241547779735
P 0.30948299587221784 6.056230525324822 0.879788150952405 0.25116618273001257 0.6519474295184127 -0.21885512930213277
P 3.4293370339840687 0.23582141969237297 1.7095841588232477 1.3852119100497629 -0.8605713680108404 -1.2644034858104225
P 6.473416770514686 6.166936216043647 7.766541021029325 1.2471781230710715 0.7285390500312227 0.9638636377432883
P 2.3059608868416532 7.536015885562352 10.000280868719125 0.4237684517121927 -0.41275076044545045 1.3942015151428828
P 0.5581693541554612 7.4140417036394775 4.415541940395034 -0.2966690522578181 -1.2978034014271067 -0.42478763700532646
P 4.200533153214002 8.53332870484372 7.741152839604062 -0.45850534097274587 -0.28104934344269017 -0.17450539954216399
P 6.062140181440948 3.131016099490113 0.9416304148999989 -1.0052123758934044 -0.3765061762911193 -0.46114432125748966
Ni 2.821865463424742 8.43536658537057 12.019985668774355 -2.0615922757995593 -0.6678828698017466 -1.4602238447802787
Ni 5.372166823996627 2.4767340774833086 3.037025492989789 0.7865565070862712 1.187175260154878 -1.338496508271095
Ni 9.22679370744986 1.2381336400008907 12.59596894841983 -0.015203190102999621 -0.13707707949237682 0.7336601733078719
Ni 3.069510863324181 5.457441387921888 8.79091222312486 -1.4895665596084542 -1.1321531382827277 0.7076282680204845
Ni 7.771244472453186 0.22312546178981518 6.559768703027311 0.17546802056574942 -1.2730033116642916 -0.053085309860753736
Ni 5.44145824215442 0.01751704229176347 6.111312628144948 -0.3480759459748844 1.5802033453604205 0.8623024917693343
Ni 7.346103998178109 4.5883018211180655 6.215801510004804 0.2739579838135475 -0.29563032658065863 0.06930048616803548
Ni 1.1285295913384685 7.5626233420093625 8.220093590814994 -1.059283703816511 1.2297830675230754 0.9892167717960964
Ni 7.904337770386022 5.476047935535535 13.366091433442252 1.1661413223027142 -1.2287361143158002 -0.5825358716938097
Ni 1.0005057140550102 4.196574710570657 12.430428557546088 -2.099805810754803 -0.6634220058169156 -1.4539968900339604
Ni 0.7689414873941591 5.871126652000304 9.988051708298093 0.6707941299112705 0.5989230548025815 1.3462607255975458
Ni 3.6491052882867456 1.4030345183249426 10.974094169185486 -1.0846502076057576 0.6804979874625958 0.2737227278742899
Ni 4.629585390384269 1.207698444205363 13.140497546570124 0.0786328193125549 -0.5637519062180871 2.0322066235485905
Ni 8.223954005987217 2.967711668552882 0.8155390791900604 0.3721882656420558 0.007911798647908955 0.30191333137589293
Ni 6.0516372381066015 2.6503453968126447 5.373682982216624 0.667683866417063 -0.6413591124796051 -1.0967945562777754
Ni 2.3457973839151247 8.269027970803416 6.232239316519278 0.6461848160030226 -1.0480487543326402 -0.6282138333468987
Ni 0.8347599322893957 7.059098234636356 12.295468069687146 0.4168195311981853 -2.7901349253752077 -0.13780650145923365
Ni 2.98969782993278 1.1331228785566891 6.3406100862355075 -0.16292129424899038 1.072882011326236 -0.4944215952533808
Ni 8.057643399268954 6.126203467805644 4.1808473698230655 0.48520881840586116 -1.1105543290660294 -0.5130304686038196
Ni 5.1304870959110955 3.192708054648655 11.85280588514549 0.6941114644809723 1.0501143786124174 1.394989558261817
Ni 2.1478939236471493 1.2446501328430006 9.170828423794685 -1.0067516953560662 -0.20423403695484826 0.6592354785393936
Ni 8.969849701718413 2.0158089082744106 6.029655744701518 0.19252240494487488 1.4273875149765483 -0.6599373897024247
Ni 7.352471115826132 9.01544647971392 11.04569436768691 -1.3371456506701553 -0.23457279714770568 0.25587310128737867
Ni 4.433875878279468 1.1633340115610844 8.394461122064401 0.44381868549484854 0.7961786035570675 0.8572006517663947
P 8.9541279625406 0.8896814567758776 1.5461480909962262 -0.5565744146330415 0.08777463371282303 -0.6727679658081898
P 3.221966920790736 4.993976840413486 1.8383959902555227 -0.30022257393703133 -1.328211838515635 0.49594548809707495
P 1.7400903078359677 6.150131506708693 6.888922544771055 0.4175579520261067 -1.03238867919788 -0.4832537515620193
P 1.5267731947279872 2.001917015224182 11.451354449462922 0.015185706601502879 0.597784570322764 -0.5204887246540779
P 6.148628418818177 6.887643519671673 3.4132661302900744 -0.37550550294074686 0.10194244057277282 -0.566518670329947
P 5.682297734773203 0.6292514074523906 4.077519880097248 0.7629321827991118 -0.3375323661310832 -0.7881171667051717
P 3.1094127120450668 3.17958170946813 9.333568029779268 0.6562098043391924 -1.2163583094767374 -3.100712617294318
P 8.329310197567748 3.153263667459666 8.414315886143651 0.44864927411427247 -0.18613012826528588 -0.028393463541028518
Ni 1.0065180656170718 0.4784683521596264 7.367931448414289 -2.079125399587316 -0.2572455561548731 -0.172430005070374
Ni 6.680777547758389 5.229065388059863 9.975631160909636 0.07000651109612459 -0.38117812784549193 -0.8392695212092707
Ni 6.807559743740986 6.8399928327574475 1.2018793468006537 -0.172957852549386 1.8389545395265425 0.23228785776827093
Ni 7.020624786208942 1.8029492566983265 12.871696884807903 -2.630078868489154 -1.8715170468435962 -0.2683527218116281
Ni 4.494428847583086 7.625669009864331 4.784828228815538 -0.1849808451521911 -0.11708598108243062 -0.8962382252848307
Ni 1.2005377708387466 5.50908786127798 2.884219337412089 -0.24945177114206712 0.7513200524814803 0.016967738202590135
Ni 2.535195794069687 5.6524413678547685 13.381641391146863 0.5551304830976633 0.28753315139482094 1.2102735367352382
Ni 0.7334620780132558 0.11219384108993141 4.675570543884407 -0.05842369135453164 1.4033261031519702 0.7005587627682129
Ni 7.860748221561078 1.561045465821663 4.002175965793982 -0.37550010362410813 -1.3214719486886402 -0.9261627807584049
Ni 1.5383497722698447 0.6852306950320117 2.4558766324137413 -1.1878961974813027 0.25755665963738866 -0.10183779667410849
Ni 3.0986016823729123 4.213622154596004 10.99528770844175 -0.5020652278415676 1.863483120795526 2.351988350564472
Ni 6.548729876184172 4.797371077144154 2.3393630474297638 0.7318935683257525 -0.9033372982234572 1.6298598320452833
Ni 1.8896989006652114 7.867890223028432 0.8754880125525828 0.4385898329957414 -0.009003231939874817 -0.22816663651104577
Ni 9.02776059727659 8.354022456239761 13.623919553603711 -1.896144101363657 1.5290990704854375 0.42254023573204647
Ni 5.204969302063464 4.511588323004 7.4610388740795655 -0.7076830325178198 -0.6858458820380704 0.7625282624924739
Ni 2.0612189672773087 0.7890072439350572 13.31792540210842 0.3098778376386082 -0.5472346252893544 1.4062219366425266
Ni 0.47170725743719655 4.349562917166152 5.328714513631251 -0.08758617185110076 -0.21838178921014 -1.0412728690613873
Ni 6.435634182359932 8.358503712062415 8.648695835213069 -1.4040275000943692 0.47153466335287825 -0.7229322453674066
Ni 5.236898249799877 5.176840085826678 0.39328061256592917 -0.5602852878257254 -0.7048612467983086 0.14859202211051184
Ni 8.23295386143105 6.971088237469351 9.193169351260543 -0.39825025283643023 0.6911341270202032 -0.7032666486176792
Ni 6.178475449786982 6.600254982195067 12.02031429420135 0.3990789193853127 1.2985623910803186 0.6232482618115073
Ni 6.599041308743098 2.063086157203415 7.629230674648379 0.3055403866055189 0.5921214584997158 0.3996502185077504
Ni 2.411503797414795 6.136837114434818 4.8712809895841716 0.478702127635595 -0.35271678718100546 -0.18147771709493907
Ni 4.450260469881048 7.972574226235565 13.499672067945802 0.8895572137202292 0.1279668896609925 0.7565167661910713
P 8.073654552885314 3.383693576240408 12.097789605805266 1.3574653360641136 1.016318770219211 -0.13930468327131493
P 6.5896213355658935 8.722166958020452 13.121340177928277 -0.2503094911566721 -0.2225418341251006 0.9907504348318035
P 1.7749414078067365 2.492735895150037 4.683290440633893 -0.803901426122622 -0.2944288500733897 0.6325836802798203
P 4.4550591479911406 2.6527353999180603 6.615900166585909 -0.7413068912198524 0.12206543657489302 1.3692489589626031
P 5.73877089408828 1.3660454858887827 10.55436014334145 1.0969745334990657 -0.23123576235467275 -0.06416573604463142
P 8.177769063164984 6.147844199049213 11.208433973671493 1.4332113207471768 0.5187925678985775 0.4600186922934787
P 4.289504753192952 5.576278690768905 12.212322102277644 0.5755946644892861 0.18318698647656195 -1.84883888851979
P 8.417338866634015 0.08103044122322223 8.555766726185738 0.8251155983063918 -0.7603034869270131 1.3040061878037092
