# total energy = -340873.3608608314 ev
CRYSTAL
PRIMVEC
9.15361298291094 0.00000000000000 0.00000000000000
0.00000000000000 9.15361298291094 0.00000000000000
0.00000000000000 0.00000000000000 13.39723786187059
PRIMCOORD
 96 1
Ni 2.824951477923832 1.9449139554393362 0.8947235794328748 0.6726399248707576 1.4922343362486044 0.34766456946907864
Ni 7.330744325333502 2.591012586481718 12.15378675896837 1.6210507183940854 -0.5678278760596737 1.7698173184092487
Ni 6.660461848331497 7.901105961118536 5.233698234593513 -0.8454640800557568 -0.409112906582547 -0.94128523822214
Ni 8.313485387434561 2.830132422970443 2.635062519075015 0.5044758941655892 -0.9646393395670485 -0.3943779143652175
Ni 7.578532633481486 0.134095855936974 3.4495208108219932 1.6055009435849446 0.492426676310539 1.250294557212866
Ni 2.2729702973571637 8.959703015447978 0.5733145913893388 -1.789832328078595 -1.114018633465546 1.0236744392533337
Ni 2.0277724617324853 4.8343984061168905 4.892711498730734 1.270010547584555 -1.3007622269451147 -0.026058130539632542
Ni 4.406585988018911 4.889750304874588 5.457592866318938 1.6601582259185086 1.1348826213987486 -0.7814965760648606
Ni 4.818535194516579 4.78025478429586 8.281529208543708 -0.8695164930192701 -1.6304627557366052 -1.3662160856735504
Ni 4.739466284070243 0.49262823749824053 1.4236037864763416 -2.443809386432527 0.25925230217225675 -1.5096381335473485
Ni 6.8395065216737425 3.6568593024311533 4.40068465361688 1.1905233506915047 0.022884617907657362 1.3566549243476764
Ni 7.622634741669775 2.7343398612870793 6.711011761627265 -0.758859555391635 0.14125666479136317 0.5022824860586962
Ni 1.5484709696288754 1.8564259770549048 9.247014794483341 -0.4405772957394154 -1.4406906598433575 1.5247400221857934
Ni 7.953327324176691 7.086635769674454 6.9843688574054585 -0.2646552183553829 -1.0749597197908713 0.33313192307054235
Ni 9.093336613920547 1.8081406676540692 4.9937271120812285 -1.3111052607423355 1.4072100115874087 1.8414937610086288
Ni 5.140806452919462 0.9570377163574486 7.821669075423308 1.4375459435667888 -1.1180832904532227 2.0723798533333664
Ni 1.6821411825540695 3.5773510185533044 2.6673097828642476 0.024339090965996794 -1.1725667662130839 0.06890890715657166
Ni 5.011291980367345 1.7010800081749848 12.759636952961372 -1.564824291801189 -0.29381847018290047 -1.9342951585120818
Ni 4.600816505587884 3.4800755715385785 10.514594329344863 1.5415776625684223 -0.0063483108155310015 1.529716135244146
Ni 0.18462563128379703 7.454784937217999 2.620727960871847 0.4377169434724849 1.388601909567918 -1.0046809288699665
Ni 7.168523992973009 8.282427177994366 10.956409029488428 0.4525285545640207 -0.11894000357203385 -0.0019041590012483338
Ni 7.105098607411229 4.8048139283949 8.134079146372633 -0.733244425926692 -1.6322609852876082 -1.7283906758333458
Ni 0.9527355181738671 6.254068885019861 6.132210494511887 -0.35531720091832997 1.2760757799420281 0.8963945483570368
Ni 0.7305983801745017 3.4127324395457928 7.447832768025594 1.2781594019439342 -0.8255094913107007 -0.9068825923725542
P 3.7715083072170232 3.8215877247965437 12.595708556385866 0.3733519469328538 0.33162988460371917 1.1813455408469784
P 6.6986049543548685 0.5442207473325397 12.588634644138478 1.4773188525893524 -1.3941050987743346 0.22088295836543895
P 6.686732718090815 1.3646847246715346 5.058261000196268 0.7534463547958637 0.5915925825794393 -0.16561015393506318
P 1.5308228034630345 8.63040178214086 10.572041490154096 1.0938591277985354 0.5913133607761235 0.567406472251539
P 6.738487246877986 8.162405002285597 8.65106514848047 0.3008391244751077 0.8041225409944925 1.180952676283934
P 0.4841913522518424 1.0063573840449749 7.433591576676624 -0.6299755532330118 0.951248520082439 -0.4547273619875523
P 0.09963982529306416 0.4223980559158766 1.5704643559601335 -0.02760619175304278 0.4854816124512735 0.2169247450486393
P 1.1345171218499221 6.369312874660906 0.274980946752166 -2.162013394631799 1.346125485571262 0.09389463056763184
Ni 7.3817024897760515 4.160957932575875 10.595821661773513 -0.5968736284727205 0.7315891497114562 -1.3354944882199773
Ni 5.115450944475802 2.8359815817774825 6.42495402759435 0.5173069844919865 0.7603657076235163 0.8869727408225047
Ni 1.741154526574389 6.136188654789726 9.066661154459709 -2.6059259253920346 2.165777489659922 -1.1454490840606852
Ni 2.498304792432114 0.1013103596941357 5.125461335823811 -1.8059549446720704 -1.3353767316951906 1.9930147838404775
Ni 4.377788721028385 5.548389385941452 0.7528672902617723 -0.5181575054177399 -0.5553533977417467 -1.1648737684442003
Ni 5.939907727873686 4.641357858258271 12.587187457898429 0.2155088385377192 -0.08838269961046714 -0.6462642630907063
Ni 1.8937818723468116 4.59861963843031 11.477213003643863 -0.10585823068741124 -0.785156541414951 -1.8440131849963726
Ni 6.248375337636483 4.633055531125274 2.3403637742223102 0.3960846126436791 0.6377402847800951 0.20469503575166687
Ni 5.105601656719346 7.149100025854795 12.171564906441033 0.9216435527318128 -0.38569324210702605 0.7173130994084163
Ni 3.235033347337562 8.588624691694337 9.057846224989946 -1.9484976752647087 0.15339201460231647 0.10801050114372367
Ni 2.4130297322656338 2.2535829446915767 11.790561319941737 0.7104369411138732 -1.2007992786962158 -0.03736301402949049
Ni 2.6577058119403887 8.426816271925887 2.9523761805923074 0.933313275760257 -1.481280922560894 -0.9994186520297627
Ni 8.018720736567131 6.408371341999933 9.365486348123389 -0.0409396756371553 0.7840818202935335 1.8530464988432345
Ni 6.880185178541479 8.85044548881132 1.3763116441029926 0.7586685224267514 -0.3117786542057469 -1.2636622367690236
Ni 3.950516366106642 7.366406802191446 5.178153194598212 0.7169348901333911 -0.7219459701947373 -1.934419342794772
Ni 0.48969267375893283 2.454825129938471 0.5425108523948949 -1.1720947116726717 -0.7649533269941987 -0.5112047282489905
Ni 6.150962586424408 1.934332378630357 2.3713377704214667 1.955337581004678 -0.8082741012690208 2.767877656638904
Ni 7.519931202053211 0.2967738689552956 6.937625931821503 0.0908931247371467 0.3676579818718701 0.5220195594763075
Ni 2.7926026090285614 6.324277097930649 12.404328473953845 1.5304311590332997 2.446007165414794 0.013697552091750604
Ni 2.8864179902701084 3.7044306300057777 9.184797685858229 -2.0118440007318386 0.322991749312747 -2.0176315539478926
Ni 1.2470058739308445 0.9997484753459411 3.502025020526685 -0.3934777711484514 0.630695462118172 -3.2511679178658137
Ni 2.9020889759941335 1.2795469687024028 7.27368253163816 -1.1652494066160641 1.3466487050645841 -0.08717942333098534
Ni 6.10236605417625 1.5632723621030271 10.427833637763072 -0.5554102191216113 -1.7416429128575617 0.029771317725161627
Ni 3.268846794337881 8.832605096769193 12.019733925013233 0.44490394813922735 0.6912272009546419 -1.8468586248649679
P 3.735891598424862 4.389514499481933 2.603913688864569 0.950436308593789 0.15409392576534753 -0.35419748549158997
P 7.214740585800462 6.204062696345593 11.527398603136001 0.32756908427078424 -0.7158982213387606 0.7177522438283639
P 3.815207656426424 1.3956697052064782 9.950396736659455 -0.2657857324154003 -0.0128107786114231 0.3687720408716552
P 6.171503294347721 2.8714884472117648 8.82573897154046 0.40259181763457763 1.2995059859405105 -1.9145403444826574
P 7.49128039287319 3.7638467330049856 0.6640250670481822 -0.863459745302229 -0.936302183185252 1.316214814054759
P 0.15940376559222136 4.032825655610398 4.202110746605122 -0.7543943205314297 -0.5883054271877353 -0.08755711838537825
P 3.160971463287863 3.8785598130829513 6.876306792647047 -0.7269449660712255 -0.2959208612378839 0.7661211220500548
P 7.1141515308230625 6.696215861321008 2.7109844173181257 -0.6864760594229016 1.0725750216087786 -0.3012250470596167
Ni 4.701423867791595 6.565245964276998 2.7444372119600766 0.20734738577284936 0.2922431552759806 1.1284453504138372
Ni 8.221766183605865 1.8645177710853007 9.027729006982243 -0.13679657213748053 0.48689957584472277 0.15244507730801488
Ni 6.927802274181887 6.605384557968498 0.4591141136481403 0.12941827739553843 -0.888079086512806 0.03631477527063423
Ni 1.5748699899723844 8.31617654970259 7.439486503549446 -0.6223571174558056 -0.8484496450466419 -0.5042599215000412
Ni 8.952636426091118 0.5847364698860901 11.600668699647656 0.7190133699289746 2.312523973921262 -1.3037519057010578
Ni 3.236909838034656 6.275991788529812 7.084781247648936 -1.1322513544234887 -0.9954879495167889 0.9942008552742491
Ni 5.448010864066655 6.996079074716641 7.447699125273509 0.6752071713773017 0.1050781579882771 -0.7699361249207708
Ni 2.228337279605794 5.932648912640536 2.139753188283219 0.16981982114103655 0.7450007951316717 -0.1581740093719921
Ni 0.07768213805311648 8.538948033093703 5.520238364039779 0.22052866034981375 0.06010879236643842 -1.1231277948556657
Ni 0.4546617962087912 6.95937308595885 11.187363843041505 -0.4106121168358929 -1.3717131042323796 0.9907278091239841
Ni 5.502419940669226 6.053366762949204 9.989208056443255 1.143880711132301 0.09906023392897133 0.9320230961939239
Ni 8.884844767053659 8.16580099276668 13.19132226478589 0.1493875214286137 -0.8759414227090075 2.0653807963077138
Ni 2.542370286167777 2.5946099564522447 5.142717727346551 -0.45195468433842156 -0.701556607905108 0.09395016639591562
Ni 4.951180202768239 8.346310244213972 10.261534455380017 1.4451345545473242 1.3621761112762218 -0.37578163942026893
Ni 0.42990951087214685 4.323059267965333 9.71787390917266 -0.8260162557437905 -0.7923240056976677 -0.6967589294061485
Ni 4.63676274445368 2.980251678737969 3.992417030330779 -0.06384897613516101 0.40440521669423257 -0.6855962279211096
Ni 8.424564483089375 6.156116070631549 4.378525586887488 -0.4284123782421074 -0.8400169408982565 0.6097533126488661
Ni 5.170418391480922 3.151991768781281 0.9954526846915693 -2.3418404634971925 1.419669320396684 -1.062722554294731
Ni 1.875465492420542 4.3779077179994195 0.3859703369980445 1.4019950430453727 -1.1725698515368772 0.4096638939900106
Ni 4.618226677811654 0.7889782941643875 5.453801439749492 1.9911995850086095 -0.635892175827763 0.7502723279432563
Ni 8.864441363327694 4.827048054752176 12.869279846711922 -0.5060064718775027 0.5732441619792386 -1.6241265291059321
Ni 8.731137294928763 5.132403436041743 1.9822689353699274 0.5068323102129079 0.20265460828287032 -0.08293453201170234
Ni 9.058552883925632 8.497006177610363 9.215746051940544 -0.5276001388878785 1.360880789503566 -0.8013578337651618
Ni 5.1813752664293204 8.732711716391691 3.395476048023052 0.8150121913238029 -0.12358495854321296 1.0881299386242422
P 6.619215667448055 5.564994040207447 5.567369402821573 -0.8697311801332376 0.6412192444676311 1.2749730337961527
P 3.4163755775821016 5.71915919299017 9.935766516751329 2.642600397994933 -0.5686987087004012 1.6385429616415779
P 3.7116162163336743 8.415182029603903 6.960534679468417 0.5892155977068304 0.476218956202425 -0.20053961882239657
P 0.40613025461404445 2.945165879508888 11.363054632523186 -1.4610879925527869 -1.0202975523613007 0.38624371529385737
P 3.6122262846797843 1.1566780193019455 3.6335047738235153 -0.9482159039037025 0.047554095629879396 -2.2132413395688397
P -0.030692980275249502 5.386050056609924 7.828153494983412 0.7924150227495772 -0.03146721737034581 -0.5368795073072754
P 1.8069415443305603 6.7067425164510475 4.037070186031093 -0.66772191874385 2.421960408878235 1.0218828945705498
P 4.172464024313666 7.769843148453516 0.6158907922644299 -0.35751240879743595 -0.6315241286670544 0.2804824151956266
