# total energy = -340887.9271065873 ev
CRYSTAL
PRIMVEC
9.11046543090124 0.00000000000000 0.00000000000000

0.00000000000000 9.11046543090124 0.00000000000000

0.00000000000000 0.00000000000000 13.33408705808345

PRIMCOORD
 96 1
Ni 6.1805125550607505 1.9919942005219333 11.022423483395068 0.642522536660087 0.20438830314452544 1.4583698222906754
Ni 5.102024743712032 0.3528957084462183 6.085357385694453 -0.6090303184399124 0.13153866617265086 -0.5719539824129053
Ni 3.079729134489688 1.6366495989131562 4.85934107118628 -0.8287403395431726 1.3763315768409974 0.5267084803115445
Ni 3.296394228209818 4.603199418825215 4.715613454289545 1.0303245975799997 -0.6067224962423422 -0.06491161307172047
Ni 3.8108895539880066 2.760471087259241 2.7595026447622915 0.21662392597876887 1.2551174325228063 -0.7452910726785809
Ni 5.23340676862743 5.004105459072222 2.3075433771925677 -0.737711203448794 -1.3640427321713153 0.736025588216255
Ni 5.357709961744806 4.4756528999419505 11.157177291641801 -1.9924676530877556 -0.4448841506448854 0.3220874923309227
Ni 5.969987915178287 7.912248083801381 12.052747907120338 -0.9405599300203413 0.5957469710674449 1.4017847268067793
Ni 1.5764840838627932 6.558824640534149 0.48954358249836805 0.6283683566468921 -0.42688437163335513 -0.679652608743165
Ni 2.8671546398394576 1.5115264638886732 0.12175590692596502 -0.1960080495006302 -0.018538939344451943 0.8447274590000485
Ni 7.678537308879066 8.884216330951304 7.157857799028166 0.4228649660613169 -0.6134667569447112 -0.7887589140542287
Ni 8.558234760082582 2.485171036715348 1.2085497297936745 0.6295117262227159 -0.0847402177618734 -0.09813412257027615
Ni 7.15271767431717 1.1025758824863865 4.721627272654891 0.48569449979302803 0.6833190018511587 0.2575286346129307
Ni 0.6393232817161133 7.826910352202842 2.321610847178829 -0.3448690090018125 -0.13835877441827785 1.0558615655088397
Ni 7.774260971300957 4.0217148392364095 3.928489266491504 0.7215847302005767 0.13390793773577583 -0.7703495583091056
Ni 7.36853549473329 3.730362148244494 12.482279030391004 1.0422917972442047 -0.7955612816880427 0.5541467790281552
Ni 8.714087495692297 7.320851317602218 9.290138593576676 -1.262121117534149 -0.59639283218156 0.1328339879453067
Ni 6.571424414506689 1.1084521328206514 -0.07569612581752758 0.2992717799879878 -1.144414215038268 1.2428237027571176
Ni 2.073159338859863 6.480438194214749 9.254936665411458 0.7327957684250477 0.679300881830701 -0.6011881966876743
Ni 8.99091810446279 5.054987409641011 1.3364087376482037 -0.15094355306182392 -1.2942663348081258 -0.7776419782054608
Ni 6.601607387153851 2.084993833719103 6.941672826846976 0.2774611118707996 0.2909591463572344 -1.0217983052765434
Ni 3.089568437374969 4.587073894652118 0.07022346911087204 0.652229993755838 -0.4690417217276954 1.260917327034035
Ni 6.081609340132413 6.21440348722116 4.194063894970549 0.8844589732617154 -0.5356173527654001 1.2147061185852952
Ni 5.819364586842784 2.8420461965507235 8.926584551384634 -2.0593168495018213 0.41939140569041966 -0.3316710222542998
P 0.18615869954294292 5.680010904497183 12.34728470585152 -0.616589618844409 -1.8457059993177631 0.6104210281398519
P 4.4606752944388015 6.22835161010761 12.42899647212752 -0.3195796383074045 -1.2555282948079796 -0.06630977897082774
P 2.4624950877510297 8.345632934035446 1.2665797516993063 1.0489157303186256 1.5328194567598183 0.28388886977401434
P 6.6770875949358395 8.064912156439014 5.439227675102791 0.10307758261848053 -1.491268372790909 0.7119569773028254
P 4.6025525757651655 0.9831832303460157 12.303896113267124 0.2346383602783185 0.1450097040758922 -0.2383888284596862
P 4.125701693988809 6.242791698138322 8.093564570859577 0.3340433791412183 0.04065531162751708 0.4360745227730554
P 4.951392304910895 1.3358857969207825 3.971864193377449 0.8776486352081014 -0.6652472319511125 -0.6557022685751546
P 0.1717295440709918 5.7950851959267915 3.510251476421389 0.07224285662581106 -0.46528071202336646 -0.6774769412480849
Ni 0.518633299269387 0.24041789972244743 4.529322652994901 0.7509372152207648 0.21685609659423297 0.13608849032686238
Ni 1.9773081299190889 6.656005977457563 4.7331073704009485 0.2027173432000057 1.769683878155178 -1.1168684442095154
Ni 6.186315921669939 5.3320093381898275 8.689958427459272 -1.664265820328979 0.7892787911134407 1.7316153534182308
Ni 8.994899377945075 2.440957946991027 9.873837927361233 -0.2727315676056142 0.4827277038552203 0.8303195111048346
Ni 2.4614564946686945 5.835508331947152 6.820692220546508 -0.06894721659367481 -1.0989632817943202 1.1178963712533971
Ni 0.6762716861434683 0.14227449762802857 9.323873736774736 0.08256043650173524 1.4001924426189951 -1.7392039643987662
Ni 1.5441783727227891 1.105901202442986 11.32345331098397 -0.06714410194666501 0.27962006719533133 0.5207599760375935
Ni 4.112910600237944 6.773330553898898 1.2427987032535215 -0.4185234012631695 1.1408210983703708 -0.201378312673608
Ni 5.575577636928692 7.997503821209209 8.267387699933382 0.7882326092371135 -1.2531369117576676 -0.7097062335954358
Ni 5.475398956811522 3.381932390052316 4.527482338936729 0.1953876423078119 0.16977071307065603 0.6154562765709143
Ni 0.765848517401749 7.663869459207491 7.159858457281507 0.36542652143819 1.0392545530797779 -1.0696048832368612
Ni 4.956822142429069 4.86277480568393 6.5542238553887175 1.11181545516664 0.25375014140710495 -0.13770340022246608
Ni 0.9716493808527147 7.436909539320355 11.598989322587798 -0.24979552763473112 1.0144356942638852 -1.0089497314486497
Ni 4.819900954407884 0.2196824799382823 10.126172316133632 -0.4848527206180231 -0.5003055648379835 1.5208674266042648
Ni 8.726550612680319 7.288664042515462 4.8732090219751445 -1.6934115886549996 0.21473982158217855 0.5076805171458161
Ni 7.403483240907304 6.372670496224024 7.106335382725271 0.814636810262255 0.21722170746376784 -1.4997527561128363
Ni 2.0455090756590977 5.217317686316869 2.5753455145192525 1.1374868917908154 0.48053866662370137 -0.7078259858535874
Ni 2.5947243859704376 5.379028451329581 11.278491340984493 -0.33633628894045303 -0.09777545367927677 0.27170389767204817
Ni 1.3618506239791612 3.409646426512523 3.932635439401774 -0.7551823636503638 -0.7262931914198395 -0.7049003275663602
Ni 2.125134545304793 1.1221816045318713 2.5559311122520927 -1.0748208802201618 -0.5423562141511304 -0.378878790288354
Ni 1.3692118802118527 3.5284742297835536 8.214451339364008 -0.09416151107577331 0.6995784011328146 -0.3903554234693858
Ni 4.022498339280978 2.883453262859612 7.188513604841759 -0.9048051410182353 -1.254009544170608 -0.3595042424164841
Ni 4.435211542990321 7.070049309149545 5.792954258014877 -0.10911993215781851 0.32411120762917084 0.3807855203927636
Ni 0.8224718834134112 0.23317599058956828 0.19627951581633 -1.1145274547811643 -0.47103047002295007 0.17664635714456675
P 0.33288730381968784 5.75649326349897 7.950436422601594 0.21914797795220323 -0.67970274525481 -0.22995278187719106
P 8.79661009340977 1.564631368072284 7.6340181075094256 0.1586128966816236 -0.28703075783710563 2.4538333463274324
P 1.8172008068580527 3.400818385312674 10.452390759108852 0.8037458743813641 -0.046380644147068516 -0.9069746378657283
P 4.009561478079961 6.3381327210035625 3.593896483505034 -0.7306154729442772 0.6585531077603883 -0.1070180553234673
P 7.192421083552404 3.8690780979956787 10.133293056073573 0.9974728411573015 0.65405753388288 0.6516460962279099
P 6.773658530661741 7.606464415244386 10.07067591472096 -0.703346095705363 0.7580434872482429 -0.8312538499936458
P 2.32840725454218 8.89650634909227 5.742324667344165 0.2392036110514977 -1.9176418662261165 -0.5074835706436616
P 6.852436727003426 3.9677991036113265 1.4265203532392305 0.7646316819887218 -0.671019101437883 -0.1839853140081412
Ni 5.06087277044091 2.916997997325911 0.33558309060094194 -0.20204037173763914 0.5916278066927488 0.17328541109213383
Ni 1.8704423680261815 1.4368388666168868 6.987874731219312 -0.7074197515541043 0.3585876441394857 0.9853254071614902
Ni 7.3455589004030335 0.8861795475024752 9.200360421027872 -1.0316137487050685 -1.0348857345881208 0.011720116650405621
Ni 2.9955028796985608 1.7341042498056056 9.34826154223178 -0.1532097233881813 -0.3380314172546888 -0.8753755229032084
Ni 6.385033398090066 1.9938618459770097 2.4222568941830502 -0.5023495918512058 1.385900451476355 0.08974666983752931
Ni 4.576095783562522 6.859952861151903 10.3284109875215 -0.5558452497765007 -0.6588973784736846 -0.9812887751982714
Ni 8.107048059998665 7.349248638985014 13.243361863219336 1.3946730554626625 0.40939135705491425 0.2930291415123857
Ni 7.91490833976666 3.945442020944217 7.938035256779886 1.8494276711437243 -0.4673663909078016 0.1607098884199684
Ni 3.2221894856166613 8.158786394337097 12.214731075055523 0.7469049541329201 0.32319203824901116 1.008672823638179
Ni 0.22853511939534435 5.138421053921935 10.098877361092613 -0.3996718157743052 -1.887488225460872 0.6543799502193053
Ni 8.917688181692526 2.510908102132863 5.837477103570772 0.17511526521202098 1.2994962157484975 -1.4165665131016443
Ni 3.6423003874212334 2.8459728072392014 11.543266070580826 -0.13619673376995253 0.20572784789155538 -0.20137034225380804
Ni 1.033518552976733 3.2238475903621437 12.497453421951858 -0.43165736754196626 0.6469952277194599 0.8016751078952645
Ni 3.174887948042239 8.412439978533374 7.71862335767095 -0.06893076153344257 0.016734024925229248 0.6868216156877784
Ni 6.159749803879682 8.542054573115676 3.428020413604221 -1.1512134973482884 -0.6084495062357779 -0.9179447637239867
Ni 3.685948628276214 8.560940568376033 3.9852256022770343 -0.5493802108774474 -0.4768563326761078 -0.7711627982390203
Ni 3.6461450039190004 4.243263142536641 9.170371501298726 0.13182148752039233 0.6303810162015466 0.42351545516112227
Ni 7.153419180171029 5.834743052833852 11.301319434724906 1.763145562816028 0.8802143390527485 -0.3815730492910654
Ni 7.867406371948278 0.2832890178588032 2.1478815559010602 1.8713846350307897 -0.6586623796447431 -0.5853676847156499
Ni 4.598899279045724 0.4310416384728681 1.665281059262759 -0.39511582097250664 -0.6075894722283278 -0.5109648443240427
Ni 6.345074895817065 5.7735844970293275 0.33613062958557655 -1.083826683263198 0.033691478715174236 -1.4198456980735483
Ni 8.097217867579019 8.906327431046282 11.382817105058496 0.24894834914308742 -0.11317276207095348 -0.8972139589345387
Ni 0.39019850998675615 5.0866189463240605 5.772886635361722 -1.7094617001393269 -0.1294660999143383 0.1000634783825051
Ni 7.462810593119292 6.547609657338056 2.2196456047507294 0.09234811201611838 0.8340699792862023 1.6542220629397317
P 8.948754869506235 1.9148741089257304 3.435780708231704 -1.049399869043896 0.04839896012867794 -0.3680045665780114
P 1.9677876933310163 3.2005339088034095 1.4817370633569231 -0.1327375715767585 0.15261271323413073 -0.3844729965466798
P 4.867284486173016 0.9070425138055236 8.149487342063944 -0.2441074761110183 2.1369723925027713 -0.545106523202758
P 8.46111719641861 1.5834171482106623 12.327257169247156 1.107982197463479 1.9428762153128731 0.22156404359286358
P 6.3821909328120965 8.096179274496684 1.0184452875844212 -0.7608205357727478 0.25418825738578804 0.9207680921053949
P 1.891359997123037 3.6045101759692493 6.040421836045316 1.8239341548583101 -1.4502839599587474 0.6227569239973855
P 7.050808005729441 4.294454848937003 6.021353631472268 -0.6742206390943163 -0.15709183205140687 -0.9388072089952928
P 2.3738866989896983 8.459285992826072 10.2374985620012 1.5654709242462523 0.18707038069136817 -0.6988232681343448
