# total energy = -340875.82173267164 ev
CRYSTAL
PRIMVEC
9.19877952987817 0.00000000000000 0.00000000000000
0.00000000000000 9.19877952987817 0.00000000000000
0.00000000000000 0.00000000000000 13.46334366886157
PRIMCOORD
 96 1
Ni 7.390363833436307 7.915586545956503 10.970336556314365 1.6826723478606245 0.6958513299902145 0.26979408224384505
Ni 1.7122056215253707 1.0768643197346486 11.75631247163775 -1.1690330420282125 1.0960203971159124 0.06415185208756048
Ni 7.345280615157563 6.977513411161602 6.878919972713649 0.3631953181148261 -0.6601088822832825 -1.368580986361301
Ni 7.105330452170203 4.471968251331385 6.648158470558494 -0.6091043662109573 -0.5755635541410346 -0.31251733214398436
Ni 7.7353272630774415 0.6868397488855444 12.478257522689622 0.3088208571290036 -1.4419687552248328 1.1846450375338566
Ni 4.648529624855609 3.4645455179640576 6.331244879215131 -0.5269223960945635 0.8460217523314397 -0.8905260053914018
Ni 6.695911174645134 -0.02924016036373095 6.415309765337139 -0.3624651248170209 1.0337575345209489 -1.1398574489055209
Ni 6.490373645728531 6.080770392613669 8.85529890325646 -0.7159082486410896 -0.2379118888232677 -0.05276983550286396
Ni 1.5077443498090566 5.347508083155687 9.622197469796271 0.33420355886816633 -1.7383691272022963 -0.8654577495688643
Ni 3.6049372905350023 9.008925879757104 11.27427158967579 0.11874357129051162 0.28869683268561896 -0.7715523203679551
Ni 9.059050029196174 0.4271434858457148 5.591528706067216 -2.1414970198460024 0.9035303880708697 0.6168238463424022
Ni 0.2741116703780506 4.646469098249929 0.9558056220170884 0.6326510431826459 0.39062050420531436 0.7580434872482429
Ni 2.0437756282295836 3.1023711718977993 13.303547181795848 0.3731282609578219 0.5957737105403224 -1.4334671455117247
Ni 4.968831126685009 5.925274224120729 6.981134050768725 -0.6909317812014101 0.5825240446192677 0.16330310306844134
Ni 9.288927528642374 3.652347800024627 5.865668892661684 -0.14519919437887896 -0.1760344345921807 -1.3165534283411005
Ni 7.013287464596826 3.7711040432359293 1.5484995423379238 0.26394148011780993 0.25340407092159584 0.16089526495789708
Ni 3.921126937932531 6.3019642442216455 2.988404733166755 -1.5547900474936382 0.7102497648037317 -0.814216949116017
Ni 5.199729690654559 7.754175562251722 10.06419974415161 -0.6920134443013631 -0.2933351027885787 -1.0878975108984619
Ni 8.320314445941854 4.324732586820145 8.796140632480611 0.617835061215736 0.012671424820081403 0.07692072171745462
Ni 1.6288002878927699 6.920554568561726 2.035253878910378 1.563524599153159 -0.226167603803146 -1.8022818666958575
Ni 1.7012406763737153 0.2880772573992279 8.523225723314162 0.009398924716396717 -0.7320061826442168 -0.22373045511656306
Ni 4.009619196622905 5.330803099602495 9.794596395601433 1.9225611579046051 -1.0793133687738767 -0.5112957453009
Ni 5.522349284915348 1.2694039732323843 9.738238233302232 -0.44485406873789834 -0.4823181271216273 1.5644026308827381
Ni 2.59997063129141 8.30854000819511 3.750887885551539 -0.7955096025145009 -0.061271959436604156 0.48751175550742487
P 7.55587747279347 2.1123065354274306 5.943271636192217 -1.0146038444106333 0.4695860242669397 -1.1909833210470586
P 2.9049653640500424 6.950846149421124 10.388935057695017 -0.9688387223603766 1.8388887192856138 0.3579494963348545
P 2.4840752085013875 5.967505820757684 13.564722608577615 -0.4204599561642501 -0.3186458136392254 1.0138721084509315
P 0.6514879194288943 3.7957383747091953 11.262948812001987 0.5262791060836098 0.03194030035202241 0.7087258719600376
P 5.353432097147019 8.461635295241253 2.570246615126524 0.5505150958128391 0.4838597605771344 0.4178909098854932
P 5.533764970261997 7.884062328645493 7.7894997953699034 -0.7153963420016776 0.8728571273567289 0.6640974346173854
P 1.2476856548573352 3.5391476196250697 3.628249757395607 -2.579729726612641 -0.6202842940871769 -0.4194675103439937
P 0.15568934286222239 8.557891323820884 11.940760878696397 -0.43477971522103187 0.31011232224691754 -1.3704452932635496
Ni 0.935975813071263 2.5474915943029925 9.210906240645063 0.4578036869200309 1.0761876786607014 1.472203128629342
Ni 2.707283592817596 7.075774773669977 8.113361224861794 0.22713228170926042 0.18665231931734305 0.12119640370637835
Ni -0.2038688703171811 0.5354729125055058 10.037070703680751 1.0183391430833493 0.23610131797709014 2.066341103338454
Ni 5.212083651509151 0.5316544991393546 0.28088473171627537 -0.8574608474063168 0.1783520269817638 -0.4175715788728615
Ni 8.402330763871518 4.50387881738096 3.5703848350160023 1.4060499298410365 0.5886486694597669 0.06553227737485488
Ni 6.45373490702128 7.804124934880488 -0.12740769532131233 0.5964445113551018 -1.2630585417467537 1.0526137479955033
Ni 1.4629370949150016 5.674515495233037 3.9646849985718924 0.26668099053616007 0.5005999561499507 1.3242235432918483
Ni 3.2858316300392567 2.841135033171404 8.238354240567077 0.3087264976429845 0.8965804391155979 -0.205111297353479
Ni 5.754692057264773 1.5990882301412201 2.235615254608158 1.8202803601558069 0.7181584781278469 0.6555729420861419
Ni 1.2802769305891433 2.269780441510644 1.78894184002798 -0.48078600674781713 0.5347179808795824 0.9563380187902046
Ni 0.7122559766154305 0.28554483340572895 0.8183556191269319 -0.2591404591847408 0.7040546917366133 -0.3324220414877114
Ni 5.15994496936185 1.8158758663736572 4.7810214856008475 0.6946064018395198 -1.460358313475614 -0.14360356775698493
Ni 6.458030737042943 4.131447832183748 10.34185386451112 -0.8930932518979458 0.15668096976623339 -1.246463099281918
Ni 4.843488557359121 5.371268530577438 4.735313670194756 0.5687976961721107 0.270159950223696 1.259910225925759
Ni 6.5367354943563365 2.4923725076010466 11.779832830914822 0.02272263840849635 -0.9482344158464638 -0.04663286936719065
Ni 6.243515199344449 6.295543496137874 2.74477229874969 1.138510705069639 0.5080697821644347 0.9495847592267711
Ni 8.099378160159588 4.924401021750029 12.532905631881698 -1.3312981907504426 -0.542109131137331 -0.31468040123357416
Ni 5.190328538016143 5.5057730842750106 0.7829633150405271 -0.6208203690963049 0.10641256052898447 -0.16075513983560702
Ni 8.591706037224816 1.5918487906828707 7.794979508311884 -0.425580308109951 -0.30067277410057247 -1.3931849009529103
Ni 7.4108771116982135 8.893701967869825 8.763532798945722 -1.5671647670089075 -1.1466875844534767 -1.3927110466402854
Ni 5.730352086735176 1.8489638761979064 7.570693946917438 1.7982596329103417 1.2394730411173298 -0.6345346333586038
Ni 1.2843427911235659 1.2547043236079332 4.045344496526835 0.9985748159722286 0.9111886759470759 -0.1265005895281112
Ni 0.6479399501797386 6.099913052731618 11.667252648252866 0.9410463827384569 0.8126190085012778 0.5009115738530986
Ni 6.081018759659889 5.971028953302218 11.926758496557259 -0.023016258389515203 -0.4787712903106336 -1.0683363009370825
P 5.325725373324211 4.142872716309886 8.236981782667222 0.08834618994557689 -0.32521009712030446 0.679086708937366
P 0.5879031959626289 8.722209121844394 2.916093127598664 -0.8175683820867533 -0.046113249418294776 0.10557798044283108
P 7.528833061093916 5.905441655541058 1.0088660218692522 -0.6100896129423622 -0.19908463154342487 -0.7857034150573565
P 9.183435925455138 8.10936803468534 7.405593332759361 -0.013761058339834363 1.1618087563656312 -0.09016087455681247
P 7.68267344927872 2.1944884313879087 9.564076821346855 -1.5145198871196819 0.6899434491462116 1.318636279012058
P 7.806599406563202 5.958895763155378 10.466551599394785 1.4183079212727832 -1.7877641326956566 0.5742630901620561
P 1.0785844914992118 4.1336647380407525 7.7164081333010905 1.1271721401283685 -0.7791242191779422 0.1621877585170755
P 2.9931080691198098 0.8751663613770233 0.13806080184826888 -0.7070705957448017 0.09753814085749009 0.6886129032602463
Ni 0.45712690759220903 6.02830975318423 6.984702257332758 -0.021792670395059242 0.2763984749342401 0.055126251550182484
Ni 9.064900452951587 7.32883319743008 0.28563314168882953 -1.0724444095681853 -1.0151206361460519 -0.48627736887969164
Ni 2.601608014040567 4.472060239126281 2.0299489427787 -0.4436909016677327 0.7180291516388343 -2.9180956443886132
Ni 4.124567145125495 2.12084300279382 12.062846160205 -0.9186194211935083 -1.7613427052793345 -1.4955698283797403
Ni 1.532893812933743 1.9201440318887704 6.644429285353392 1.424405549530089 0.07769179555552426 -0.14872880479869224
Ni 1.9323416134920381 8.001024809856315 12.833339609769366 2.202394369552007 -0.5058128678094579 0.11126191820148582
Ni 2.7779854119749987 3.529231335335233 10.779143604133912 -0.4477658430680547 0.07680116542045483 0.3197670717278622
Ni 8.003195721815871 1.7798534458922117 3.432694743981166 0.21735874726226437 0.23875495354985332 0.9768050283953049
Ni 8.634636741102984 2.7196835475696357 12.927973893524975 1.6865876237546307 0.6502394456883704 0.12434909040274714
Ni 4.669318866502204 8.375985459413178 4.8059556972854764 0.5232025240408151 0.05424564871744206 0.5591861412242757
Ni 7.684338428366346 8.805899617641174 1.722298522381408 -0.3001804078451863 1.3251892496392275 -0.8149417430971836
Ni 7.152538588511055 8.567678825197866 3.9139288929818847 -0.742869864831598 -0.0912610495995267 1.2324225620284517
Ni 4.023895702390832 0.343711475752594 7.2656688581864906 -0.5744299547572236 -0.7454617939284904 -0.07308772112460961
Ni -0.23096847469367188 7.412661674919204 5.018946077344588 0.17083849221353803 -1.3865594252165927 -0.2778002403777732
Ni 4.21793475694538 7.0921945950589915 12.536756240976063 -1.3249812473934794 -0.18848474454039152 0.13266815179140376
Ni 2.664481671852283 5.023131522012377 6.407178044268295 -0.02864363187862164 -1.6744083080796193 0.1334551664690734
Ni 6.358766707570196 3.687882685193121 3.9773811540234996 -1.2829547664500485 -0.13585426282886925 0.2587383386503157
Ni 0.3669034386018841 7.323479507767106 9.446514579713309 -0.6113011167519602 0.9384991908365709 0.0352775922553715
Ni 8.73806781768454 6.760477407882944 2.6071760352656486 -1.7245443055040621 -0.3089923497098614 1.329767098817897
Ni 3.6092883132336038 8.048821668084505 1.4297267413235402 0.22201552930798538 0.8408486927709325 -1.4818702194054607
Ni 3.55826268340455 1.2553390393927188 2.7536978744884917 -0.8517118607376816 -0.00349052965176173 0.25959425889270776
Ni 3.235440715994988 3.8388530541771564 4.0286763080916 1.7741380572717897 -1.375379497340373 2.8900032570277716
Ni 5.240986216665612 3.2554940552824116 0.036605623101088794 0.5887018912952054 -0.11897831300913704 3.2884730820741748
Ni 1.8412552989855846 8.577880271651882 6.211152053343984 1.1288700966560814 -0.665102735953448 -0.2377637932811776
P 5.8220547194674355 -0.0350712666822162 11.701032406294736 -1.2926282849840705 0.968887573320441 -0.3885070574067374
P 3.020437642983542 6.794439301758708 5.4400119295814955 0.26376124578620375 0.9757339068183131 -0.6692517251248151
P 6.954378480745147 5.876134344087052 4.8676049975471205 1.1964317457561395 0.19118491708037394 0.04871134916277418
P 4.554895248430524 4.400769698081541 11.943372412193504 -0.11464523285142192 0.550785061644774 -1.440311679237384
P 2.896419697904163 1.5275861171682183 9.829789086172912 0.7654253815346108 -1.205204349742447 1.1170129402071796
P 4.652595485390032 3.65562256552294 2.4135334481071045 1.3977568365943087 -0.25554091475894053 -0.9821264406082182
P 7.966032652677709 1.8235016545705718 1.2655754412087945 0.1833134847520972 -0.9097979662471364 -0.03547171054404859
P 3.1872391114692538 1.1970371749873558 5.263507588490107 -0.053863582787674974 -0.6063237181420268 0.04533806181516708
