# total energy = -381171.3832433038 ev
CRYSTAL
PRIMVEC
9.20933384584901 0.00000000000000 0.00000000000000

0.00000000000000 9.20933384584901 0.00000000000000

0.00000000000000 0.00000000000000 13.47879097712634

PRIMCOORD
 96 1
Ni 0.7281949268386286 6.184390060054311 5.843257912653905 0.4400805586086549 -0.5841027019602972 0.7057171670407009
Ni 2.3551674310171613 3.629122221426437 2.7887345839969804 1.6802863641269516 2.84498761154903 -0.1806181973081212
Ni 2.2358973473018473 7.462010165367356 4.293426473198789 0.5957264022421547 -0.4148184416077566 0.11708263864832094
Ni 2.5541719278903154 2.3892511758886292 12.784700347413569 0.4508179996308171 0.2576602750947885 -0.37242994933921664
Ni 1.3255823164156115 2.234018643180318 1.4329576244281457 -0.8078149022444153 -1.9264363245892955 -1.1046384778022267
Ni 3.768026605078517 0.8476040714962715 11.329234189929396 0.4473002162855458 0.9354658033268857 2.2890042935327672
Ni 9.189791722467 5.9420740657127675 12.57897395770559 -0.023369013743243624 -0.9891774339177286 -0.23260564611900586
Ni 7.685640421166828 2.143665868002267 5.517987922012919 -0.24542105271611922 -0.4156715336366712 -0.3717419221332566
Ni 0.46241262871243505 0.27712911846019395 9.100017293459693 0.7232682885505866 1.4664122329791778 -1.5937201488999329
Ni 4.895866103369255 7.004794363791092 8.971591289952103 -1.185237162591901 0.5464535241489556 0.5050132547262979
Ni 0.7783701408843506 9.082033306163016 5.501935132041167 0.4625108625877131 1.4532492132346584 0.30175135187673197
Ni 7.316023803923825 7.061146278103037 11.526738486305508 1.2200414147552794 2.0974671353192975 2.147213610614805
Ni 7.968422228792682 2.369239293260772 11.474656940136468 0.5564692565137449 0.28084442652073566 -1.5264752597093452
Ni 4.007211425884179 1.9935168876227995 9.380308897191128 -0.27383611352370263 0.08881618760345994 -0.9198862037210738
Ni 5.952443775716893 0.48287668963620917 6.21035301426713 -0.5466910940810584 0.5281511262953421 0.8148903210339579
Ni 7.892132106524312 3.9632644843746836 7.043895353787113 -0.2931859788052241 0.5651791255829169 0.7458135208409542
Ni 7.522358930604514 8.959613630243961 10.057078903369861 -1.8593233329908816 0.6215438775258909 -0.3492311426252502
Ni 6.424274790238583 3.326660067194173 2.2811372792949838 0.17468229143966044 0.25362338602125356 -0.7358474107671777
Ni 5.978386469395069 5.413412251514821 7.636031581157743 0.676377537536319 -0.7681402093626125 -0.5850067018318055
Ni 0.16677090718803567 7.486009689586497 1.1013599004444998 -0.9022008706261688 1.0230553176120962 0.9531148838672168
Ni 7.543429886634215 8.956464038040222 4.752109321669953 0.7393875627099524 -0.7342533268071806 -0.470690570185028
Ni 5.626626750640522 1.2076291674521535 3.9760949284046565 0.6569659657789266 0.9820675623458247 -1.5641717458188544
Ni 6.830535347185334 6.104674065564329 9.722413550254442 0.35506677547042076 -1.1013664919191741 -1.840254746395205
Ni 3.0147307176828297 3.052028520095541 5.641116716644511 -0.5364498759690245 -0.18241616974880842 0.22131927457190914
P 7.711196322819982 4.785750097579432 0.4075572311639625 0.3509756361201826 0.04588930633294677 2.412865645665819
Ni 5.289841408854635 6.108588032484182 11.846482876589052 1.2339479975340424 0.7443199670145633 -2.6092151376662676
P 6.1866187188651445 1.281377513556102 1.5209067634507114 -0.22562612947737917 -0.0034177674322973394 0.21886335683224886
Ni 7.411883760791457 6.135654264901703 5.495437946954213 1.5759499694007053 1.6723390842554167 0.7332948195486533
P 6.040310030734098 3.688227726583173 5.746925516955712 -0.5054189748051489 -0.08099566311777663 0.6990613522870799
P 4.723900210911835 3.287280955313493 11.540797455481618 -0.14172254868418815 0.1046914640728197 -0.32103411136574383
P 9.107156369121505 0.7208265387619842 11.04217648856028 1.6058940652583054 0.5968240061817076 0.6448547843376894
Ni 0.9448316144523697 3.6325849309837657 6.606926272853897 -0.2914530552745174 -0.6923700563098334 0.03318728538524607
Ni 5.053548318902697 8.663966383119204 1.9738742992854978 0.2996188789147614 0.7938144742002651 0.3633482987529226
Ni 3.5928006084102067 7.727432378536923 11.72728923034535 -0.0698365611771636 -0.3918350933387058 -0.5258412472152428
Ni 5.4099587512914225 4.647057528607721 0.06968058330748053 0.9359604835751172 -1.118889845514918 1.759642948979408
Ni 7.211276839814645 4.497811062953303 11.935657777957578 0.12957768579153814 0.8328703025511462 -0.8913068494214843
Ni 4.713742315588076 6.947236026734438 0.39172086053954325 -1.6670187004837678 -0.6804931023665893 1.7022315009394748
Ni 0.2723881533535116 3.318104595974072 12.935649618911473 -0.9351354165706603 -0.07758715165685993 -0.9702942238599804
Ni 1.9097027395343837 1.2347138185375321 7.291217542052497 0.09517786815542963 -0.19728588777178924 0.48751124128679263
Ni 9.018866484743564 7.372292834230409 9.678702367693532 0.8364616194468304 -2.5742748741456567 -0.029583370084071636
Ni 5.26054651762628 0.011963845707247659 8.473037551168447 0.11594004040344548 1.004505836744683 -1.112946997667922
Ni 1.8920944930620125 1.9330760290463496 10.299049547689066 -1.2544905975720846 -1.0128614077982296 0.376169618887307
Ni 7.419674857295446 4.2289445588942645 4.223997304707571 0.29046215211615783 -0.7440003788916154 -0.9116699864588687
Ni 1.9482438020275186 7.089225537252754 13.355581432075919 3.1195649741141307 -1.9100637967685425 0.3113186838501929
Ni 1.7465317609792195 4.579101853545154 0.3687785678554578 -0.1310424432625227 0.4875379807596701 0.6332308269455159
Ni 3.4904388617886553 0.10902101598565817 0.23052896784573484 -0.34799958421099425 0.49715364947256313 -0.023919744040391065
Ni 0.5264359181872913 8.243173497232391 12.18800826254823 -1.435371047402657 1.2196164114027188 -0.881712777975146
Ni 4.177980104930822 4.764633094880087 9.702303127753543 0.34421440613694915 -0.2699470628819416 0.6692643235303054
Ni 7.327360493990504 1.783313840691903 8.376394800916845 0.2394226690408393 -0.5479249664881596 0.019914222425423768
Ni 0.684927634173098 0.02353261098893845 2.902401708949852 0.8320364937959412 0.4226178830475173 0.315133943831225
Ni 3.0135058762702642 8.841282898589412 9.653119758971984 -0.503979414145145 0.9176220902772454 -1.086084111838807
Ni 0.5944072491175375 4.415019150931013 4.3971990897782725 0.21322929847492308 -1.0341393433403996 -0.957662651138899
Ni 7.583527326561361 8.515217221496956 7.633403237254388 -0.0258706971191748 -0.4457403279975936 -0.3638154681973283
Ni 5.559720939645869 8.6339900011801 12.664591293377317 -0.14792764905363553 0.27907345066324196 0.013610391694583012
Ni 3.1540679400295755 1.4427342533272405 2.7861062400936256 0.5688827996867494 -1.6717266474823986 0.7764559283171596
Ni 8.866350705544326 3.8985320761872893 2.0471861229612087 0.4798776360009348 0.35587513030432905 -0.6562573697476762
P 2.9937886923281374 5.4625440480263805 5.271905310094388 0.04063551413317518 0.19606255688764943 0.04687763838814507
Ni 8.202459031931998 1.9233786004190445 0.756522838004431 -0.2746262135251657 -0.49381995711363985 0.5486366478432035
P 8.88147243185585 1.157834298897702 6.992312032583638 0.5975721972016419 -0.5221897665055846 0.6247901523773305
Ni 8.338858476755371 6.002339946944565 2.8132258866479347 0.5232290064033763 1.1566565227407304 0.51624614732764
P 5.414102951559501 8.579433906984322 10.505599251850303 -0.9113812515738562 -1.120063554108045 0.6231148215574366
P 0.03310663454159388 7.5407868077965725 4.289989549776461 -1.5094211324405358 -0.8757411337727433 -1.370090481027292
P 1.459817567765655 2.252271543027724 4.017676912961169 -1.0328540488700728 -1.5460626949229697 0.7652811426472628
Ni 5.362171517533507 5.593021891133366 4.777975577876516 -2.1394118551821992 -0.444531395291157 0.3046685255235269
Ni 0.7164521051456786 7.770292618642788 7.509789110724734 -0.04250419191079777 0.05482388981841526 0.2142860218742116
Ni 5.446317201643368 3.1579358602797827 7.946839233796526 -1.071857940937096 -0.4651344162534892 -1.9358928420165047
Ni 5.347629979259514 7.330979762224626 6.530501694310162 0.11112410707204089 0.8934863735713063 0.5134636994864964
Ni 7.484324381477478 0.3925174679244073 12.659307898502213 2.904809211692352 -1.93388018246185 -0.5595113857741784
Ni 7.181374132546973 6.930125084294237 0.4339981498076995 -0.5683217849769567 -0.06912436560148741 0.779182068999071
Ni 0.9355209778500855 5.156066624201043 8.42653594042703 -0.9290755835298258 0.9565282804241397 -0.3980584485405983
Ni 3.660084002095952 5.5979949314550606 7.420478832147453 -0.30509764264114553 -1.422978330165259 -0.7152456753564262
Ni 2.505233527391267 7.9299180036352634 1.995885528309355 0.2614084292833111 1.471229451862163 -0.635736366976189
Ni 2.8907915016654804 7.593197127186879 6.641647303633256 0.16249680511706208 0.9643338925114875 -0.38969156463314175
Ni 2.694052500938876 3.3975903571158277 8.198555195279466 -0.3091386454797386 0.6488574777391792 -0.09141171624477806
Ni 8.27841761817892 1.8939547785156836 3.1617466826596297 0.29595839934403867 -0.239160159408072 1.1943974889349303
Ni 1.424508981481622 5.802607912691014 2.4108166731503196 0.44257812821952813 0.4994254762258754 0.4470605894709139
Ni 1.8569424654547735 4.194529278001351 10.45617183571962 -0.27031575907526995 0.38919097084763943 0.6230821685472882
Ni 5.915339369316693 1.5123936551666843 10.473290145626965 0.9288027894844133 0.17204793914060693 0.5961478060502895
Ni 6.2401341583269385 6.717085562513188 2.9089117871043078 0.866127007721747 0.5167688526003293 -0.47717823479190086
Ni 5.190426649090384 8.277091474093135 4.424804068230643 -0.4415016073258977 -1.5186781322624296 -0.24985543433838903
Ni 1.806466106189571 6.524665739399315 10.933536738999283 -0.7902529821012519 -0.6453067842734435 1.2112839802776236
Ni 4.386857007775934 2.6791425893077205 1.148895719386152 -0.6391947578384346 -0.2503398301739753 0.08420825651780336
Ni 2.4845125260508722 6.892753607210094 8.927178356145797 -0.21666532073966557 -0.922068041863741 -1.054680400716545
Ni 3.29538516917107 0.4299561731462331 5.217896250333996 -0.17158668323347223 0.334528803418069 -0.23496720437264693
Ni 9.14648022499861 3.14801740763818 9.249281256848578 -0.1264864484607241 0.08892597370844685 0.3262182266698446
Ni 6.222047026490256 2.1685034416089537 12.866072180143997 -2.7706333650071704 1.618650079372393 1.1100686476788624
Ni 4.063664642869345 6.505832651514378 2.9142495170495932 -0.7747335463094142 -0.14263554741676082 1.4919923954411274
Ni 7.646795450654034 8.88895041100625 2.2803148857751183 -1.1484400483682093 -0.22820006085214248 -0.5559128697896426
P 1.341376324103957 0.30429204888396966 0.27638684614551134 0.03350661639787778 0.05155241815599509 1.0962561672758024
Ni 6.490434645184982 3.7341915122231337 9.900805715927566 0.22925884113395997 -0.07078041314767165 -0.4011262888326447
P 4.145544830832657 1.4077756217325117 6.945230233804688 -0.4257510293598603 0.7444163833831114 1.0298859673806844
Ni 4.5938091598298705 3.319881997422381 4.018539827550321 0.8568905767251437 0.5220097892842945 -0.7408811165363434
P 3.4226029080671667 5.338273295987585 1.36614298583939 0.7389952123675402 -0.8819153809042553 -1.2586475571632516
P 8.748535696589805 5.22698770478877 10.417906132310964 1.0808961398799641 -0.9177989821747419 0.3460445173671524
P 8.140259190575096 6.163623012044271 7.634804897878392 0.5528830818243833 0.7277378942861661 -0.16347048188424104
Ni 3.4821872985882134 4.997739755292567 12.383342839850654 -1.8476746930083596 -0.6466157328928541 -1.0430510440077325
