# total energy = -381161.43089802633 ev
CRYSTAL
PRIMVEC
9.29114723770232 0.00000000000000 0.00000000000000
0.00000000000000 9.29114723770232 0.00000000000000
0.00000000000000 0.00000000000000 13.59853314594099
PRIMCOORD
 96 1
Ni 1.284250263111766 7.034402004037121 10.059515038711499 0.5916925984924133 1.8300567228162803 0.1370775937130091
Ni 1.4857845407439785 0.48444506951649896 11.118378790659293 0.14684290062988903 -1.031974731588913 0.048548598332664776
Ni 6.097789310972234 2.997082572169717 4.682478123040036 -0.462708580420816 0.06220398433257029 0.7461842739168117
Ni 5.474845753164527 1.6634498607791621 6.79433083445271 0.6557853152072641 0.2880108623621878 -1.073081786041868
Ni 4.782376539576919 0.9321157777371472 4.435882709771455 -0.10692163895491909 0.11691063184683091 0.012027363478179285
Ni 9.091053221572322 5.980646524914102 2.0204835681627 -1.1823541846171508 0.46392496932642036 0.7475150769130933
Ni 2.403666280708199 7.925618151045533 2.191770515527444 1.3378539895910897 -1.080015537047224 1.2330902775194377
Ni 8.008820375756079 3.5238813369785698 3.411150916807098 -0.729895306948801 0.29933914289081354 -0.91799104358089
Ni 5.648915399166994 5.035216532993793 9.725970280997501 -0.3535544525909524 1.274090374080883 1.1086938788185228
Ni 6.374461097396651 4.986865402073226 2.1040741628333697 -0.4570426403842903 0.6050973019340934 0.9633771850251732
Ni 7.321563495843805 1.792894125956977 12.233049819293171 1.1641204352179433 0.6300182335454892 0.3816658661151879
Ni 8.11845591473815 6.581040468051513 10.584676703353518 0.04337888120626723 0.7867223432401742 1.600684753143224
Ni 7.275460822587107 0.9100873964343851 9.737868524321268 0.2863998091213261 0.27639076162475623 0.9585208853741362
Ni 7.9266680506984954 8.843286194620212 12.51082725225478 -0.10041211997117545 -1.610056424166111 -1.415646572390536
Ni 8.04927403141099 4.400305977371773 9.352160477920233 -1.9712144001359344 -0.28662503775825476 -1.278008735298683
Ni 4.0219425829677995 0.03247813475133291 11.3214591152141 0.2239178885370208 0.6727980477151768 -0.29453966461964115
Ni 2.5763701280470754 0.1238305539360381 4.001517853701334 1.1637946764474085 2.900238047381902 0.1570802620871811
Ni 1.1841381501853407 7.826964748256411 4.340828697474 3.3644743773011534 -1.9901474895950113 -3.3376652275281096
Ni 4.049881063113485 7.303139150606394 3.5859740748613818 2.4636793858835766 1.7680612549500907 -1.2963769533932255
Ni 3.5895883311888412 1.810472976783594 1.854227777099549 -1.9400330894371234 -0.9294987871101734 -0.4540660742544696
Ni 3.4908420169260066 3.1313582339806403 3.6795861010868016 -0.3560725910271158 -1.8839105354119425 1.1172937046723919
Ni 6.95069805736852 0.6090012620622405 3.4335212123331256 -0.3611584901904554 -0.18208526877195091 -0.9812615215047616
Ni 7.72824630743569 4.623005488715948 11.977452213336477 -0.3781825355522777 -1.1021406510810374 -2.0772510653827387
Ni 3.383510682492033 8.874662399293301 13.552080563474894 0.4579702944048822 -0.9998968772177619 0.11682192878776654
P 1.8467549072687626 0.29516581526711283 1.403994570433879 -1.3800604477558103 4.1282557954744385 -1.4849830540028297
Ni 8.82343101268761 4.338334024404789 6.5699412634016845 -0.9720595432905195 1.6723282856221393 -0.7981655520801092
P 4.376121120764118 5.680077907450542 11.676965357969785 1.3670205838527167 -0.8676616991987186 0.5038482878839193
Ni 1.8980141673165665 7.8394985060603775 7.8113649118198945 -0.22986510725939122 0.8158920228255949 0.07965920369454023
P 8.125637971656213 2.4637149661693116 5.445342643801506 -0.5070369700245462 1.1172273702108309 -1.2966967986264895
P 4.940270298005846 5.783990099651855 5.6865529080536446 -0.9085065011292224 -0.45720796231756095 0.22318486702573823
P 6.117737404378548 8.392321774656414 9.527132294332457 -0.7607377462509544 -0.5957287162349998 0.07065340065150413
Ni 7.225372247108094 6.761651081803418 8.542843007646166 -2.611775956414909 1.397716984495309 1.5733117604469098
Ni 7.739377101986581 0.3978859532606794 5.556143292663945 -1.2611245579488344 -0.37114825441331567 0.9608153378352677
Ni 2.9725911076988067 5.195265837612874 10.086562497824271 -0.5158548254264923 -1.0510008949824288 1.5090565500122657
Ni 0.9737587002555915 3.973693654668317 8.437304864654864 0.4793456747568648 -1.1089908412336513 0.6294965567140642
Ni 9.219930726760483 6.097575614582693 8.320738129733757 2.6972977895378127 0.6036816525334894 -1.6089937872295514
Ni 0.6436293683153065 5.032633594024555 10.699312737850857 0.15155187606978415 -2.0479507737567246 1.5502710765773624
Ni 3.1913976282943812 7.458161944497569 5.630363765210596 -2.412838134861993 -1.231143695316028 1.3579551312163387
Ni 4.780936411734359 9.137416046955417 2.047231852330114 1.0513441372544605 -0.4826143182058076 0.4397805108697329
Ni 6.490879173959817 7.3084815603449265 3.1749179202017968 -1.0676706423286257 -0.3522455039715417 0.9759503937044935
Ni 4.026820435337765 3.2826088220390415 12.141599843061066 -0.8253829930351656 0.6910868187220356 -0.2736615356190513
Ni 0.5140494523858696 2.323195653324833 6.745076604007646 1.7248512952215198 -0.05749860843710097 -1.7557451565868987
Ni 7.762874413688755 5.420650490547374 0.36908060906524587 0.37442512539237455 0.4277827150779084 -0.4487387485042852
Ni 5.30601631427951 7.9017956491853605 5.387113164995705 2.0106219553992792 0.5292705846117659 -1.2745655139450887
Ni 0.8809419962451598 2.5405620460778464 12.273301857050122 -3.0851579573891708 0.5454600498874348 -0.310281243724614
Ni 2.617455581723238 6.645502448514022 12.413570308915576 -0.6064720707944329 0.09945104160948678 0.06852606989585619
Ni 0.601576706197785 8.919520058802236 6.060512298603593 0.20686144727536632 1.4390862914707152 1.8213075158687408
Ni 8.442744831440796 8.880097720505548 7.929903228213204 1.1855752626576097 -1.2479792788161281 1.4584186732507398
Ni 3.726790704421744 7.234895673163741 9.951692202581581 1.047652547335486 1.304989891873217 1.1009558867443168
Ni 5.660445713054855 2.555678742851052 2.2972138888155564 1.150606717002225 0.4080759806776005 1.0185075503404135
Ni 7.823657099792206 1.691221100272163 7.55620213156018 -1.8131427206697612 1.6590287402997557 0.1894090561268738
Ni 6.257030285770007 6.880456983241023 12.262014971223392 -0.6508007175084792 -0.3091741267033643 -0.05263202437341903
Ni 0.827555992564051 3.3177479413975326 4.084836217754023 0.9719579847156486 -0.8871545178160076 -0.38634681653062497
Ni 0.8817902780001651 7.909237858229821 0.15294250599472656 0.07264266316739103 0.08087559260014458 -0.6591694011881487
Ni 2.281896503259129 2.7059351781407184 10.573063698254053 0.7173629788097452 0.08360070484079152 -1.345826723383921
Ni 4.998730197266455 6.8513849831160325 0.9567698372870562 -0.9905550309915456 -0.30090545893666887 0.06084412787056617
P 8.647791162779384 2.9785374420164783 10.708518406666402 0.29792863569653205 -1.4185028108924087 0.9619677062721561
Ni 4.307273718742326 6.821606855790817 7.782018822847447 2.575055975286056 0.810386005405701 -1.0520401348802204
P 2.1201933744079455 4.044678020585522 2.1926959138056312 -2.909525643331415 -0.5253501665114372 0.7222719860755884
Ni 5.4464055510607885 2.985988942208311 8.720182208408614 -0.32477095270035683 1.4853556068509 -1.8656832137706385
P 3.1585720046313597 3.6231851200836864 8.795394975494526 1.3189838921594639 -1.0488735642267808 -1.7266662369430714
P 3.099526763086354 -0.14402579186243047 9.219343526246613 -2.176822434620174 -0.23040581025420964 0.7800184488574372
P 0.8055434062118202 6.620537135527172 6.0157057404052 0.15690362730000074 -0.8346741885291044 2.716033418274103
Ni 5.799264745930374 2.7507928376496538 10.90021707569129 0.1483876194091896 0.13703234229737044 0.1571946761778583
Ni -0.03599483403139342 0.9079346375884405 13.732614989818353 4.75158350437363 -0.7701297289888156 -1.3948208938944364
Ni 9.05162159212826 8.489841657466231 2.169319387019285 0.9328913577314902 0.6554161047933035 -0.1082447286417168
Ni 3.895025509874995 4.192500175263891 1.261962658797343 1.2741659645138248 -0.04890083946576094 0.30483539011869437
Ni 6.9397995415019125 5.410551013354703 4.885775860443333 -0.10096619270243258 -0.5224903284651389 -1.440835670061654
Ni 2.6937637750842343 1.815062803585047 13.273474360167759 0.20999176537423192 -0.6866591219679852 0.3419814030413723
Ni 0.08421403065928779 5.785653215031329 4.21134355124775 -0.23639905172316705 -2.3597312277346845 0.7825075338278781
Ni 5.464634782203401 4.547199017313006 13.364162462315413 1.9975661506565858 0.8170346210704703 -1.0592909029053628
Ni 2.602078732823634 5.756692708674793 3.6027678237351184 -4.099715779053216 -0.040967700661613315 -0.5913552697576525
Ni 1.8726493349927484 0.9892934986605088 7.807733931427166 1.8741871374765917 -0.6777901016131295 -0.24972250830495057
Ni 4.844014011238535 0.8657212386213945 8.985529944416815 1.4674208767493502 -0.3237047162193715 0.550541063954768
Ni 6.248380227567269 8.637301457397117 7.194440159279357 -1.0488823059775292 2.1687643402023875 2.7770050728614692
Ni 0.3158107447262791 1.5681877267805877 9.17392375232171 -1.4484628475896089 0.48744773503870886 1.6892561717257293
Ni 4.566041464182128 5.019458747051964 3.594323099889287 3.6258316416315552 0.18953349751988005 0.7044745528828512
Ni 1.8073604424141878 4.206520516647276 13.539447390394052 0.4319993242624173 0.4780009878035123 -0.46931477288342394
Ni 2.489776634545982 5.677699373723474 7.784480047786121 -1.2751951771092878 -2.1837165906368456 -1.154996104319172
Ni 6.33455561943665 5.272986285374318 7.250139658655934 -0.7273116053820249 -2.3730950506361004 -0.1485665681892151
Ni 7.438148813059655 0.7694324328382847 0.9907085404051672 -3.3955379314751775 0.4167861068570886 2.0237073278283275
Ni 3.84293933771114 9.331749685374824 6.954412658087591 -0.023427120674688686 -0.3936459212951995 -0.6592174808172646
Ni 7.515460450336758 7.096364665856734 6.352092660100097 2.342997974140404 -0.4732202785854172 -1.452236198589112
Ni 2.42802766911591 4.391107741474125 5.3364318143144 -1.5060707279110643 0.8665682090242237 1.8851860596902565
Ni 8.441899337030003 7.886465256022613 4.294240097209779 -3.889081237888663 0.08827239928484798 -0.10311383517305468
Ni 0.07727726003182893 0.8143384063135514 3.821718357114949 0.43414825228462 1.0388452334565013 0.49003863569433664
Ni 5.336732847489232 1.604692644802669 13.803191474365955 -0.9171888593945687 0.3514284073868851 -1.7557055615982151
Ni 1.8385601152872213 6.096581461813956 1.358703943457438 1.1302410088616792 -1.9093881108577568 -1.7757154290612387
P 5.7937829689812705 8.811194571599527 13.41969936661299 -0.4221764246347245 -0.5722051791917628 0.12495175698375253
Ni 0.1837454468750029 2.821675000945774 1.1528604316743878 0.9934459793860956 1.5191159911307965 1.4235275178005096
P 0.1605231531350208 6.3818568507042555 12.517966569894934 -0.4106514547142605 -1.3850118782238148 -0.5460642591303371
Ni 7.219212216400882 7.653991457643765 1.1613850593876125 0.2083370033796283 -0.21264720071920798 -1.7215811091106803
P 2.485623491670983 1.9566413072298605 5.439998375833498 0.12266244672894361 -0.05523295233137585 0.035770729841706136
P 8.983628975664635 8.557880729666714 10.310339782263526 0.14764148527178445 1.577905036244547 -0.12091306813800468
P 7.442998791987506 3.3191323223558657 1.2003205415620417 -0.6765467161243316 -0.25366220967898895 -0.3018829923585898
Ni 4.238268367215221 3.7194228245562533 6.398776030067505 1.035923688934332 -0.3008046716927465 1.1278586246724316
