# total energy = -381172.8886227744 ev
CRYSTAL
PRIMVEC
9.18440574296231 0.00000000000000 0.00000000000000
0.00000000000000 9.18440574296231 0.00000000000000
0.00000000000000 0.00000000000000 13.44230617878536
PRIMCOORD
 96 1
Ni 3.780200254403348 1.824904625121001 6.052169591369089 0.9633100792326637 -0.46211414136992673 0.9144472920936897
Ni 0.42030410968759985 2.8207237859432848 8.576594354677338 0.5040951137874029 0.4900265515094786 -0.417684707411958
Ni 5.874529413374676 0.5392972666865716 5.733923513472805 0.7899539628035943 1.758693183471629 -0.19538455698401833
Ni 6.607224542484739 1.882692904206948 10.003307244670074 1.1004519505247048 -0.6806440261221569 0.9499495987653576
Ni 2.9705398076295486 6.419238131751877 1.1281453192117625 0.3465227425551516 0.9794697197116614 -1.2352525752780792
Ni 7.001887629039448 5.1872787224269254 7.526226254571017 -0.26498714777350496 0.9481210301970509 0.07186541868173428
Ni 3.7815687308152692 0.6305728064806039 9.269451206711238 -0.02365414908383023 1.5407613373147142 -1.122752156683802
Ni 8.729364081156042 4.1522697035531895 6.303957311435445 1.5317658186843233 -0.6891854879342647 1.0962803356455184
Ni 8.277592361518622 4.532678592850844 9.349916701291642 -2.155407459279507 -1.3479597105665237 -1.8680807674685376
Ni 3.834994417312878 1.929165995779563 2.857431099201836 -0.6362989243478784 -1.1152409359084212 0.9645429231985002
Ni 5.8023859085717335 6.237653251617061 9.597134261206508 -0.10878851696032876 -1.8170109453759156 -0.8674616673727705
Ni 5.9078045143168865 2.192822723007834 12.394679363117817 -1.2193050508098873 0.21378182854428346 0.16296783121620964
Ni 4.299826361498966 8.346695828117902 7.431538708152631 1.8952519285666911 -0.4058730594890107 0.4621077136120235
Ni 6.1674568407693355 4.004703861201964 10.978465166993987 0.17244697435123849 1.4057591380734953 0.15637732248288552
Ni 7.059896333856174 3.395860439573465 5.045905924670051 -2.2062098866433555 -0.7286748042781386 -0.6229009057744176
Ni 0.3244712679097077 8.678758007131318 7.0137382673904645 0.1073957503778602 1.1620064741987344 -2.526319429312301
Ni 1.9495186382548424 8.288889180221055 13.000671945294904 -0.5196775416066921 0.4843824658498238 0.7047170079109606
Ni 8.106835895408334 0.7135438068675296 8.164775717184192 0.149796069720942 -0.6780374417372451 1.115354321557834
Ni 6.956130921091866 8.043068568375002 7.047478099248401 -0.5627954558420888 -0.906516210172071 0.6987021691754483
Ni 1.1030103568191192 5.974354716201306 13.030675561016134 -1.2551441719956835 1.3810050710572668 1.5842361206688973
Ni 1.0833189915361774 7.202328093561334 2.0173408802939674 -2.841608667774467 -0.9539890589420538 0.30331278282658086
Ni 3.4840399162905937 7.6001781688068935 9.8059876411198 -0.07392615786550495 -1.2985148256718344 0.8372969708639322
Ni 5.260579462316459 7.698846236546933 4.9092245212165935 -0.6724504345677709 0.7966254612864989 0.73624773152939
Ni 3.6547412759681865 5.501018012569321 7.953314884563891 1.3858924810565552 0.29126742162627256 0.02971603900719398
P 9.074357903041838 2.5792841354964673 10.628831383475287 -0.16109272568068386 -0.3332933883490712 1.146752119142825
Ni 9.21710193253227 5.352184722266115 10.965695169657511 -0.024945871312060264 1.2778315862908702 2.719161936600756
P 5.381914642704959 6.389094913067821 6.702844306056211 0.08538453621409166 -0.6570443844253459 0.4400296507660615
Ni 6.795890599220836 5.8107988239631405 12.6130229891817 -0.15250781222515028 0.9032809910642251 -0.5306916333290086
P 6.42652136527304 0.8520033112159394 0.5565373141551399 -0.9441067668313353 -0.4528926227716587 0.6364601325160909
P 4.831621805814685 3.4385771093173836 4.199672256957256 0.07453062421872325 -1.2590388790643996 0.5153400905736027
P 2.4612553410696547 8.652398763492306 2.2091489221342138 1.030652927453696 2.048249793054382 -0.22795529183118807
Ni 2.9940610699847787 4.409910645212278 3.431081716030346 -0.07429125451440755 -0.5134775834435673 -0.7846981137212937
Ni 8.014486698617299 6.693337527975813 1.2114019546081565 0.5817054053727143 -1.8774364976518247 -0.29548763035520725
Ni 2.2057268126638667 2.3116413763032724 4.518375718244909 -0.21567801712573179 -0.15914280104316464 -1.589967623836036
Ni 2.9140189764955813 2.545283466523776 12.479836252001636 0.9314849643022667 -0.38241482846607044 0.64828694994769
Ni 2.922790083699504 3.111713303788177 8.032315466475156 0.3410488639247739 -0.646417500839119 1.1833461162167747
Ni 2.805707283033952 4.031384559031697 6.0642002440669085 0.06455242996008882 1.5344032563071703 -2.5198430775593375
Ni 7.256516085711221 5.897104681968647 5.179226754169671 0.9528719146184751 0.5118709010780798 0.7793633317719416
Ni 3.1851701785703455 6.799371488886058 3.5389690899602257 -0.35554062978304574 -0.2578628780238978 -0.2616174599703236
Ni 3.4731931334551676 0.4841403197618012 11.52515036942384 1.6509901862659953 -0.9553327174541418 -0.5337723291368615
Ni 5.361718135122315 3.658020108713527 8.799481506116907 -0.34870689469066396 -0.09536838689968091 1.6931130835779744
Ni 7.911226428152693 8.919710884089332 1.7349038808033086 -0.13717889517756374 0.8767405215715354 0.23708450782596585
Ni 4.413722173473669 2.8544672915634006 0.9641467386309476 1.5037855314213133 0.6788337123862954 -1.3328030574307435
Ni 8.280347683153362 0.8066718412406519 12.84662374957768 0.7740504041994605 1.2443514522555537 0.19518143983427677
Ni 5.257465948869203 3.791441966673087 6.660797179469534 -0.9123089055944482 0.12226752528337007 -2.411716876773356
Ni 5.72347349695278 8.40255538205953 9.752514195713857 0.8998804500231083 1.9651687081624865 -0.5377716801042416
Ni 8.29405081608347 2.552052373339787 1.7252529075573593 0.17005687685250712 0.5870471293006019 -0.5571822234203694
Ni 1.9237655653754724 5.260074320016756 9.434899086471926 -1.3398921030670408 0.0199468754355721 0.14562599750365243
Ni 3.853050958425874 0.47779940623971956 0.34645138703057365 0.33444884210975306 0.33180086296394473 1.170753367153429
Ni 4.757347518947545 5.586837097086023 2.1291803038886092 1.3782640179770198 -1.0176009793657443 -0.6098438154801432
Ni 0.28419213937198845 4.75018368269722 1.5802642093751604 0.34722131128407296 -0.18890511990726178 0.6692198434456152
Ni 5.974474113472145 7.665644610848315 0.47355529248167505 0.536932729142714 0.9170610755674529 0.6980480805312173
Ni 8.318793604363433 -0.12299572089370406 10.385377592913477 0.16759555979620816 0.029317260906878542 0.3127014231303324
Ni 0.2746844428510456 2.9018129016536833 13.122687690127186 3.6766320121128744 0.4519246024314346 -1.8117615240515186
Ni 2.3742147306282178 2.4764279788716226 10.131801669106174 -0.6535006329381455 0.6864292653453661 0.3778194957859042
Ni 0.9287730010436105 1.2656937305396183 1.0463958447495716 1.5490932542191773 -2.455855518963783 0.03231542430325402
P 1.3760076243891592 2.8359974522051936 2.3505887660508673 0.6891692899843486 1.2674386730923204 0.8027752829379787
Ni 5.790097174080793 1.1587964355171554 8.050394968601776 -2.303390901271743 -1.491796220269921 -0.8232600331548918
P 1.3698448883327907 4.836296668188294 7.403430753716103 0.21416286603278598 -0.3585501060333309 0.36172438999625445
Ni 7.924259099485012 1.308575719581622 3.628562046675977 -1.9762221377631708 -1.6652109578510677 1.350703334749932
P 6.110614555444649 9.102893850772297 3.6028870412429246 0.9019026226594596 1.0960268248738156 -0.9223860873247921
P 8.678004885884489 6.441620527831415 3.501505900133211 0.1479153077584614 0.1749021207599504 -0.4230688545420068
P 8.149433167881416 1.6940911383089947 5.846381047554172 0.05782668120048105 -0.9075240826112951 0.18061691175654054
Ni 7.5995077072091055 3.7278307745323898 12.892569656277514 -1.7380487677484 0.426820094054323 0.141496291605995
Ni 1.981305865514293 7.564111008608147 7.937668331440747 0.572041399920389 -1.7325450643213518 0.9302060975898431
Ni 6.512386371816987 6.981737043484049 3.0139260205307092 0.5504757579344713 0.7262759650286589 -0.1729077160377409
Ni 6.21742000641262 2.349095381724838 2.5826428725692154 -1.7971499447859305 0.39160600804703527 -0.20523933829091104
Ni 4.566862949932518 8.245364282797613 2.2239753078507496 0.2789505519321325 0.6668384876976322 0.7724874305877147
Ni 5.063050454321948 5.550237241371227 4.505699401844015 -0.844060771950327 -2.1093983395392444 0.17194200969036194
Ni 4.939299775300325 7.4402776699374815 11.947373101409765 -0.7315631815695272 -1.0169993412260032 -0.9524934482331336
Ni 2.4863746899730343 4.114154420939286 0.7131360192655881 -2.062299329168913 -0.37650514784985484 1.457167317342142
Ni 7.287357319209411 2.6527042726568393 7.680583964751876 0.5138159406195925 3.243910464972452 -1.1139566698793588
Ni 8.031836040510711 8.37076815480008 4.9208382019070225 -0.035295589977500506 -0.24420260692798584 -0.39541304049795123
Ni 4.01312596099882 5.056171334640547 10.536536374676402 -0.2806104561330587 -0.18208886831637675 0.12936531267041593
Ni 1.2263201843791838 7.3368153425529945 4.629248023945757 -0.9042952912613522 1.087791324337901 0.5748950673191002
Ni 0.6325639855819759 9.354959858323761 3.425381874008614 1.8342116255249183 -0.11969719345303256 -0.561222454928014
Ni 3.3278774704389797 6.708151973965265 5.908552124920446 -1.2799285780292151 -0.16294160596396454 -0.1974776920676212
Ni 7.341875949955466 4.655345512029469 3.059105947816086 -0.004597646673011437 -0.149670085666039 -1.0191307857467093
Ni 8.518591160503881 7.7307804142935685 12.526776829811611 -0.1770073400284113 -0.8710511844962419 -0.5128083252906845
Ni 9.24603280969704 2.9461827643784466 4.160017667990078 0.3219897904107939 0.7113134301815556 -0.24182613627600935
Ni 3.08381108003371 9.14088973611536 4.49181349924547 0.004273687674689414 -0.2795311070259508 0.06273260314253067
Ni 0.0865446525471836 6.408492377376391 6.686417996910436 0.10939632574765676 -0.4391377350794114 -1.5874690257838984
Ni 6.3857701582952355 9.17513838403518 11.86274064207709 -0.15135467245731354 -0.35121680559671126 -0.08727095460352711
Ni 0.8843149680265356 5.034413478131549 4.528295794570517 0.41352363405573295 0.47877874650980123 -0.07671246236139047
Ni 1.1300216932450204 7.5116129470609 10.549373418172655 0.31442663335155524 0.20560597760171043 0.41528612527279446
Ni 1.3192020766862695 1.000089909356131 11.601476452468317 -2.6964359557581496 -0.23851764072806664 0.07030758727631117
Ni 1.3092278123685106 0.599128157544406 9.062722179778332 -0.16702657466661558 -0.7701176448039575 -0.19871567823978034
Ni 1.9521270094023961 4.499036115690669 11.738869647344083 1.5157424466728733 -1.2422914844027315 -0.6896261750161091
P 7.60667154345943 6.775482850312862 10.52442489921063 0.46963076146194604 0.9320377514819431 1.2644040000310546
Ni 4.21013145788273 4.990208934704871 13.082670317144768 1.7811319720911194 0.7393857629377395 -0.9097419161982203
P 2.959757315632266 6.752696340393562 11.937238109996645 -0.6157139011076751 -1.2223831755145786 -0.6764173896353189
Ni 8.58271667934973 7.194576455362266 8.621962562274422 -0.22736419521440843 0.31281917965511935 1.7684011547880125
P 6.299638803993263 4.3229251412035365 1.0930627272771631 -0.3323760187411244 -0.15247258811184064 -0.14548278705756879
P 4.430593926283727 2.5746735639610026 10.600615971495007 0.5985379035490207 -0.10998022327558478 0.2845565852650003
P 2.5738561518760292 9.293240653705585 6.787692598916939 -1.4341238052591172 0.969003530073015 -0.7755817532423224
Ni 1.0317210017229463 1.9387820682848056 6.470454050298424 0.3316792497844159 -0.5393068858018454 0.4213657558079711
