# total energy = -340868.108195158 ev
CRYSTAL
PRIMVEC
9.28243096207984 0.00000000000000 0.00000000000000

0.00000000000000 9.28243096207984 0.00000000000000

0.00000000000000 0.00000000000000 13.58577599550472

PRIMCOORD
 96 1
Ni 8.641042645859196 3.701684869944896 12.91632325772933 -0.32293878458762443 0.32211500313474845 0.29149316448383344
Ni 6.01753067405926 2.7054387057264067 0.5519667500011417 -0.2376702051261068 -0.7428981469663721 0.21358128249770314
Ni 8.861853108882409 3.8216417227130557 4.393898009878993 0.5807013895882321 -0.22477509433099352 0.05199901877511044
Ni 6.404375976165044 4.121696297171832 11.384458560571934 -0.149374151692175 2.6361836958353115 -0.06074256929569539
Ni 9.238515584439662 5.465309585455173 7.981412694394246 -1.9529438839615205 0.6882971717920404 -2.594664750655918
Ni 7.480748082741712 4.9804696617697655 1.0311276825448985 -1.3987600810478427 -0.23435219649646738 -0.5950244910791236
Ni 5.667193172149804 8.157799300265262 9.45078156994426 -0.7273018351900119 -0.6936463519190957 -0.4956528965573206
Ni 6.853367152238394 0.2817124912683499 5.727681203982848 -0.9888406194036002 -1.1267278535020984 -0.5532250385448344
Ni 0.89053041672905 4.06776537443075 9.336784037726835 2.110424981031546 -2.1333563930167387 0.548935410030545
Ni 1.6344039968392603 3.585403859759433 11.920282235230733 0.14470374279969916 0.3234720313832752 -1.6478135883102265
Ni 2.0590473570176253 2.025352133342904 7.989196940833261 -0.26334832661850127 -0.15336398957785846 0.34413804437305895
Ni 7.379402503656147 4.09542701810862 8.724377524532624 -0.6653639600346347 0.3866283523267858 -0.22558987692280502
Ni 3.555718646174926 6.137357572796717 4.684525347653459 0.7062828097361835 0.23220866779090332 -2.5261667057845205
Ni 5.665058213073995 5.586287505607416 3.5422331307604265 0.0701450935565179 0.3913941491465453 -1.6305663711940046
Ni 8.46113985521463 0.9907788124982656 3.494492661096113 0.4678099062031234 1.9279288499744216 -0.2188841827678553
Ni 8.768156252746698 2.2067308304790063 8.204952192062189 0.29827907705741535 1.383944870411881 0.44291519984397276
Ni 4.126402489569376 2.0077897743366857 2.5070917251530074 0.675471737892598 0.12384001197681253 0.1027461674209908
Ni 3.9930325243466784 9.14934855451697 4.08161568937429 2.8294391222914688 -1.575477657749977 -0.6366025716312262
Ni 4.409850795390667 3.8760831791461796 4.670667606765307 -0.802084170408225 0.07348135701860249 0.3477861826486075
Ni 7.8486850733804445 6.107412451150809 12.304704822907015 -0.6405697838090905 0.10971282854681104 1.2833926253184156
Ni 3.692764453980321 3.1090016656388517 0.10577608328940748 -0.1652437717345799 0.23638105400103807 -0.5528632843300414
Ni 8.86236364257445 8.5270636785033 4.684932846364015 -0.39915553825951905 -2.275065057743856 0.7110344654885561
Ni 0.9927652526818442 6.924767609678051 9.36750145761234 1.0698036295112285 -0.03407380175525745 -0.11617066835701284
Ni 1.293330360832662 2.259826334451294 2.2431606582569152 0.21682524335629755 0.14513028881415652 -0.668437713863952
P 8.750677435617359 8.342668191368773 9.40722562006853 -1.888397881759335 0.9059760213978849 -0.06117785706090109
P 7.269916232790214 1.8898750563366908 12.721353225468013 0.4531900994074195 -1.0643672889870055 -1.5898388115676556
P 8.892021008866664 3.6487657321571314 1.7904017435363013 0.5287494220009732 -0.16675763727594503 0.9769145573899756
P 8.335409330511023 8.450010220728132 2.1329262234713733 -0.4136269924028167 -0.46929394694781756 1.01272591066163
P 7.759573738042339 2.1473325560177003 5.37591884895106 -0.05753717498452026 1.2689664225907564 0.13506184883456096
P 2.4521397350278424 6.213324986172452 1.3261511795293779 -0.2546389717699615 0.1999202400708428 -0.21058543309417282
P 5.2206339929367225 4.21938459853623 1.6262168929050715 -0.17470311737526686 1.8324686746918826 1.7289756018025384
P 1.8110022421317034 1.9273853590555745 -0.18416899582387633 0.7666489695290668 -0.5894143439811979 1.1397862293479533
Ni 3.2810422374259813 5.986091081060284 12.61137684225772 0.2630261673923922 0.45475281590884903 4.023158354212452
Ni 3.0442659934880236 7.292556081424553 6.61771315417985 -0.07149209450271558 1.994314219378191 1.3724947195934103
Ni 4.0089240458153075 7.590763452161216 2.3224344734709246 0.6384164849115135 -1.1097390322535856 -0.3797825330495459
Ni 7.649372720007548 6.373419069565817 9.879317981585206 0.17173452166524616 0.02514256070389863 -0.5600891126545193
Ni 2.5700823003201307 5.768483056650783 10.705455247858636 -0.001926527598751521 -1.60212482802386 -4.115783374039041
Ni 2.6979106543764897 0.16302269029952868 1.4805235725995753 0.8896785697894419 0.8827731009188604 1.3824382039593677
Ni 6.208201084390511 2.4629630492991166 7.131934755963769 -0.00814576903558597 -0.3467860235188672 0.2638957144815391
Ni 4.411475220774434 1.2602477775883905 8.931750740781313 1.6210075238609762 1.1884371575864372 -0.10214735749472731
Ni 7.358851201943796 7.7937887778398665 7.585590353496223 0.4420955321561547 -0.32848645387873104 0.6474539125234333
Ni 4.5678377670005155 5.583103631855231 6.658212399604866 1.0199028880260437 -2.2074041640617725 1.285290870782393
Ni 8.113568517672963 6.116824835945896 2.9289707774497384 0.005464108438364783 0.20783615248380982 1.6134579936484923
Ni 5.165459224473213 2.284944592099722 11.592824068669337 -0.6931922951008126 -2.6855925852857427 1.9406830643162964
Ni 0.5779659103291104 9.457033287064073 0.7884765881761613 2.2366571473896193 0.526877401789241 0.9099769150271619
Ni 2.713811458275883 1.5248434665272126 11.286206815660139 -0.9568244715083197 0.05160229755732403 -2.1116763369401443
Ni 8.049074188722008 2.756065083115368 10.715861780988588 1.1515557111790555 -1.1575744065693097 -1.0194817413282249
Ni 6.637643461274064 4.475199107971943 5.327444139013283 -0.10311743471748047 -1.5654719526875167 0.6041117980923725
Ni 9.246860489696846 6.775023436586976 0.9263299674580574 0.5968839128853657 -0.00990671759075068 -0.7158509130405929
Ni 5.5338232069271065 7.5469225316610205 5.938845364955712 -0.3705041930714136 -0.4799321433879541 -0.8744972340633133
Ni 7.201049878949235 8.573930671432684 11.229893092941838 0.7949881827933921 0.347097384111699 -0.14577846392111668
Ni 0.022956379523402952 1.3187827859886083 12.28715174633156 0.9907990286815517 -0.5171187797405804 -1.1699671238067075
Ni 2.103101773425401 5.127391975908466 6.239132000183598 -0.716074856125941 -0.48871580311785506 0.39580616217131187
Ni 8.006755586867174 8.837746636187298 13.489384331642539 -2.5021423178454647 -1.643895741313059 -1.5827271402235386
Ni 5.55899715916012 7.7194643547094275 13.127772389326658 -1.5200053357142853 2.7953534934616697 -0.42997200941974334
Ni 0.6148849222083028 7.401791726659846 6.7703358090509616 -0.07554158198174087 0.30514546515994545 -0.5083114658615956
P 5.336014607338041 9.143092196181776 7.319662635742712 0.4023635036738554 0.5484646410417134 0.9964886228671612
P 1.554556527404012 6.806899303831878 4.6602202309399905 -1.7486918492845431 -2.649352629117102 0.41648271668405695
P 5.973318456328489 6.75100978819951 11.398003483543327 0.08135253223656312 -1.4182081624701253 -2.819185305773945
P 0.6620396704913836 3.6514947668018607 6.946461578617497 -0.1680035938679042 -0.6996262236516144 -0.4450214475536981
P 2.494560443621086 1.1800939879379175 3.7922656140730036 -0.6295929730826125 2.3427022972768556 -2.1370780648427004
P 0.7104354797676626 1.7218352122090115 9.931582708004083 0.564915073288253 0.21485732099664934 0.9221986539043344
P 5.838778904829478 2.742457039614778 9.714671794144989 1.6979673263464823 0.6079599681938691 -2.5444500774747407
P 0.8217708108418609 8.229923787304541 12.568377838227855 -1.6579429634347445 0.3986611151216038 1.3160993715228173
Ni 3.1313444764887284 8.83008863080668 8.993281189589197 -1.4744708416175962 -1.9579187114682925 -1.5543413899919942
Ni 1.1341552380849713 5.331902490509418 2.9849308395559158 -0.45200970594607315 -0.01450359293281373 -0.16638174199376504
Ni 3.899632705995427 3.6649821387025137 8.96423460724128 -0.8993245775196383 -0.27077701498240464 -0.2901047687767391
Ni 2.1391176047912186 3.5585033754042423 4.194296044666248 -0.35555939883612314 0.18418457450314085 0.9225951180118045
Ni 3.8006912764778362 0.5536218074064317 13.033812840400316 0.7006690630938319 -0.38504146745564005 -0.9316963089821244
Ni 3.187104038090395 4.2340694040054885 2.333451790545174 0.9412240459669016 1.182652175473544 -0.46967858398074597
Ni 6.6391472150578945 7.960761142429641 3.8101714230175037 0.07880636877594169 -1.0730218793382102 -0.04658890350313266
Ni 1.3876955519834098 7.7793545980012455 2.6850247839893693 -0.2980692750394544 -0.18387321391030914 -0.8167186324919484
Ni 6.7543328984131605 2.969551708265481 3.4641279735796537 -0.13716912498555087 0.8224650480574222 -1.525786975393069
Ni 6.49719100137814 7.196603594613094 1.4265610895938938 0.43032399344252337 -0.008146283256218228 1.6753958688038693
Ni 0.8840828403201074 6.096013626172143 12.343166574779247 0.9594881343834121 -0.017412281939176464 0.44757455299285503
Ni 5.4309924389192386 5.432124895472493 13.169168317563516 0.6247382160934724 -1.6682962816446105 0.9273974244964545
Ni 8.718950087264687 0.4327450657495212 6.909508221744477 1.8517285513627595 -0.5845870977958836 -0.1686607678359289
Ni 8.074164599078143 6.278877512230546 5.51115179802817 0.8740511476648302 0.9781453444732833 -0.903382806749412
Ni 1.554027428850442 4.313777636979271 0.4722770818888882 -0.66957748389535 0.3705049644023619 1.8074929785831517
Ni 2.2024330650350956 8.27589038444978 11.032410306672602 0.36057793509663705 -0.16139148786802526 0.5822437943746877
Ni 6.212582391711301 0.7167456762012923 2.951890027250084 -1.134097663603608 -0.06793265928623139 -1.5651711336176466
Ni 5.28176808195097 1.8056834093037102 4.936867299740215 -0.18275915491052397 0.10485755733703876 0.03205754265617705
Ni 1.8091643208403547 8.781847838124166 4.795574779860114 0.15707203455706498 1.008996525526185 1.8997765559099218
Ni 7.9940293742892 1.523868811296952 1.2366685469606973 0.1921655358260884 1.395899471670596 0.30681668221478126
Ni 5.344294535579873 5.513578225429979 9.097361372777952 0.18146151914502298 0.9885835090874716 0.20715095349132714
Ni 6.983868846354897 0.8154977441312888 9.197461249654937 0.5261857750388551 0.23715598449384964 -0.8205912280734771
Ni 1.4320191588833528 1.8259748029546579 5.487430546209782 -1.8996703693493606 -0.03071594102661807 1.6696142291250857
Ni 3.505686344354886 0.708599414962467 6.157318511912453 1.1934739486793964 0.4535122586335286 1.5028869308664439
P 1.7681452592925333 9.237986485886093 7.09485887100466 -1.161603839443677 -0.18041096639332155 0.7595756076220531
P 9.134979351693701 4.881583926836761 10.91565496427508 -1.385220137579879 0.32913951408169767 0.5197829568363048
P 3.0028477874173336 5.722822779720769 8.444360933364926 0.3830771446404177 0.5256365874036043 -0.08449930539566092
P 4.9425045199434265 -0.013156917365440678 1.127998201758954 0.4318322025569337 -0.31168789426415355 1.4543974679064888
P 6.839471353384108 5.657019628032037 7.069765675919295 -0.8930382302902943 -0.28317307465391234 2.327256909256063
P 4.296428773880634 -0.33251059362645213 10.920816924023155 -0.6322905745194336 1.2912805127069245 0.9801014397583895
P 3.745340141829803 2.9131702238026005 6.701564136003778 0.803387462600681 0.40483767624596084 -0.2215159639637475
P 3.9256699242895294 4.002342802403358 11.585066741279539 -0.8769891472472315 1.2345177539945835 0.1672847134240087
