# total energy = -340874.1159854413 ev
CRYSTAL
PRIMVEC
9.19738735131751 0.00000000000000 0.00000000000000
0.00000000000000 9.19738735131751 0.00000000000000
0.00000000000000 0.00000000000000 13.46130607481190
PRIMCOORD
 96 1
Ni 1.2642084661566468 5.566865775768947 10.409681958115879 -0.6399228942537108 -1.7837246725189604 -0.3006540050474951
Ni 3.753141015115554 1.1093060705231559 11.544967888331822 -1.7687389977434056 -0.03966569402073814 0.9086795363719771
Ni 6.323792349563332 7.583025029231575 12.469988670255669 2.508156899470661 -0.8579722398250966 1.3283648191537316
Ni 0.9565098765640543 0.32120587247035914 1.6664286042544876 -0.42853630541448134 1.3147274308759553 -0.9333204748491087
Ni 5.7442465857788925 4.407801840361739 5.16547984069236 -0.722265301207369 1.5773126540761868 -2.564674117831099
Ni 5.941972016329231 5.341069919409714 10.908207937840503 0.007959106946076617 0.6779824201295936 -0.09532364970467454
Ni 7.325488989560907 2.3818381721178925 7.586859419965431 0.13730565056341515 0.7244882770006168 -0.5372613161267263
Ni 5.523454108069738 0.5822332403314123 6.988504079568352 -0.7238886957434049 1.5694288804527359 0.6184487835403348
Ni 8.503425963552601 0.5004077651507379 11.547242402192419 0.5934180658239522 -0.7200832059543857 -0.07166975773116044
Ni 3.1709739959721577 6.376769299975927 8.383485595975253 -1.3633716742462196 0.8343119200936792 -0.2747290576516172
Ni 8.863135777899224 4.455140792405771 8.426844838567284 0.42273923911673 -0.32577959647052923 -0.0865711003230251
Ni 6.529252782769398 8.862068880981193 5.138638185816646 0.8208964180187216 -0.23208834016295513 -0.8015154423889487
Ni 4.279912171006337 8.419343449547057 0.08374588963313083 -1.531321274947737 0.11597680717865187 0.7226669075211619
Ni 3.870435294388438 8.312488204773876 4.2877216724985825 0.4175180999271067 0.7487540915265168 -0.24997319086317596
Ni 4.4907438783514575 8.433415452000402 8.810330818627726 0.49147485392023094 -0.11318356070423087 0.34431365071897474
Ni 5.860188849129789 0.8422433771654457 12.314389112670566 0.9470396242074142 0.06674198141223989 -1.4179163422613195
Ni 8.15043943926702 4.428532751165557 5.5815420465629355 1.8970768975905719 -1.635645585489125 -0.44481935884522095
Ni 8.814398822997083 1.9341921385186978 5.224225392372103 2.461254064271535 -0.036450015296917875 0.993768909943153
Ni 8.326854523618403 5.098157725425856 1.8501491732782183 -0.30662359236736875 1.193415841747951 0.348750860554722
Ni 7.3038107478729755 6.1355494252413605 9.243447739628522 0.9285047986280203 0.6511401031257689 0.11115907407503435
Ni 1.26166998728271 7.026822234222683 0.9293950592877751 2.1226305219588024 -0.3425509023915972 0.7188115383308137
Ni 4.735210430776241 3.5690369150445655 8.695936475546699 0.3287808451906983 -0.10582274946378549 0.4098001624575587
Ni 0.18782444320326194 3.2081038481970956 3.1993893238019684 -1.374267238112801 -0.7249330778475193 0.32833013080652484
Ni 5.49339704662037 5.463257208685983 2.516361916878261 0.7827579592757874 -0.38527723761553 0.3084714442093849
P 5.101588350860561 5.990616997359128 8.951889644876045 1.8530709243232666 -0.16154061185137986 -0.6080666689750623
P 1.038688531414146 0.727100366764351 9.936893946800039 0.7006256114504064 -2.8100352638435604 1.1701671556326556
P 2.7972749556572087 1.0255178729087928 0.3549823573132776 -0.26589114764501304 -0.6503019234951898 -1.0751044728988517
P 5.306837244160465 2.9926090655292 6.66745180346464 0.07452908155682648 -0.37686844472654446 1.112001345925201
P 2.393215340114486 3.5307022050932297 10.678867408444981 -0.5283642707474127 -0.8313322686400649 0.9638785501416239
P 8.243093918165712 4.786623825360685 11.116535196644417 -0.17442595245448025 -0.6047651154056553 -1.145432114779821
P 5.001254053629485 1.8678145949201401 10.127061884268082 1.8906167437875248 -0.2774901653365221 -1.644715151890561
P 5.079542213683653 3.841803827958854 0.3502171909923114 1.1866983205184596 -0.8427479666761744 0.590608364289299
Ni 3.680987512340068 5.309936763655091 10.514424563043612 -0.7834213038913991 -0.349282821798792 1.287510247031215
Ni 7.679717161121783 1.4053515705024224 2.7885631904782486 0.5566109242979317 -1.1241030142847415 0.08998989619658695
Ni 1.9109135514537192 1.4128934280264378 4.883263532143714 0.40109389293281245 -1.59735774565252 -0.07641807104942323
Ni 6.382444087893387 9.266643550208482 0.8303355199260039 1.3423490492479657 0.22932106183046314 1.9024034520098076
Ni 4.021235655319844 5.024413074660547 6.873194596458496 0.4890058235544481 -1.3157846684958758 -1.7593040775827504
Ni 2.4427064807690293 7.540238783863625 10.155478131836615 -0.2492602239565514 1.563486546826372 0.26183523240808454
Ni 6.85065547932636 4.832895880486685 12.90612141452735 0.6825353296075987 0.7179350492631313 1.6373137172201673
Ni 2.431871958618676 4.133517358555425 8.56400179529 -1.4407690784897766 -0.9298543706773793 -0.22781105294383994
Ni 4.514592703424349 2.1208899017869696 1.5301196466338611 0.6664952454256006 -0.9330556512234962 0.4202195580186699
Ni 2.165193716046946 8.454311915774259 7.913753876434086 0.814750453021984 1.6545177398032798 -0.3935957847835544
Ni 6.810812397870221 3.0231719832759105 1.3095589430827612 0.4573488587707995 0.16090169271580032 -0.002832841463104799
Ni 7.657303128455899 6.338379405701246 4.253692259506993 0.49744906922579496 0.12799311491323762 -3.0189008860331494
Ni 9.120451080276506 7.377757741157222 10.55274823613028 -0.7617078234737076 0.8624886396382114 1.4781197512240931
Ni 4.464742864668054 7.338521687257894 6.436940446675453 -0.4356078675492821 0.34918254877550187 0.7883963885084873
Ni 6.80352806718849 7.712653004772391 7.580573005797547 -1.887940225396626 1.2531993895644868 0.41981820881519305
Ni 8.488710143993547 6.617492515800376 6.6152354769755055 1.8976643946629252 -0.405831664728114 -0.7209080158485262
Ni 8.551417930089565 8.063662090804725 2.2444843913085735 -1.947130876824169 -1.1086329436736002 1.3117097270955538
Ni 2.9375535056038897 1.5620566540318976 9.17002959610968 0.2080662662167449 0.05312336218754077 0.5074671155834293
Ni 2.9197933508735563 2.2585288016002454 6.897478457947102 0.3215992398405946 0.3164809447774227 0.26618091097129
Ni 1.9928438768487517 8.825049397402948 12.053912668304255 -0.9962700790984519 -0.3231503863777983 0.9016444839020665
Ni 3.0795979538976574 3.061764220069529 13.136054255660122 1.3742158160495752 1.038026851320264 -2.5262248127159657
Ni 3.4426004328706195 5.975073412949878 4.172991624783863 -0.21854942513625583 1.0469688910049 0.47702885369823006
Ni 1.9858906521070987 6.926662687348873 6.084214208448324 -0.4228644518406846 -0.6511586150685301 -0.623363704343449
Ni 9.261584987235057 5.882005051626086 12.71005703210974 -0.2922943202288902 -0.18565216018760286 -1.037141363391517
P 3.410795867848614 7.340131230022165 2.3412041153604553 1.0731964572428614 -0.5158699949351438 -0.9156703658675134
P 6.930865893310428 8.077219039573501 10.391266949415169 -0.032196382226886484 0.3129323081942159 -0.08299752403915382
P 0.2394043104964683 0.1844903903344138 3.9288433019570452 -0.3500212426267133 0.6012864128284354 -1.2919839665318522
P 2.847216768285748 6.816358422366539 12.223700115421732 0.05340078421864352 -0.12442236684284377 0.062243322210937965
P 1.303619270413238 4.832160089508732 0.651350685584121 0.7781510566313953 0.22755265707613068 0.5866097846528672
P 0.548321553896295 5.883651383939255 4.661771133266782 1.2476764028637286 -0.3572221312505267 0.2676901485269648
P 8.367231053533557 1.0503968053508181 0.2832988410249587 -0.3406835101655552 1.0378687284758448 0.30944717785909287
P 6.257046910475799 6.719528329667965 5.615450973781886 -0.5507722061289675 -0.5688869134518073 1.2985410509240798
Ni 6.76946094490928 2.2999446362717575 4.961810138778887 -2.370322887207602 -0.5002698265040416 -0.18488211479079772
Ni 6.624206608474193 4.981019801735787 7.219810090613729 -0.8491582410778924 0.3043044573158888 1.710671918397344
Ni 0.4541835364383047 9.001252941848168 6.029359151564504 0.8602144988920539 -1.7377335505008265 -0.010788348864755614
Ni 1.8383645610275834 3.8111673311143486 5.1334287856927405 0.23589048751786468 1.4544288353650563 -0.5138017995522054
Ni 8.840740140007789 3.592545436790154 0.1140522002762799 0.8209172439543282 -0.5653020243140264 0.24763811497209612
Ni 2.5074192972799687 2.6197653822261207 3.050479945683902 2.1395157277499153 0.1250430311459782 1.621027321355318
Ni 8.759490421267364 8.090812777891177 13.336452446937871 -0.7802632178783916 0.7574508479695665 -0.5882524624626128
Ni 7.307195386371558 0.9307387975612612 9.60034775217809 -1.528170388023581 -0.9438774244293485 -1.0985940713803595
Ni 1.4685376207341103 7.580164641804783 3.354503259341621 -0.0600933657474707 -0.06209291267600273 0.6213263621984461
Ni 5.832523108358767 7.908952840302946 2.8229034751580233 0.2770965294425292 -0.09913325325875184 -0.3879031052741513
Ni 0.7255239345940874 1.4240590561168698 7.876654375586989 -0.5075074819030615 0.08789958932646152 -0.44797641641696395
Ni 9.054395445230803 8.315440566072912 8.435756187049014 -0.24783377592266997 0.284030280447885 -0.16167328077450221
Ni 1.5255246319765465 2.7663073528726247 1.1811689358623505 -1.5263952984010294 -0.8008528691042852 -0.1436483049519913
Ni 7.545968756104433 2.6094275189858855 12.129767199698845 -0.3156839027974241 -0.8094007586742963 -0.822190711350113
Ni 6.9348667567530455 3.265615110511323 9.85927535653581 -0.7767958281550815 1.053558885517592 0.07431362311191071
Ni 4.607927788977649 5.802723573751683 13.323932963448009 0.04176808507572161 2.286235986759011 -1.7630224069746026
Ni 1.6597696959040158 4.897084445925834 2.854281281412816 -0.6326608133746588 1.4787666407794726 0.37890552976123126
Ni 3.5417850566986426 4.5169012476176755 1.4790336790346053 -1.948549868658883 0.6119464636454429 2.0655949692010487
Ni 9.118326483827667 2.436801758170959 10.008763250310292 0.3646269083550301 2.0338706415145746 0.5137452352826573
Ni 3.1455156281349943 0.4045167256877754 2.3535479287543337 0.8065830867198431 -1.0761815080131143 0.8391378807274129
Ni 1.2601892079395802 1.9078876110568888 12.24165801397739 -0.7862245776681491 0.27768119830140564 -0.7324653816688224
Ni 4.622110160077687 7.920293218750641 11.2323827269069 -1.5588397920829797 -0.18552154814700952 -1.5754650593444866
Ni 5.242667073495765 3.231584777781011 11.84392987979995 -0.18261363047159518 0.21145369463173908 -1.2971107462354565
Ni 4.3581635415116065 1.992696718653161 4.968298895465707 -0.17188441697954915 -0.3284890249818923 -1.1708045321063385
P 7.258899906056189 3.867004668953734 3.4124412804230606 0.1203476825528379 -0.059192451199756115 -0.05420913905255179
P 0.9574112205120464 6.2976165855226665 8.054505172084102 0.0006630875052956322 0.33063769589377895 0.9022594917782462
P 3.9799393866822483 4.056222516321494 3.856893061439219 -0.35798497755848024 -1.627681850557358 -0.8397685723328763
P 7.880376558196707 0.4024178819231654 6.928171058853676 -1.078226306357285 0.10597932964630781 0.581314854802515
P 7.188834210180643 6.826107652824414 0.8851813794225977 -0.5683212707563244 -0.035371437520758435 0.7759918441965474
P 0.814971284567629 3.361654227908599 6.915732512371386 -0.3610654162560169 -0.2815231977553152 0.35032977500606766
P 5.607858530628136 0.8758708643353289 3.382045755123835 -0.4772831358008812 -0.08953069717198128 -0.628804415743046
P 3.5248618642057306 0.08859843113272885 6.117449886922446 -1.47930143023702 1.119845267449652 1.4156116053875427
