# total energy = -381178.3235128813 ev
CRYSTAL
PRIMVEC
9.10350950979268 0.00000000000000 0.00000000000000
0.00000000000000 9.10350950979268 0.00000000000000
0.00000000000000 0.00000000000000 13.32390636443216
PRIMCOORD
 96 1
Ni 8.440309822237152 2.240537575761138 9.381589045764098 -0.6660033933908466 1.720443138851495 1.0813226858944216
Ni 7.2713554650151675 8.527312063485454 13.41957180557285 -0.3564479720886635 -0.8656017313458965 -1.292181427254639
Ni 7.0793715510583395 0.32892527781848024 3.8434407596542917 0.07613859213579145 -0.4945444939844902 0.839935951148676
Ni 8.595533764428716 7.607857593873823 11.525632150816897 1.050233420688785 0.2946975303537441 -0.07895163610455434
Ni 5.463771702325905 8.329256108625348 7.651599957502377 1.18030938627298 -0.24022511033747662 -0.8373787319444612
Ni 1.3098311682837667 6.227856573592369 12.058374994721394 0.2675672497958553 0.16488073196820638 0.6073169352932314
Ni 4.716446392233253 0.45161964915595204 3.3985822870783453 -0.4568775755613358 0.5986474325436916 -1.4255463480027515
Ni 6.13777734609923 1.8401834305672744 13.055523367015205 0.5167590824083165 -0.8623773108713276 0.754510791504636
Ni 1.5337046763697983 0.4917615747376598 5.946273187098328 -1.053945065212417 0.12713513778831653 -2.057273593819547
Ni 2.771945845158259 4.173886323575991 6.0388877420151 2.8751260828056227 0.28018648122176265 -0.8111617072294611
Ni 3.2126467448998333 0.7749289719021212 11.450911454370111 0.10078158749545224 0.1473460655185527 1.2298167489744884
Ni 8.368592373607445 7.836774446278318 2.2001498554202272 0.20938858457259424 -1.3009558310131595 1.6327173560987367
Ni 3.5925726145510386 1.651267399345685 5.223864182781191 -0.05240988106028393 0.3643050062392371 0.19634049313938445
Ni 3.554356081249755 7.297983230595505 2.2020688752439317 0.26189256800858124 1.1206181410599347 -0.039139389203622914
Ni 1.0799948614096597 8.072983209872506 7.972785431458839 -0.30860976955946207 0.21593821276565392 0.48233303951996287
Ni 2.3513272875945397 0.9803569488363995 9.087983564492143 -0.1252381778759198 -0.755144568433893 -0.651539909667349
Ni 6.425147833646064 6.612625510350836 5.404483275353235 0.0299752062058516 0.44858499653524037 0.13725448561050554
Ni 6.367449789800535 1.0358792538875017 9.175308069980288 0.5602899158114157 -0.7712689847995814 0.7688030397575921
Ni 6.964712847644889 6.153344347515427 1.0367076732611122 1.4914496355637799 -0.6935591915219281 0.43726571486767923
Ni 5.933667557355049 5.9016141000530435 12.014859308481883 1.0571553446195987 3.5498167195578216 0.9029675735888643
Ni 1.3207644833135048 6.934088641350102 3.52546609353379 0.5423027352053758 1.1917502811200702 -1.7791103136754005
Ni 4.1740228762199925 0.7022183303750416 0.6174846837190898 -1.0361088083619447 0.43915316169837915 0.9528462035868622
Ni 2.3342673106039236 4.573193565165841 10.582073408486082 -0.20359306093673968 1.0801587474933074 2.0958879637576358
Ni 3.783983007403059 2.9707391842959736 12.282643595124071 0.09041130000472171 -0.4144461458700024 1.4442138425052675
P 5.521214847902631 1.990200165267572 11.065317739641873 -0.5358526087046578 0.11525921228633697 -1.4487292138771177
Ni 4.44103791630097 8.512364100722063 9.812124056335223 -0.7729425158472624 1.3024051618651762 -0.9447629123580955
P 0.10657660759046797 4.189735533789792 10.777721485056956 0.03246017741123442 -0.1650105726778513 -0.060617099461424635
Ni 9.493868091768078 1.362749869589236 7.569870469014463 -0.46088798227230954 0.22367749039144055 1.3151717175022253
P 5.2733444885106975 7.2189283532281046 0.47221633962621257 -1.9184661618996246 0.2233131650734864 -0.3315589221564677
P 8.686942104323473 0.04917988991270202 9.438922038874663 0.26113640656884707 -0.9698468519099167 -0.25855553321554825
P 0.20698012532109789 7.477386094284974 0.38048391478969235 1.2478077862352703 -0.45502278174078403 -1.408010138891201
Ni 4.5421961149774495 8.348519134939192 5.272496041415966 0.2588699791321735 -0.28940054362086287 0.17117479250703424
Ni 7.541802528215388 0.8052955488752253 11.173014989264116 0.629434078907245 -0.04665343819248094 1.5411984248521329
Ni 5.501214437311179 2.574417893854961 2.079634864281023 0.1722654544680517 -0.34390818775043996 -0.3299427267092834
Ni 6.2903066494491595 5.066967925876086 7.36797374345407 1.0302760037302514 0.5239676843416138 0.095848411859893
Ni 8.401255766052659 5.091083122806792 12.836145171969711 0.21973547502455704 0.5516242697166178 0.18507854707231997
Ni 1.768821018811972 5.8437612965443115 1.3288811724729677 0.844902551125332 0.8438591974624822 -0.9168307047242018
Ni 3.6308619759291227 4.815346920528904 8.471499356478107 0.2660500418203805 -1.0802245677342361 0.03761421080834812
Ni 6.033787955937115 7.383255805019783 2.9115800271596255 -0.52332439433066 0.5646523065451694 0.4094502353173078
Ni 6.053014568212558 3.827761785070013 9.250122532575956 -0.35364829785633933 -1.222041990125076 0.08958854699311022
Ni 0.636623902302372 5.310887362101572 4.847597013638272 1.3343786294479794 -2.0855004498757244 -1.5022606101363547
Ni 6.997248790955701 3.8235104460867593 11.466274537171264 -0.7791980098386709 -1.6691231484212803 -1.7448303094466078
Ni 9.182437028348138 4.765314031766671 2.2444657401535877 -1.8722976337633623 -0.03563343293289347 0.7921486564620679
Ni 4.61176513534153 4.685640115746464 10.909161598067257 -0.15100525953769478 -1.6986062454820616 -1.2933525647446047
Ni 4.7558736923113525 1.698387165035881 7.895520304078823 -0.8536898103996586 1.0765674305976234 -1.0618272961739712
Ni 3.862045602224047 3.458086467228538 3.5119419196718584 1.7048144311753026 -0.367344050175877 2.91021932696433
Ni 1.6003059526042405 3.4919879369793665 8.857986125498115 -1.0831296571961733 -1.064316381144412 -1.9385835014747907
Ni 0.29794694500024843 0.6710970724560881 3.44953280960827 2.3291309863503242 -1.2157702981837513 2.1332538060006034
Ni 1.4262832630884397 2.8918117560629755 4.272003950046032 -0.5685033048601436 -0.3308570109934366 -0.20442455569909956
Ni 2.2894962503905574 7.209670083964787 5.683738894442528 -1.0888801865267053 0.9925077838425421 0.22689034090178345
Ni 8.419653958954491 2.598787989054469 12.62738622087275 0.8389473619831616 -1.0681959187044765 1.1674512993633894
Ni 3.9420927621378596 5.866301586314196 4.269152730839276 0.23371713401562974 0.017979724406872264 -1.62362259288632
Ni 3.7148054379517848 6.783589420640999 11.168445027444859 0.2807726927425358 -0.6956808658506213 -0.8471509808398766
Ni 0.6506387553317492 0.4662298717131768 12.73812131164855 0.2893061841348437 -0.3908578170271011 0.29372745313099097
Ni 1.2635671324959816 3.806268398904141 12.931797568040041 1.4908392556732906 0.1723942667364321 -0.15614155232299562
Ni 5.9765450875715915 2.491721612647515 4.513926076265252 -0.34747816448988544 0.30242318113277594 1.4886432764632362
P 2.236486513989087 4.708499028352352 3.40373851491585 -1.2244986791956847 1.389055709275885 -1.1284258100298115
Ni 4.132110318021063 6.217269191927436 6.424294834796534 1.1766553344601607 0.3864756287990054 3.3477961453145246
P 6.147345134688951 0.36727654306184526 1.7034614612869852 -0.5475572987360957 0.24305846602121364 0.7830942595692836
Ni 8.510925746205245 4.466946504622897 8.220983517196379 -0.09247178207817622 0.3568626910285789 0.5636768300057776
P 2.6675832111025395 2.214273950564806 7.251522559000357 -0.4376567796585108 0.3989822459064483 -0.32859469732182117
P 3.316554203475547 6.963147043993669 8.64485657944214 -1.229286073281999 0.944444095566096 -0.3250398900910273
P 8.298996042714565 7.021800956347212 4.286980133689181 -0.5532929156682923 0.031077438131094866 0.591886202560458
Ni 0.790954790202164 6.202466885317649 9.633517749735764 -0.6510485718532272 -0.10717926349167992 0.6556423618714967
Ni 2.6481563216158936 1.516854080099985 2.7193694358137543 1.3589275224319368 0.9229327038568814 0.7090814555272432
Ni 3.544588015448832 2.644860851140652 10.015274335167552 1.837418048277358 0.09999303015588586 -0.830712375667879
Ni 0.7814671124969239 2.607627496876181 1.7983546246566655 0.9458209213089646 -0.33326382066271637 -1.4478005314152615
Ni 8.35632994617609 8.469404638919121 6.239012924607311 -0.5374929725215583 0.796305358942919 -0.6236393266023388
Ni 7.829828468453431 4.260961392901092 5.633907193242457 -1.67590057635443 -0.9587805667934262 -0.7144499189280082
Ni 8.111654918653796 2.435298060146002 3.2958546433468054 -1.3126342957923522 2.8283464034479224 0.42428652899919184
Ni 3.390738703206886 3.726039168798327 1.4333594211006089 -1.6183320339113418 -1.0013120123977337 -1.943177548603376
Ni 5.875942202980719 4.162980319075053 0.03760477745615562 -0.9410432974146633 -0.6351488699038351 2.1973771188430735
Ni 6.647938024089683 7.816145893524458 10.474175881652638 -1.1312583943826002 0.7180834019155374 -0.7696805572665391
Ni 1.5516476937916253 5.759917973127251 7.518893546306698 1.516713038116259 -0.9317068505050857 0.04455927466761358
Ni 3.322617140869224 9.136828445251561 7.1665959179408825 0.29899950016320764 -1.8919578311964513 0.48692065889064523
Ni 2.9555727373021816 7.7595948918885425 13.02108114879413 -0.21494216740097175 0.5464424684053621 1.1679426371775112
Ni 8.763329653378038 6.198224649843995 6.459083896733374 -1.8377345510765124 1.7686706063993154 1.9651561097569963
Ni 4.887082576177811 5.439492642222398 1.9212274247822996 -0.7825386441761297 -0.569280035125168 -0.49714130817738894
Ni 6.431256288587742 5.059930912955198 3.5431596747925735 0.8177704707952304 -1.4589346936552101 0.4476136337609065
Ni 7.491514741184353 5.687035275268729 10.261526090552588 0.9720981098379388 -0.44970059819692226 -0.6625226339310977
Ni 5.200734895940179 8.740789363608153 12.122490102484043 0.40340274357164724 -0.6475958374179364 -0.030512309656244224
Ni 0.792693560535786 3.5249881592797836 6.443587902692059 -2.044898874304278 -1.0163835620188755 1.7181944520266343
Ni 7.5653168935124855 7.159300365347351 8.394834150380737 0.9902588399073654 0.6129921313011378 -0.5530594595012476
Ni 1.7718615910184103 8.92403390834887 1.7034077505803444 -1.2466286783255047 -1.7389813068649986 -1.6420481465813592
Ni 7.102039289962627 2.622338768389967 7.441481852422119 -0.2950304882131306 -0.5152138494083838 -0.9975335191919079
Ni 8.4045421330183 1.8298964647191442 5.527275964594389 -0.42038076618688247 -0.5717719483090862 -0.03259798854067934
Ni 1.979212229180233 8.203290846288555 10.555158882353341 -1.491635783432657 -0.5356500057755484 -0.6184097027722834
Ni 1.1723772768316283 1.88725767870947 10.7827448016543 -0.5484227320601845 0.8976713581869313 1.4088894561723606
P 7.336245281444788 3.6353317991427794 1.6547622366811692 0.45895322714344183 1.0933958150088718 -0.6426549484728932
Ni 8.247970871405919 0.8854082540581586 1.573140169606537 -0.3027628238603818 1.784364105875172 -1.8109863364483907
P 2.2710070223927237 1.887030090969467 0.19969185553524568 -0.41019534101344834 -0.6710592106471991 0.23786535185604837
Ni 5.3447797283428 6.305127163078147 9.062841491678547 0.41471893991541475 0.18803145905305682 1.017490679040125
P 6.400686703350555 0.6239545479918918 6.1091176771761475 -0.0797885301835529 0.40639165099664204 -0.006466067340317896
P 5.187780601779215 4.428602522187213 5.766333216342452 -0.06857363530433996 -0.8047642883435495 -2.4827801112687693
P 2.2902609451969673 8.846308143383087 4.077554805689492 1.3787910941250834 0.09344211641124552 -0.8082908134395692
Ni 3.34837096952795 5.189328198411234 12.952795723283668 0.9193899808109456 1.2694906705253428 -0.24845598288770115
