# total energy = -340863.0070171633 ev
CRYSTAL
PRIMVEC
9.32400309550346 0.00000000000000 0.00000000000000

0.00000000000000 9.32400309550346 0.00000000000000

0.00000000000000 0.00000000000000 13.64662101494494

PRIMCOORD
 96 1
Ni 1.5625537063297066 3.2462448586723713 13.445714782868341 -1.600602734952379 -0.4849923315196809 -2.4159964779853165
Ni 4.3995307805737545 0.6683669073336866 12.92655709715654 0.5788872191976289 -0.09463639382966281 -0.2817533114882503
Ni 1.634945265046194 2.1471220697673914 3.1463512209257245 -2.6144175078028136 0.5568492655609829 0.45747484282570244
Ni 5.451408846653329 0.052238658792502946 9.330153970604426 -0.7021032244371973 0.5271260274649373 -1.1155790359741304
Ni 7.393524064089523 0.908934574423875 10.595768952954694 -5.7627955494938945 2.446233422492987 -1.1627171271125136
Ni 2.0907491480775553 2.041182748523608 11.206823079103616 0.2455570640733513 -0.5086212837925305 -0.4836718129360444
Ni 3.177163320994569 7.63229313101531 13.652488533753989 -0.592519979489715 0.49369808682379496 -2.2396362846226006
Ni 3.685041760366938 1.3907682764233995 3.297405662726643 2.533374793497185 -0.36646627555661404 0.9514554938869226
Ni 8.819891383683911 5.982821069410605 8.931918346437998 0.1684874754828582 -1.1057569076773859 -1.1318330359391475
Ni 7.091939189452122 7.997514325621804 1.5181593311987414 -0.9669831572088766 -0.47431556853212503 -0.40140011131932163
Ni 6.896386876087762 4.8013113906526 8.080328254808835 0.9569008332722101 0.7545082204014748 0.04473436679289715
Ni 3.2546924053232127 3.858412270770643 6.881745394293262 0.32044044364580293 0.3809778389092277 -1.3317705024011708
Ni 0.031744500361431394 1.8174626223201822 1.402790645796022 0.6123863793963389 -0.6415576016436564 0.2829393613765514
Ni 1.7636071814203325 6.9113891967954935 10.433332700782161 0.11859727552063445 -1.9455599327926234 0.9185124633019988
Ni 7.041300529561698 4.941329942590454 4.3660995680830315 0.04276850131577795 0.01711274842088666 1.266185774521826
Ni 5.020350867387238 1.2148709612267823 7.125418886758058 0.40399409729874297 -1.118743292634725 0.8545701561220831
Ni 0.7611901536616423 7.736563455735363 1.0668179159677034 -0.22999520507935226 -0.03944792158297722 -0.1929237541483516
Ni 0.8563499951228222 4.339624061775012 1.5997658020068706 -0.38916037472002013 -0.6885280568559239 3.4674275185266286
Ni 4.194645140280594 7.472330536819013 10.017152100584596 0.687176685034352 -2.279489926284429 -2.1188769684536415
Ni 1.1902649175054003 5.64142270227972 7.167259417487626 -0.2373375043770364 -0.25369254869629215 -0.575064503017429
Ni 3.179969845875257 1.181332522702413 5.7732165512366596 0.7466365309628819 3.4267878906283955 -1.2127189129519373
Ni 9.231863128960738 5.01700355033685 11.769296352807858 0.39426864248086296 -0.1437758316687911 0.7714065388187101
Ni 8.455882309457781 7.038876288800972 10.823189775919401 1.5380506232517706 1.0384521117831405 1.8873380730362526
Ni 2.988958321935798 6.035044809798427 5.41803637538104 0.4485217473974727 0.597766315490319 -0.0883508179312672
P 2.9945806957000993 0.6391865077768707 9.20867153648321 0.08311836588773427 0.4447275704623631 0.6147111708747736
P 6.18012629532503 2.731019104994413 2.8166218434565713 -3.0242562368077914 1.6293669515692648 1.691966885788673
P 8.426996548393424 5.278196844299364 0.7133785314583446 0.292695926542683 0.9613164458414025 0.0005332467956506946
P 5.876471492038084 6.5273521642845855 0.3254813617361249 0.3751278078863539 0.433116468585996 -0.12343377767732937
P 1.7795605504265033 6.262848849283386 3.1744360501387505 -0.06560735358716442 -0.007295248109832597 -0.20542497193915588
P 5.6331243396756925 8.638968430910248 11.472359493629003 0.017920331923846556 0.3949399575162747 -0.22605756058784293
P 8.602642115511042 4.805973392115538 6.610109217053767 -0.1620931419207402 0.6363392906675105 -0.2651041329673434
P 8.875826077236232 1.5344511615111216 6.4051368635333965 -0.3922495551683051 -0.25282480137935814 -0.3369011603049875
Ni 7.337356270464057 6.752750611014669 6.293808268598458 0.6784436760367283 -2.2603100109218683 -0.37976684932026206
Ni 8.860264316352946 8.540199267916462 6.242033012751371 -0.036165651287279645 0.9310723022448804 0.811719379505144
Ni 4.482346574561369 4.20868708868696 3.1924770634000246 -1.4985530793777804 -1.0324089909128542 0.6365529493402133
Ni 5.1668868973702775 2.5248001322828526 5.056496297129681 0.05497738467714403 0.5643239766714733 -0.7226617653148393
Ni 6.646307793612889 7.5032209585124345 9.587488059755922 0.338583690213733 -1.1346602209752974 -0.542633121961601
Ni 7.32175721356907 3.08427760384701 6.320473052165873 -0.19022692404247882 -0.2757310165535703 -0.6968928838808515
Ni 3.351065299565049 2.9522776944254083 9.019856747633087 1.1869654581369171 -2.9174114738373946 0.033035590298730204
Ni 3.7591769076305637 3.262142283660986 12.724286839684089 0.9301909280811916 -1.2268664080969127 -0.9650448025355832
Ni 5.389105859102638 1.398675030904541 1.3473333411935073 -0.49368883085241433 -0.9235862782804803 -0.2504835548406912
Ni 4.503801105293806 1.757266859430738 10.532679951957352 -0.1765453127903282 -0.8811795311794952 2.480641724769528
Ni 8.799462493273321 3.0323522315528164 4.231352807399468 0.09892088013762963 -1.3711770292232515 0.748834052834833
Ni 1.1790201699767962 3.0720351880053367 6.425293493058551 -0.9576652222420604 -0.26775494032662916 0.01675870751557759
Ni 0.2318077663413295 0.5176714396454148 4.2638590787999435 0.24952016248615735 -0.4459352176172191 -0.24982509532108588
Ni 7.131939162004123 0.8159640088496906 4.783413967036385 0.29597511151458705 0.23603524062584513 2.8736165881396314
Ni 5.218998749722988 8.13402705245953 2.9346786389028203 -0.9613838087442281 0.6673989881867924 0.1255297409744096
Ni 2.1525766114790277 9.096031054336603 2.598084930479639 -1.6145841368331353 -0.46980533936659735 0.752920821309697
Ni 0.424905069735307 6.781617724073175 4.943052085930862 -0.04568978872763099 4.058068021605443 1.5303005469927065
Ni 7.286866794620448 1.2645958688304697 8.087492818657076 0.504091514242977 -0.9785194399832501 -0.275966272492828
Ni 3.2164080493095732 8.462110743412266 7.564116954021611 1.2693626295879106 2.770968636859402 -0.40051616605247153
Ni 0.886834822688968 4.800537498409753 4.742487188593553 1.1745138626371256 -3.036859527394099 -0.9170734168626271
Ni 8.32639055682324 3.3134522717620727 13.420946501496049 -1.8353791634704586 0.5942870986924669 -0.1967816944418611
Ni 5.445450808783695 3.836612751929949 0.884382609919463 0.2415872807923259 -0.7545478153901586 -0.8205233509500192
Ni 4.998747152607987 9.324002925874227 4.988399374160852 -0.027850960773997194 -1.2888536484329867 0.4616518570215275
Ni 5.356257396794783 7.182661737920879 7.438076947270228 -0.6757859266989071 0.02166000147193689 0.5052266562886847
P 7.809365270580589 4.348686992618962 10.192292306743632 -0.03743963290369681 1.1479803351229714 -0.10538951858110883
P 5.394047580653351 3.216948841479274 7.489306748946152 -0.18823586175437904 -0.44208833306730316 0.17732281438630107
P 4.726085335046648 5.497506717118852 10.751408006994264 0.5276106804108397 -0.1600383162742405 0.3781077164502843
P 8.745047612197919 8.88769553296087 2.2671676750377294 2.469517332721592 0.33540297849290623 1.0697910311057381
P 3.008063203930914 6.4932449615817385 7.773224502839607 1.313665308160028 -2.6094136268303187 0.6471973164279369
P 0.07459575300816416 1.6509172820582165 12.759917584465024 0.9371128520120053 -0.340153348693698 0.5554981508497272
P 1.1562416308288854 7.483426100300803 12.399497318965063 -0.11485349220748607 1.1011672314241745 0.18450750506019836
P 2.5311404542724474 8.646586141300688 5.3605697481479995 -1.0020110953472872 -1.8991466356354065 -0.8377152893482733
Ni 1.1110575126500988 7.7820366180048515 8.521823522950148 -0.8620057864645219 1.1719617856392333 -1.2069367590525213
Ni 5.37538092679575 4.885684293128836 6.181127693239269 -0.2253996152888699 1.570939403559991 -1.1682797088019559
Ni 0.7504899279039091 1.1092300080766275 9.131908885195074 0.5554107333422434 -0.46072343166998725 0.3234100677970882
Ni 1.428316036205895 0.6493291581596367 6.902597594436687 -1.249610643771964 -0.9242869038919308 0.7993410604454492
Ni 1.967579069426757 0.5081395114542936 -0.47593440534832404 -1.03435583022658 -0.20534655329273666 0.5212004060091217
Ni 4.381237086833188 5.4856745574059165 12.959649848341055 -0.9847566791422137 0.6366056569550198 -0.14739877313335906
Ni 7.225169867259939 7.432890004442565 3.8463684561912914 0.43851372834216734 0.6330205107069227 1.6807504482475635
Ni 6.066364135626438 5.598271216738774 2.274700537001543 1.0994772453162613 1.7955643454663657 -0.04346861270659611
Ni 7.436237321492954 7.82558903567161 12.852755749197662 -0.8494588030374468 -0.5291106619951339 -0.9971313986574827
Ni 6.081851304486316 3.0914570860999326 9.61611834314011 0.5915182776980781 -0.1570064714264522 0.012080585313617906
Ni 3.1064500828047388 8.664394986889107 11.362298963091984 -1.4301573644122016 1.9518691628401028 0.8817667711415331
Ni 3.705796990879934 6.581795017368766 1.8918858812742174 -0.5170745567662063 -1.7403743305577832 1.1643361507731755
Ni 7.509990184636619 0.6862661957504875 13.619040538058002 -0.18580899748044127 1.2323271741011679 -0.03226348801939605
Ni 2.8131262747596613 2.0410149164709424 1.2746574003877806 1.2454050903310487 -0.5427555064720782 -1.2457922984671383
Ni 9.017429709671482 3.0995130246278886 8.393449718266421 -1.504664334481841 0.7009503417796766 -0.6078679227006951
Ni 9.096842242591153 2.69120561250093 10.772710556479009 0.07305918187951933 0.24022459611684435 0.48719448137732224
Ni -0.2623336195203491 0.1424399954977028 11.318152606438849 5.697806031996388 -2.2074501868083596 5.2228114351193655
Ni 1.6534627348569801 4.1408829394100035 9.007997548311668 -1.4132850141368951 1.6894901421134068 1.1880939153144054
Ni 7.426754810517339 1.1565213509166614 2.718147318955243 1.075706882369541 -0.798553017326515 -2.1363542993027984
Ni 8.964888953184182 6.248741632856539 2.9230376212498665 -0.6032692475864191 -0.8377877944574216 -2.554924237533187
Ni 7.804899073179095 3.874430907797295 2.399198353668986 1.134647108349175 0.6781726817635287 -1.8789873870787124
Ni 6.642746024495206 5.640453005975429 11.969082695900857 0.6284130938418984 -0.5259191516410298 -0.5402651359500567
Ni 1.5834767688953684 5.766205833436695 13.73532390814775 0.872655295758568 0.3899684724436122 -1.6193512192044754
Ni 4.565507356657241 4.844332340152584 8.648873319218405 -0.6969404492893352 2.698434731355733 0.7268200104575869
P 8.654147907673572 8.81503357815953 9.505281123159367 -1.044839246256407 -1.9914322698447058 -3.8269510442168215
P 3.8218808273070684 9.01117330370822 1.407335164822093 1.5275396964181176 1.5038022435918619 -0.23492323850858898
P 4.872462856979947 6.253683354407251 4.148245172120274 0.9119134699282424 0.009505111276957823 -0.2585617038631354
P 2.563009896273085 3.2008183164175117 4.638991688516641 1.5625524650478766 0.6225453222072117 1.092942272411221
P 6.1515855223689275 2.2314763242377755 12.461125248703922 -0.9132262752023949 -0.09788472556363141 0.5130757200194582
P 3.144398774713047 4.220407360364784 1.0517214228304204 1.0700532836281895 0.7734829617317648 0.16447655455125224
P 6.7192681165078545 8.769998644027558 6.5579656630911085 -1.357493875309204 0.8395556849911218 0.25005675171591774
P 1.941126873126052 4.242244175217182 11.35131342284472 0.14790630889739687 -0.16532141905005077 -0.45688117510576154
