# total energy = -340875.28726830275 ev
CRYSTAL
PRIMVEC
9.20123877009604 0.00000000000000 0.00000000000000

0.00000000000000 9.20123877009604 0.00000000000000

0.00000000000000 0.00000000000000 13.46694301550298

PRIMCOORD
 96 1
Ni 7.118225382312222 1.361295643622865 2.894961769987824 0.35697247713356584 -0.8313314973091166 -0.277765787595412
Ni 7.581802184254858 3.552929458832951 8.725044115728997 0.014872803346774387 -0.4069868613784797 -0.0997660017467443
Ni 8.864638866539053 1.4399662334487857 7.463150372567933 -1.097585684720503 0.17872612249173092 -0.46201026880221074
Ni 6.220193698520404 6.250870627933226 10.35434147498726 0.13108820889879358 -0.45700330250592264 0.9234731497413838
Ni 4.7307340027706095 7.741839326809506 9.385678323513485 -0.6367573520415357 0.2873976542582212 -1.1004069562193823
Ni 1.2658051896797766 2.414708643249808 5.566466860535017 -0.8075523926116479 -1.176066551836226 -0.9030200240933546
Ni 8.057414206255073 7.1739020769363915 11.966751801086746 -0.14290139948363775 0.7717248413900774 1.9384112375629843
Ni 3.0195060548589034 3.405820056477767 1.2510758469671062 0.3546186321894086 0.233475707428785 1.1488761074643634
Ni 8.890577158085167 5.2837468436732395 10.969874891766983 -2.5182878172570757 -3.095632374557933 2.517038518231007
Ni 8.136416040669735 4.574036909819098 0.00024015232683702122 -0.8611940891965041 0.3231568141357015 -0.1286340909313462
Ni 2.3477144251769975 7.721302162307581 10.534529330023632 0.5136688735187669 -0.6801002378035449 1.2078536144398357
Ni 5.052206876143478 2.171915560941437 2.643857208873634 -1.4953520559419795 1.0966904265997435 -0.002747480838150107
Ni 5.654197909986854 5.569997375776678 0.6650066363558672 0.9569203736562358 0.06799925085810869 -0.6004950272753916
Ni 7.328354067675328 2.7912049233079395 11.621406314228107 0.5052729361455879 -0.3355526166968931 -0.25579313997906267
Ni 3.8678234466238846 4.465121848793434 4.017996861424921 -2.6888337179308595 -1.6824561180847604 -0.5568490084506668
Ni 4.237391194034189 6.502248465833127 2.65014625544042 1.0020041533687518 -0.39883646435720344 -0.20779295795070019
Ni 2.2307942865900996 8.808410097600317 13.018035634107173 -0.010432765297549775 -0.8595223579210358 0.13685622173082237
Ni 3.810830974883329 6.598631439918099 12.866680780272961 -0.8029107800745785 1.2649210488767892 0.4042280676864199
Ni 2.023241948028311 0.805002561167844 10.758336576654015 0.7143023376065506 0.15906746772053895 0.6937355691987923
Ni 8.702669463883417 8.93551600729099 0.2961906301372323 0.22734131239627298 -0.47197432199345807 -0.1841074414083023
Ni 3.954876364792661 1.7961829836851244 9.336577754099677 -0.814373015077907 0.047734329961485536 0.7430033050856688
Ni 7.157569878463759 4.033353728608483 2.224631296991807 -0.785008702983177 -1.1674952652274473 -0.024059612052365016
Ni 0.07314616618481164 5.933529110681041 7.569257215580161 0.8014506505892842 -0.6378444144581272 0.21391398324677352
Ni 8.859688600185095 2.9412587220074853 3.7956176470215537 -0.19346445714317004 0.9722454340490804 0.43890196491952155
P 5.0599359165474285 1.9983341952027243 11.688053645606598 0.6907962840648103 0.9470187982718077 0.23480933863854397
P 7.245818957647432 5.709856202133871 8.57327152566343 -0.2091031921216915 -1.2699534690943741 -0.6040845443988628
P 1.1221738555063705 3.4304793758617986 7.429160077143846 -1.0523604943341165 0.4202316422035279 0.6135012097270726
P 2.3847862154002297 0.9699669669800101 1.1837163397228232 -2.123919158863239 2.5576704328197564 -0.207258682713785
P 0.5038579841812227 3.259529564355859 10.783142195731406 -0.9591312652646257 -1.4785311277298987 -0.36884608864270024
P 1.7016494585539537 3.847258678406232 3.6070124989357346 -0.883200418264266 1.5168580483345555 -0.1891043804022614
P 0.48813950832161807 8.764207347480582 11.704672002598947 -0.968971648393815 -0.639235638378699 -0.32400142152418393
P 2.9894548096692595 1.2237647306254338 5.120455223034215 -0.3368425391529102 -1.3458053832276824 1.604190195193321
Ni 8.80269612844454 5.62186475763033 2.781838982561296 2.1475735650573853 -0.9397335774643041 -0.35576842952313564
Ni 6.557980367888753 8.105647098871152 4.5622363213452095 -0.06360497844515497 0.6797176576531456 -1.2908917619089382
Ni 4.960065673042101 5.5270459941032986 7.660010871904257 1.5714870485333452 0.4545548409654301 1.2733951477860714
Ni 1.3488831727836643 4.684700206174226 5.6962070848300375 0.5967592143820433 2.247417471229917 -0.709368647750359
Ni 3.1628061444435693 2.116229665078692 12.864431997564957 -0.18602728413883446 -0.9896867694539794 -0.8719104471727435
Ni 6.178907741029304 1.414782443465915 9.719833264015834 0.43719655219264064 0.8578017756855033 -0.5691231978323296
Ni 8.647213598985076 8.107560956494988 6.6289007544619984 2.613452829896699 1.0469130980663004 1.1307297755726398
Ni 6.412527188477273 3.1891308880098803 4.465408927437009 0.5470513056339547 0.3390999677285192 0.4417723444887811
Ni 5.341107364956842 4.0112431523100405 10.282442076629513 1.672177876087204 -1.8134656512268188 -0.2441344726942118
Ni 0.47641344988019657 3.726630440673153 1.5891937609241948 0.7371728144468207 -0.6364763304660072 0.21398340303212823
Ni 3.166173797762433 2.288210015305158 7.078561603182093 -1.1161698754805938 0.6292438172733099 0.7794772316419867
Ni 6.669177336081297 0.749356230630976 12.984408787606844 -0.40315488922689924 -0.04908621600368966 -0.4482348122846732
Ni 6.730972854358593 6.418793231947618 2.8951908808283697 -0.9120181138269068 0.4960804710130424 -1.435765197517282
Ni 3.6385745874995794 8.263420736736073 4.660477945622562 0.5811539037446185 -0.028486023254834812 0.28532997309591507
Ni 4.735012578708511 0.621437851574029 7.5357104198554445 -0.3798568379309071 -1.283283353434061 0.7296754776285111
Ni 0.7039389170191931 6.271030541653529 13.439712755945681 0.8288128446523209 0.21125520546768778 0.2548806554671223
Ni 6.583486201221788 8.604400235890338 10.750337019835927 0.6637883880173988 -0.37569525035404977 -0.25141866506045085
Ni 0.6920656387605536 8.60111539371866 9.138263459068325 0.7113124017402911 1.0525476706442585 -1.2134143963570652
Ni 6.717428631174528 9.139829509873982 6.6657866796659935 -0.4783311174494213 0.9107251060470961 1.9322318482251495
Ni 1.2491233441412508 1.9455926956843408 9.008361292974364 0.7991878226970366 1.5217230897363405 -0.143133827209418
Ni 2.4583961240092784 1.890090824593118 3.247122614259804 -0.06029339757341874 0.043646790155673215 -1.4522637093929376
Ni 8.307485468277164 3.7760594943041292 6.165045154990506 -0.4804972718628048 -0.3107514984928132 0.308231817394753
Ni 4.6814153640025475 3.6409117020979163 6.075126051005264 0.7137446653308676 0.3641365989821729 0.8521342929870809
Ni 1.7939378814725484 0.1824237560103748 6.962355480708704 0.36955828421837644 -0.5559234113126038 -0.003806775340599895
P 5.124344586580346 0.06356675670320157 2.967777611707753 -0.06486199078070765 -1.3186208523930905 0.5643090642731378
P 2.070223472198036 5.591988335973632 11.736615942563702 0.15183803985163527 -0.040536012440833415 1.490284154500769
P 3.017058525397653 8.895297393474722 8.770508355657517 -0.26800870820864814 1.2103262443500444 0.20173029669638806
P 8.425537359208926 8.794332202578836 3.447012161335391 0.3745832482367936 0.511755458546138 0.7518604983659826
P 4.873390005654946 4.302885610219091 2.217642036169378 0.8443880733827586 0.30466955396479145 -1.2531297126688161
P 8.11367057890954 2.1195789159204037 0.7761244738966566 -0.7949663284165212 0.6958958100749048 -0.7475436161581835
P 6.554180256356811 4.712386733049804 11.974172599998397 -0.5447941341686617 1.4034189199760927 1.0247910693562803
P 2.4325866498032305 6.594748517238973 1.3377735973268436 0.09179841016023546 0.0827409279436575 0.04679433464571941
Ni 2.037163421993997 6.2522508137196455 3.612574647655005 0.10960664198624995 -0.5758111513754663 0.031005447242578865
Ni 8.486495564775794 7.033169132914467 9.694178370617866 -1.2396645883028456 1.0708490400566075 -1.0378887830805028
Ni 3.7519614504732424 5.82089674927062 10.489065090095112 0.7359566826515325 -0.5047815983314661 -1.4556799341633382
Ni 3.100449350613129 8.494206202702593 2.1617813167736863 -0.9019311619045498 -0.6482722946596706 1.5400522270628314
Ni 2.6888595466256335 3.144541685869949 10.747455191913883 -0.27609199943741486 1.536330041016238 -0.034522716367217966
Ni 4.237197968024091 4.330075270211558 12.407444202566689 -0.1318042611292117 -0.7729211756910237 0.7839892605797273
Ni 0.2142545207406427 1.2765522363366977 2.2570196567797884 1.2922284784424907 -1.2491930966185711 -0.37686818761622837
Ni 0.571209210310787 7.666610000211059 2.1218783054405788 0.32750557802270047 0.646757400677041 0.03453145811796634
Ni 2.641740003877266 5.880189530655209 8.037987631249289 0.03195161320593207 -0.09011305203801255 -0.059056182732207974
Ni 5.545108025428243 5.607400410588651 4.737091138502859 -0.04077898168957493 1.6604801280343016 1.3499512870752557
Ni 1.3530237301429233 5.698005006847813 9.784622865325804 0.9047647746986031 -0.059770435190413196 -1.2121422145128609
Ni 1.258738638453308 3.836428820602126 12.774230415555428 0.6950977396536416 1.3496026454865855 0.12103313865563671
Ni 8.572803182619904 1.1205084313240907 10.414000465667176 0.26888853971044013 0.2800568976224338 0.1987123358056707
Ni 5.015539940417595 1.338835420258529 5.320775388075165 1.6221673484970323 -0.3003675841553279 -1.2729176939290208
Ni 4.249895677259151 0.057256547287690876 11.279076073250865 0.1511358715782881 -0.24655439498961407 0.48807097044500464
Ni 0.5074648697030661 1.6569222378353805 12.576185716814354 -0.6229800957517851 -0.11341367443716598 0.6182603216786127
Ni 7.114489679450313 6.364266692145465 6.538402892570319 -0.0646691580436112 -0.843255245329896 -0.9504352801525244
Ni 4.407374875489635 0.5920987822501774 0.8215417875084398 2.244594657069141 0.4345403455167162 -1.2222664474310563
Ni 5.93393396517839 2.9376886414399466 0.2872718695853885 -0.33057984607265006 0.18932935192887393 0.27357668921472883
Ni 3.485760417227194 5.871567970109375 5.955324084496323 0.05486117081425391 1.2354886025482852 -1.7372748656968533
Ni 8.040336707457774 1.1067433784141987 5.241172712781482 0.15118112299392672 0.7330963303846019 -1.0046107377536633
Ni 1.0757812106055176 0.17229135209033924 4.664774003913757 -0.24845366889485596 -1.2092006153860335 -0.8045966524174337
Ni 6.100439578452058 8.124288808226394 1.267801858450797 -0.034799624177688455 -0.05621614218025157 -0.29432112085093187
Ni 9.170791677682663 7.035322222741281 4.690320322696527 -0.20536557945613018 -0.3340094405794893 0.011693377177528249
P 6.541776986756187 2.3026099536768028 6.827551814825238 0.4040465478032331 0.15515450581937795 -0.10518948675516077
P 7.893862190564344 6.900754108565364 0.8863304686945515 0.46041361373905226 -0.7943688040418384 0.4070596235979441
P 7.553075917420178 5.202545913238883 4.552338549008865 1.7771125665190814 -1.0748838722476133 0.2061361390735676
P 3.809082739553864 3.9972388671971686 8.91271901859477 -1.3355289410023385 0.50847653068455 -1.8922712486718123
P 5.340122832429196 7.54191481502733 6.250304751760794 -2.147429583280353 -0.7519576860654792 0.6442734579129227
P 5.577082329480299 7.931412445193535 12.530828211253317 -0.12663711510597545 0.03929905470993877 0.500422292921506
P 7.727586608255079 9.186093337434768 8.794250311555508 -0.33357543836586423 -0.7026644962573061 -0.7796759779163539
P 1.7166566786716235 7.1735340273933454 6.349421413826736 -0.7728023907249724 -0.14422217517759034 -0.5828037806432157
