# total energy = -340875.36251920793 ev
CRYSTAL
PRIMVEC
9.16865394965779 0.00000000000000 0.00000000000000
0.00000000000000 9.16865394965779 0.00000000000000
0.00000000000000 0.00000000000000 13.41925183706691
PRIMCOORD
 96 1
Ni 0.9442063221447127 7.227989157140047 6.397144989426492 0.7747276327721432 0.19328756524567356 1.7877193955006503
Ni 2.579857514055223 0.25304659751708203 2.5239067201275858 0.24932244465305448 0.23777253503192597 0.548579569353023
Ni 9.128220196384362 8.70472923860978 12.736400014612732 -0.15213345960486702 -1.4354965172369278 -0.3837104073490424
Ni 0.36749340371174866 7.986447718702038 2.861535067294288 -0.41691929000084327 -1.2139306738718514 -1.470124134613126
Ni 8.491713901148978 5.164143487973295 6.521944122807789 -0.622293868318038 1.1744099900694096 -1.8170590250050318
Ni 3.8836492758708823 5.756695256122762 2.360969653732819 1.7520006019428023 -0.3139394093024916 -1.63973826750126
Ni 8.802732980791955 3.6878343332396986 3.535087308856464 -0.37045097123597487 0.24608619710394392 0.09885891655144265
Ni 1.6542177161802178 3.046954590065228 8.5052825921449 -1.0776231255556472 -0.8781988512846166 0.9441155085820837
Ni 4.317629173776106 7.351215866367144 0.6142768937085159 -2.0637216634377364 -0.9460062978468933 -0.2397643686509742
Ni 4.084745363183228 3.202519141810478 2.1840238009520334 -2.0036321543450075 -0.1974974895619631 0.8484912969178549
Ni 7.493962639875826 0.33105167168094346 2.929462873890329 -0.46432940385369065 -0.048799023780574026 0.23579844202469066
Ni 1.637769150975351 4.573709678888667 2.0286417054205947 0.5582338046133354 0.16943184167399852 1.1434348818441338
Ni 8.48749632032722 4.533184228383922 10.330918379633209 0.2655893001338781 0.22852556251236128 0.7422106339810444
Ni 3.806513390102462 0.9759757081173236 0.5802685224387876 0.05952746594167167 -0.283882184905795 -0.2147853301081333
Ni 1.564685810257405 0.5577521420429612 10.684932028292451 0.15729880585589037 -1.3374050749791289 0.004738028905617646
Ni 0.6918391218860925 0.6990566862836797 4.002586888775328 -0.6571937655190165 1.8070641185758491 1.2093785357247946
Ni 8.027229891517672 0.631486457192092 10.485789781139056 0.7961053271169709 0.5428766054309748 1.1441468203094942
Ni 3.503856122871325 5.874613314706816 12.063988353603225 1.7959284136740037 0.37118656385041876 0.29146308257684644
Ni 5.93188989599712 2.472868490991904 3.272324688737599 0.7414087069050393 -2.8864589913199388 1.211092690202424
Ni 6.72990203074406 5.844448443177266 8.228886183586996 0.3606242149535402 0.40610085922910055 -0.9559153294304893
Ni 3.721758352892991 2.808963839216436 7.400731182080012 0.07044025619943352 0.03100210480846919 -1.6510230963864596
Ni 0.19353928271822562 8.11371780432565 8.937328820929887 -0.5955168573345099 0.49441131084073564 0.32527077515491076
Ni 0.246016073660286 5.599572033204252 8.454853161632187 0.28113393273669646 1.056585845269374 1.3715022737731541
Ni 2.736742351970763 5.501724158139402 4.278057263283237 -2.6625673280351627 -1.8081457816758022 1.9264504656566819
P 7.877560784268928 7.453877284761178 7.179165157935789 1.547093193070013 0.881744916764662 1.0734515106764608
P 4.215105285191478 6.31384685133132 6.669905109823721 -0.4642743822460391 -1.2767643213686204 -0.6651220192271577
P 5.067881790043585 0.5206915258698325 8.133355227377926 -0.5358240694595675 0.10276930734944235 -0.8111686492079965
P 8.87477109495842 2.6120945013798114 11.60841810935217 1.4042900097271362 -0.6766225636675894 0.9608922138197903
P 8.489247533233646 7.090963623702623 10.88871636494597 -1.6741283149453552 0.6634585154818057 -0.017775578815866163
P 7.809327661496007 1.281108511917755 5.06604897611691 -0.20197146617291667 -0.06443467343530193 0.22019133161505303
P 4.7715233880832075 3.127858792611352 5.151355966294794 -0.792210620048255 0.5308302157894018 -0.6903208870902885
P 2.118032414072418 8.507373962113256 12.83990219857493 1.1493841574490335 1.0235443414333727 -0.026871113359231143
Ni 6.686488454241805 5.984444620497844 11.759397417251849 0.32287399278796003 -0.6414601568338437 -1.2840130325112338
Ni 1.630846817235287 6.646008847006862 0.39401831961903977 0.8669333056731263 -0.009869436594912033 1.016449125149488
Ni 3.4346327854706864 1.6158468993561552 11.618871291732365 2.3291384425494916 -1.1345848876526718 1.1165789379935545
Ni 4.079409206578305 8.399037146917767 11.835793392645671 -0.9050290841035833 0.5186532141072359 0.9564184943191528
Ni 5.301260707950321 4.4292025238195984 6.8213281805750805 -0.02872847828294407 0.5200462378000205 0.9508829092129044
Ni 8.67119030242282 6.172814616113224 13.018042726966748 1.0321595939062096 0.6257314332446772 -2.637528125678348
Ni 3.7729652852615434 1.1694251380267378 5.043947935745488 1.3934258133191229 -0.6252380385480265 -1.1960869608222109
Ni 2.9901639474348234 3.341020828535518 0.12352193988462058 -0.34154817215869565 1.4512931179495523 -1.3550117323172988
Ni 2.1634080825221877 4.895841167131587 7.2946654424705 1.1692749828356894 1.246897615716175 -1.5330194885857662
Ni 3.535414629802848 1.642949440462948 9.310195972727795 -1.2716694233442163 -1.8182275913918364 -0.29667959378077935
Ni 6.908241518926818 3.7313395962815568 5.302617668736453 0.6762073305070418 -1.0205878299082103 -0.9070769677715474
Ni 1.3774710650410285 1.512507000569056 13.037192377628335 0.14389435952452637 -0.27326198618778746 -0.2795809864272798
Ni 0.48893130855118183 3.875342475382806 0.25431737295598644 -0.8757313635807304 -1.2791857863259195 -0.8627521777122431
Ni 9.028511084565562 0.6327792374005011 6.9469323217740975 1.1516662686149908 -1.287600492752176 -0.5747595701825005
Ni 6.002791097072502 1.8717623686974305 6.496272808584206 -0.4371842108974664 -1.1609590067708262 -0.6435214102382466
Ni 5.848372627072297 4.8298085213091495 9.966799957444264 -0.0015130942104167491 -1.3042270455652636 1.6881187156871769
Ni 0.4112801444301898 6.120589963155074 4.51243831506784 -0.43339774727184066 -1.3276652219835456 -1.6946202642511201
Ni 4.205652402958357 5.833666106119896 8.837624293438065 -1.4117446662329687 0.6899719883913021 -0.8229116486765377
Ni 2.1253856745486184 5.119758034151242 10.059607823427111 0.4822109121198018 -0.8904905241677761 -1.2224628797125783
Ni 1.796120973524547 2.955809001045394 11.138072579244014 -1.4363673498776552 1.861929403155161 -0.6609401199353262
Ni 6.464258619550853 8.360125379510043 11.920173431908163 0.9924319362992844 0.2117876809323901 -0.4512990530322938
Ni 7.748310269389881 1.3148216525299603 13.212608898928533 -1.1367263594757067 1.2987534240452019 -0.6054580277076218
Ni 6.543925053812331 6.382996839500277 0.5262147230155471 -1.520050330019608 0.838550383655059 1.7943243024116775
Ni 1.3935803900493624 6.965811497143853 11.217487792386976 0.12335535903091013 1.5491814430576094 0.09724657775900025
P 8.00115423965444 7.958510830084855 1.1789321153182242 0.2743246231243469 0.5086734771867045 0.2081814516383705
P 4.868756963332714 4.918130164909196 0.4006775129904416 -0.3601467610964894 0.18718788010583892 0.14917823363128502
P 5.596958966825553 1.2049811780849733 12.456796410899496 -0.5664415372351084 -0.7654888877826945 -0.11407753327340997
P 2.062305335301414 7.042488950214256 8.67258027036321 0.6272134171068424 -1.2547579923008585 0.3144410315292585
P 1.057494210478791 4.056120825519017 5.440715017821841 0.3288433229975175 0.4133462279376043 0.2556789829987016
P 5.15929327002827 7.000248961418926 10.59111744410476 0.2858655338844109 -0.9124698566523447 -0.3021683848094925
P 7.747613451688895 3.1370916271494242 1.6587937913718283 -0.044004944826040344 -1.154930026967927 0.7363618885097512
P 3.885657211088199 3.613852464433638 9.807366233727747 -0.17751204757897168 1.6958559364304342 0.2758932531630474
Ni 1.882113779018665 1.9812269283300432 5.9377908416860015 -1.3871307243390303 0.08848142997186052 1.5459377393093312
Ni 3.5569793039175903 7.717301881695979 4.043529513035269 1.1148056481432156 0.08356830894095929 -0.3331388650490779
Ni 4.867143280235693 5.530541237536781 4.564075257307132 1.7127100318732955 -1.088535658703093 0.5004770574188413
Ni 4.732015658168062 3.6227093841593354 11.926132140116993 0.37528978738551494 0.7620482375322618 -0.6921358288118403
Ni 6.185320660115141 7.158894180894853 3.1218414050171748 -0.05215148519257469 -0.7532617495888833 -0.8628609353759655
Ni 5.842761410848563 2.776699345929966 8.870997276988343 -0.7064748711423317 0.6121063862620748 -0.7283850409518617
Ni 8.453636481251648 8.190734497592587 5.113580195112759 -1.1326082235422752 0.0968673400427106 -0.3904212437103147
Ni 1.9531433412494927 2.850598696850383 3.773373290362779 0.7602857463152003 0.14290037104237324 0.24739951659872877
Ni 5.9253709830313115 8.804511699660264 0.8290095200560894 1.3608895312543143 1.4279009642778568 1.3190723381082123
Ni 3.840171518790905 8.314117073937009 9.520395616557373 -0.46834006767498054 0.2561505233184814 -1.1998916792802818
Ni 8.753891561145174 2.9329148721064007 6.826333348772035 0.20278290633061852 -1.2544517739143493 0.3084413623023978
Ni 5.5919253758013205 1.007699250820133 10.289144158459063 0.4113525945463432 -1.4114603022233305 1.0511731588942348
Ni 7.3072980138970705 4.240401601468082 13.355483116727264 -0.10963338145912732 -0.1243730016621471 -1.1120735939240332
Ni 5.643920812410463 2.725684955294582 0.4840508340480877 0.3908603881302623 -0.4902348108655428 1.518022758066618
Ni 4.456140029155105 8.352478722107112 6.395266332230015 -0.5372605447957779 1.085476560161795 0.889035022668172
Ni 8.471735404169378 5.641812021999582 1.691765187878641 0.4777976135434545 -0.2435202361489806 3.0229909969421227
Ni 5.935759067968387 4.4991135102672635 2.4593465601311806 1.9959574114085685 2.3431954348631905 -0.7171210380022682
Ni 2.3384010120094185 8.894318665201887 7.58152878638954 0.007750333369380201 1.064037673561729 -0.2311113209616665
Ni 0.09519171601253666 0.9984755849360213 1.47525842698974 0.6865267101551789 0.28555571595347595 1.737962635792497
Ni 6.926358779152468 2.9596323297468596 11.245211968232281 -1.7589382096028998 -0.5574035954025561 -0.5030065087089144
Ni 6.372297020328548 6.6380596240232395 5.983322377253097 -0.24213441154504753 0.08233469364417433 -0.36305416455127154
Ni 7.195917205586744 0.9504685127996313 8.24959267169105 0.6334663399950896 -0.4308508124802709 0.7543436697991525
Ni 6.783336946024978 7.940283546011679 9.29783754405464 0.2768746432397103 0.2847633019591676 0.7035327577948722
Ni 6.0865375823463355 8.6816700738995 4.856064795655402 0.3200663481358359 2.2158376395411064 0.13091465943540678
P 7.415744852940083 5.513716757519539 4.3771456572289225 0.3223114354162707 1.025664473100169 -1.7559711565547758
P 2.0909665475814667 8.757256457148621 5.196511587049517 -0.5100616157834829 0.7671079114433563 1.4027491476025775
P 4.978276534889089 0.1280943476146469 3.104691437784341 -0.01513479875890942 0.3679680569131211 -1.4005750227693943
P 1.646112626079269 4.985363904400439 12.282238992475383 -0.6526452269163857 -0.5786457926107841 -0.4894364833339635
P 7.615043884076201 3.8969254868054684 8.396130683612336 0.4085958577368124 0.32044404319022873 0.14801738055396443
P 2.0217157042189466 6.62679134830597 2.599148361987798 -1.3416347967897602 1.302152679534738 0.2695619116283809
P 0.3905314805179188 1.3280703575026653 9.096132658119327 -0.3078960313218891 -0.1922480682375657 -1.7827072869980396
P 2.062837117231114 2.3006720009625803 1.7374177496780134 -0.696620089835439 -1.0399374380794155 -0.6079365711551015
