# total energy = -381164.32498230867 ev
CRYSTAL
PRIMVEC
9.27243523952013 0.00000000000000 0.00000000000000
0.00000000000000 9.27243523952013 0.00000000000000
0.00000000000000 0.00000000000000 13.57114624516300
PRIMCOORD
 96 1
Ni 1.7366621939450868 0.9777504677960607 1.4365876480707036 -0.9358949204445043 -1.2305821663856034 -0.7877631257998626
Ni 2.5719973304858277 8.13172162078441 6.898838245731603 0.16592305718979164 -2.174427452025436 0.2044152997277189
Ni 7.13690987233793 8.92357830897199 9.20665184502434 -1.2468857886416331 0.2877079864097884 0.7153318073123293
Ni 4.572590118144791 1.2758314401161832 12.724116733136391 -0.34130725979248316 0.34992354070658443 0.8689793895688777
Ni 6.018644922489449 5.938104550897307 6.056558055273924 -0.1011497694681484 -0.7229093625492712 0.04511360450918682
Ni 2.291024000991805 3.27049914172318 13.358785246409822 -0.22925729847206322 -0.012384232596965769 0.2944764154818735
Ni 2.6139458270415328 4.046286699819904 5.555579511792746 -2.877710555703347 -2.8639590104452095 1.4854749060375836
Ni 3.7628747198850867 3.5010582413822413 11.085821167332593 -1.2529389368142487 -0.6946210571275391 1.0556815882875497
Ni 8.178055979159488 8.631329698352474 1.595858411916421 -0.5539130657507944 1.9142004446447358 -2.1176204703387205
Ni 1.8075406881254152 7.615738422765999 2.338552649012413 3.3745564441275047 0.5479846160815014 -2.8584025994033544
Ni 4.674475635420229 3.568366848035172 0.07112884992900302 -0.1148447504567377 -0.5205005517286196 1.068454828792818
Ni 7.765228622030161 6.277299500610885 0.07672754626417862 -0.791358813570921 -0.2953143380021366 1.365233410045307
Ni 4.100697349198523 7.189577303910964 1.1715221082961693 0.04442609152385897 -0.9598300911038632 0.18685106559171044
Ni 6.0935012913431645 1.470719481806678 8.004139404016305 1.132541889080714 0.3113441377714896 0.07703719269066088
Ni 1.2956559064371593 0.1908823497117007 4.097780241104706 -0.6254234150859551 -0.6380308194373205 -0.9178578604371355
Ni 2.1876827114 7.243190523867878 11.108240988248163 -0.8826666572479832 -0.1455360088930074 0.6675956775786309
Ni 8.42952442005045 2.809686932764548 11.60882638047957 0.4431666537331464 -0.9712969540928821 1.0144943154159625
Ni 7.903341543382331 0.8798354072458996 3.7959717498598726 0.2125654396386791 0.1192279671260979 -0.9388095229881379
Ni 1.2242303385838014 0.5735084583592456 6.520759339274799 -2.5907422756730605 -0.23390302477419073 -0.06546260047918404
Ni 3.8559606962163686 4.27806976091693 7.586759281235154 1.099828715118409 0.13847961626685829 0.8603913907895504
Ni 1.624957167860522 7.2191934617356575 13.453131346676098 0.7279510387382366 -0.44319827830203024 0.7271586247439283
Ni 8.476952925771588 3.4735932885091207 6.634132476440349 1.2292048264221023 -1.359329385856046 1.02206749977753
Ni 6.434847446008317 7.287688940086009 2.248820512469858 -0.8263726106419446 -1.8794406725660469 -0.43542017701850816
Ni 5.976436797749935 2.8909320094270337 11.727125962432929 0.5165850187242974 -0.16510981725987695 -0.029519349615355614
P 6.064747469986126 -0.03723068155845821 2.481822898787281 0.7636433499335237 2.55920101053167 1.528268604164342
Ni 6.0022976193445094 1.9242064670077927 1.3963897872686941 0.9571810835167901 -1.0989262579087977 0.5930488554099915
P 2.8718029757412644 0.8219948841104376 8.186047891003291 -0.09307162044570423 -0.8998146297821794 0.5445015426289075
Ni 4.030069210766869 5.759999616803149 10.629572850947948 -0.16501262956038035 0.36963438887195055 -1.8250862661848828
P 4.835315295290974 4.060482798013268 5.279528918112478 -0.07720559994772509 0.26152361470493674 -0.25986782426906857
P 6.171241387524204 4.993938843164192 1.3332101959818674 -0.061163715993514015 0.4234421787210256 -0.28922570860589547
P 2.9507577609251334 5.295255895346813 12.347544597389206 -0.8769984032186121 0.004406356597811766 0.5357533641226322
Ni 0.644983170118825 2.355968136685031 4.835019504610132 -0.0744645468674782 0.7709733079360336 0.02321834709799227
Ni 3.792055073258385 1.9871570291467577 1.5611971221341754 -1.9962098937390076 3.177891734879482 1.6982185231253395
Ni 3.6241961799896147 5.8750798092772545 5.584404730900332 0.7046612149723606 2.5811276354014323 0.6021811567285629
Ni 7.296163945800402 7.971354855105606 6.897982399968541 -1.2087504152224926 0.23602778442667738 -0.24172406348050626
Ni 4.793700606400169 8.811103670771129 7.448673249944878 0.8210321722656376 1.3154702225792507 0.5796246115842856
Ni 7.729678105718364 7.5653056480607646 11.799419430215025 0.5234274955674275 -0.10725536814525401 -0.9769762638658464
Ni 1.8207724530646263 6.650329566136084 4.277177752656837 1.510693057174424 1.2203178083451178 1.0360229335163575
Ni 8.10202201104349 5.7351216733329995 2.595467718302318 -2.132051043941754 -0.7509145895129455 0.010846198685884547
Ni 2.807396641285932 5.286020549951259 0.9172821365430288 -0.6605629391015656 -0.07625814843279126 1.1062808985016561
Ni 4.183333291131422 2.1073277885105797 6.9861818029831 0.29440725280683494 0.6580278313845377 0.6363958549370589
Ni 5.713479809725349 2.7964644402604732 3.6910532190514176 -0.4622725213246619 -0.20734378622842353 -2.1941701818700015
Ni 6.028714787047251 5.371846209570977 3.578236427994034 -1.8149270662636936 -1.0859614702180136 -0.7152839847935294
Ni 0.28686410753598557 8.835082188033077 12.395749205931235 0.2616557694074268 0.5601942707738158 0.3430725792230221
Ni 9.169390564429932 7.4753259375000765 3.0125641045683045 -1.0912242612788499 1.3927370147822142 3.547391140835465
Ni 1.2772593951271423 2.466801553866803 9.739251246806637 -0.06915264773626154 0.15468682215434004 -1.7275679228217342
Ni 8.513662496475398 5.880392914610238 7.03784688431792 0.5879956092568002 0.5596054881498814 -0.816880097770477
Ni 4.493422066952791 0.08894583404301414 1.084225840463867 0.21297244526911066 -2.0376727888694837 -0.8776051835646758
Ni 6.405314740099847 4.9375068029259035 10.37187055191499 -0.7625717141358996 0.7312960439510695 0.39680143620504565
Ni 8.82913855711084 0.7903128277374202 10.486709661075556 -0.9881055410097884 -0.6788139148919535 0.2826817368397906
Ni 9.364881314404274 7.993098715499754 5.458396046374823 -0.3225086390287414 -1.0564534334565676 0.7993192060685782
Ni -0.10552958428392431 8.445287559781816 8.206838545065448 0.8519373464849264 0.003067068961097944 -0.12705440514905214
Ni 7.480657587703332 4.1942284024163365 4.791007891236646 1.2141199070645219 0.8969802456571778 -0.8017779520217159
Ni 3.259659665049082 0.7058196170467599 5.61280898145274 0.8024479815055471 -0.4914332020490182 -2.2803967543694146
Ni 7.261466493521127 0.5997828305608912 13.123718816031104 0.6013452910908289 1.2951538796194018 -1.0190032590299096
Ni 5.736262182854739 7.2737153803359105 10.781624096796701 0.05627836287675469 0.9598298339935469 0.13088046376336168
P 1.3279610704513227 6.147791399065014 6.533529336944233 0.7422355736817089 0.2587285684583028 -0.5212703400151087
Ni 1.4323223279080988 1.7855186546771842 11.844597515928633 -0.2099017767635869 0.15975292382333778 2.120491621238929
P 9.423297655761687 2.2404799570649385 0.14538065601184363 -0.3021475588738861 0.2025255389041738 0.3556892395457681
Ni 5.315506893684049 5.462011368834387 12.673781319000085 0.6728610397426282 1.573873803597967 -0.1189330615934984
P 4.9106167410312205 3.3165367821739036 9.337409870826557 0.9318899130501692 -0.1389673545365542 -0.9268826896435649
P 2.725103779453068 1.7214739451921592 3.593815973509705 -0.7423944678570762 2.0923110450396547 -0.2986806833712082
P 0.7427090729922098 5.341349170408352 2.2190179786989273 3.469434264544012 -0.24298827490491054 -0.001945296651828908
Ni 3.245630470688167 4.042030652092435 3.4573581818293277 0.48680033126269706 -0.4953294517796309 -1.5933933616881333
Ni 8.675206861416486 1.521467519306539 8.33201827388979 -0.05413457706087452 0.9299006505342824 -1.1148884376650088
Ni 3.7730651260996577 7.931807919250151 9.51524590430177 0.08135613178098892 1.3961761223707503 0.15758316986552862
Ni 8.066035690280296 0.6912368583082196 6.137184660512832 0.09507013893297175 0.9775658178207293 0.13994051708310093
Ni 8.521506976600536 4.998333977418702 11.775262882198465 -1.9821040504652445 2.068193840276477 -0.6537641710121772
Ni 4.21981105095683 1.171646358926993 10.535294439458166 -0.18143760788562302 -0.2634740535630882 -2.2554588534771542
Ni 0.0533118658149919 4.6398709074923135 0.2686854984516666 1.7737760459466807 -1.1979522961657239 0.9885791382120975
Ni 0.9058826047867107 3.017704742607757 2.3497760045011455 1.1774523764401592 0.4294151084750088 -0.05706949131948236
Ni 0.49123692312719436 5.0069851594006805 4.544324954119426 -1.398364645381637 -2.040256490436261 0.2976787244692551
Ni 7.990947510548179 3.5745144725304043 2.3100260023162096 -0.9865975890056944 -1.6792980320717532 1.8288187366441213
Ni 1.2118887274176557 4.207617798752862 11.128570802284058 1.449471491359781 1.0614755692615074 1.0928967638852662
Ni 1.688269354969795 2.487729439968975 7.392976513812882 0.08255246608193526 2.1040219057186795 0.0905074592629538
Ni 1.908053885000711 4.7062522706316345 8.775265708970112 -0.03496288922843011 -0.6569983616787588 -0.09376813229209657
Ni 6.147309232437937 7.938586069334638 -0.00028837273273262854 0.07922880102534097 0.0017311237584937925 -0.19524983117836694
Ni 3.6755191084679137 9.113997036926886 3.3003396924781683 0.2735563774997547 0.4457346715706388 -0.34294916627128036
Ni 6.796018066994446 4.63156280561037 7.872078601077465 -0.9957789983946463 -1.833243090964062 0.8325108623291985
Ni 4.470574786777448 6.547164452811864 7.85101626466582 -2.4813032696129267 -0.9524152866970308 -0.7590351617375508
Ni 7.0930697990144616 2.8648393769540554 9.661583475619658 1.0417894036864896 -0.7167906512460429 -0.8943286669669436
Ni 7.235049325818386 3.3359532613488914 0.2513822072441953 0.5788034012345709 0.7115890524404455 -2.588645798155348
Ni 1.6317816801206895 6.920806499056044 8.781942789511616 -0.05604773492318735 0.1946548779068454 -0.16563149409130182
Ni 8.431267637856035 5.920718735017125 9.476853386620757 0.8538057671522328 -0.4017420680397726 0.2589283431739347
Ni 5.826130624193796 0.33017379756966914 4.813522290990605 -0.5506999581301355 -0.3582089206438282 0.1661544564743074
Ni 1.8746082114648077 0.32699057058744696 10.216602698317525 1.0144495782209562 -2.424221179887954 -1.3336224680082451
Ni 6.311329337560363 2.585609265265619 5.744041755933925 0.48708340972075476 -1.5454687700927126 3.0194431316898642
Ni 6.3836450591867875 6.723108909519312 8.631398314372479 1.4273443204434386 0.5043044015847314 0.5517764790237659
P 0.10916530610078809 7.71160612963811 10.34763240646923 0.43060630056963256 0.7300981669882264 -0.05968121791071657
Ni 7.032947329592006 7.3535695917279815 4.62444992061747 0.8364821882721206 0.8982477995156917 -0.9597573288843987
P 9.179210073239059 3.844574145869241 8.754841316095831 -0.9896019230496569 -0.24402494369954106 -0.5688658304058849
Ni 4.192995168543236 8.071432247529504 12.421860383274485 -1.040964079571717 -0.04912066878605088 -0.7250382359668158
P 4.646259615301084 7.824294033847101 5.592479167416846 0.2927308935456765 0.1763139135058125 -0.687312439281268
P 2.417481471377901 0.035966848649408134 12.653248438634712 0.6181505355736258 -0.6723177656446485 0.4159978066278385
P 6.113056857045193 0.25795729099920195 11.141164623685903 0.38698265034241097 -0.33183582996693817 0.8063869115486371
Ni 4.267953534183448 6.95453034564603 3.5558166070784645 -0.16130227058832866 -0.6712042208654957 0.04300041482092594
