# total energy = -381173.93045509624 ev
CRYSTAL
PRIMVEC
9.18977009229165 0.00000000000000 0.00000000000000

0.00000000000000 9.18977009229165 0.00000000000000

0.00000000000000 0.00000000000000 13.45015744626150

PRIMCOORD
 96 1
Ni 8.35485205135993 7.850829912356132 4.351556549263922 1.6366436877363364 0.8378312461008475 -0.04908673022432191
Ni 7.281514455742626 1.432942495178944 8.7697848816747 0.27287092139695585 0.4637125962052982 1.0367233020174922
Ni 8.962948338418611 3.5030852797909438 5.58486874637567 -0.3185452835056191 -0.05047358326951953 0.6721113060607973
Ni 2.612559783710571 4.294829935479094 5.068570912275032 0.7628180258187508 0.8991643977926902 1.4118436537046781
Ni 0.32678731103017883 1.998866926571059 9.690677054561482 -0.4996712736880942 0.4676643817641946 -0.6791797828718045
Ni 6.30906215790426 3.6100450157035944 7.972432628181422 -0.2142284291633988 0.6974893798142697 0.6226445667892373
Ni 8.426624156994247 0.2759393932727869 2.343690080689318 1.0028251066081504 -0.4502374445369988 0.36790377933408897
Ni 1.9786126729451907 3.818726318487722 13.280752699516885 -0.5384381100436468 0.758395471271023 0.5146680042072427
Ni 9.010110239329663 7.137216683313686 11.596994723945263 -0.05047923969647436 0.2385860320721568 0.07692149304840301
Ni 1.985964489143328 9.064329883790924 3.1533226241645615 -1.460916499971929 0.40048042771852965 0.7089181904765016
Ni 3.5829535730134583 5.093485298393493 1.0354040619889657 1.3944208302425405 -0.392675329851814 -0.3251460766515884
Ni 8.147549214112953 6.906921040907035 0.7402755094620157 1.2362249664936773 0.8727735665039872 -1.4282475489839983
Ni 0.08600889770200844 6.209160165541823 8.957926128978258 -0.49566960872786897 -1.4043745990211427 1.7838393437199536
Ni 5.947279282793923 0.07698821922689396 7.206822760100626 -1.1298838826325766 1.1631727265926934 -0.9358419557193818
Ni 1.3735030612170038 6.9866055387245956 5.257491452095591 1.0910712806407532 -0.25889311906062507 -1.8982020123339503
Ni 7.079256802361622 5.575314142249166 12.38095104934851 0.6485147496877799 0.13035364472561423 0.8026585548544564
Ni 2.3231555390708962 3.4908628853615404 2.8356837294159396 -0.5195189045416407 0.2015158666927368 -2.333632987985736
Ni 4.594489963715171 7.595740269821262 10.728747068899297 -1.1344702164516784 0.3547564433188536 -0.15113201492354617
Ni 8.820212826931776 4.441636515185649 10.626176367256935 0.12568812092914483 0.25489505364482556 0.6064497021969297
Ni 6.344700086924732 3.805879019681477 13.550495430711667 -1.8419928121322342 -2.0385130253825925 -1.3543057073892095
Ni 3.1199086195440273 1.5034739818298237 6.533575596871077 -0.22227881027170107 -0.8439260461446756 0.12289564578567222
Ni 3.8632967041889295 1.269971109606735 2.4096230063082635 -2.7282685268877143 1.630900614604972 -0.20379052165952644
Ni 4.28616398213554 3.2689023645695277 10.51523929878109 -0.8975006369370221 -0.3860920202073415 -0.6804370523176733
Ni 4.358671269389669 5.791439158933907 12.066634256544424 3.116613861905607 -2.7968555319284927 0.19464047972914222
P 9.214582627340356 2.391913400063975 2.6547656415270526 0.2826444558439519 0.41697842537355284 -0.3486984100502317
Ni 2.530476755858368 1.6507032909677712 8.971161236088955 0.253890266529395 -0.21374326199686414 0.43784909817497497
P 6.052511341900011 9.097431436223038 9.88453433895909 0.5157854056411375 -0.39617228726147896 -0.7030146805078731
Ni 4.752158851854474 3.08591565939789 6.2965971535403185 0.16890168020214136 -0.26182700487796845 -1.3117390376715925
P 7.885098565609699 2.411147589192352 11.089412467947517 -1.316456754862236 0.6750639609312181 -1.2398497077304582
P 2.2912486567709798 7.863327999892966 10.809178695037991 0.2314116258109047 0.5868599529904602 0.24242160376816313
P 2.8265160146168626 8.9051722528715 0.8357149493921848 0.667392046208257 0.7127193093901468 0.16011879180318875
Ni 5.044053524231268 3.435044220877183 2.4053185179242536 0.6712754404230633 0.02655255367754782 -1.0385858091475275
Ni 7.256288536412767 1.940208623080171 6.468907183638212 0.22701735339795098 0.6227772357123597 0.31289142765395145
Ni 4.412367096946815 9.039545073432954 12.764226959114103 -1.8685829039159365 0.6715973425388563 -0.6259021544945865
Ni 0.6608942740626281 4.966914592772313 3.9120723287554715 -0.09592528784441544 -1.248543378849714 0.6056945691984601
Ni 6.211145155915319 1.2996724470472096 11.973989425746572 0.46072008923587754 0.674673924581651 0.23587171846478733
Ni 5.8929677406301835 1.998866926571059 4.612113186119132 -0.2118900108382093 -0.1751124369985436 -0.9967074237461867
Ni 0.5369224354674882 8.516187657828054 9.708794686604767 1.14113991516237 -0.952771898705501 -2.7845538317430045
Ni 7.804550229388858 8.207778968316195 8.359770416396485 -0.6389443323905254 -0.2698287921365224 0.44531506753471695
Ni 6.047824559073699 0.9488989166935832 2.528992607963369 1.3791122249099281 -0.7491631540394775 -0.053587960528785124
Ni 4.046696949021713 8.20191589489818 2.5705533439084642 1.2253206608763478 -1.3344812164641147 -0.390611762454566
Ni 7.752646407030007 2.0096189577608348 0.6960984459274087 -0.856297423225835 -0.5568682917243765 0.582312442829094
Ni 1.2546517626038665 0.5716009524741018 11.33989527865723 1.146920269289573 -0.19131347223843828 1.1631629564006807
Ni 2.7789865228959045 1.9070243627158285 12.361408083939812 0.9784708461335019 -1.2948900844350537 0.2995245194287422
Ni 6.579691701927942 7.185132145385046 6.434797513409929 0.0678688959278315 -0.4450070493759949 -1.563944974520029
Ni 4.209126138149309 6.916092431614211 4.99891245379768 0.038822372183836364 1.5327304965904378 -0.4988040405917926
Ni 7.14292353063749 5.743027449269173 7.996818602510644 -0.21428139388852127 -0.1779380793727968 0.9993469182515627
Ni 6.759847957863298 6.357574955041719 10.3488474807227 1.8620684998361867 1.6609956342181396 -0.9528863127961781
Ni 0.7208474161814132 7.519648972170541 7.405912699677258 -0.45653381906867174 3.670870684149065 -0.9649663838891639
Ni 3.903336533158035 0.27023438390303234 4.472056492659492 0.18447279516752102 0.8908319666675948 1.574840281276294
Ni 1.4876124383823424 2.182487725889786 4.633915916031732 0.5551682783141342 -0.7444066131910986 0.05139120998778245
Ni 7.421777919032839 5.7912094146777156 4.37122081963989 -0.165321933270683 0.2026083284259672 -0.4908986697017868
Ni 2.826341408982157 5.814606569728288 10.262322117932772 -1.300933462415656 0.038581716927940005 -0.5585315383594123
Ni 1.400502606204663 1.4817126058833372 1.03402651542884 -0.10182262716545691 -0.004599960665856594 0.4243600625496046
Ni 2.1111934883083494 5.861658193396367 7.0533967888846725 2.0391064359922173 -1.2739988428083415 0.12776968604852187
Ni 2.5607386692839507 6.403441098347848 3.386467095347991 0.3969366762313293 -0.32548237694508464 -1.041999977035399
P 6.8895064262876975 9.095988642294154 0.7740874311342741 -0.6159884949253004 -0.6254576107580002 -0.7521361206248723
Ni 1.3793201857837798 5.499130946895967 1.4614537573723452 -0.1851273980323844 0.15836298545434663 -0.3407922678292776
P 9.00115940310843 6.315522566388374 2.689062783068388 -1.8929042542701204 1.8020995754817222 -0.5736514247199862
Ni 4.94126594401106 5.484096482770777 9.590809983325984 -0.6501674547998544 -1.212252257728164 -1.7222256846732147
P 6.5882749473392686 4.568611570697728 5.996900366223251 1.5697631238637029 0.05156938743685957 1.3430699865743903
P 0.5234741256870454 5.4532188547386 12.626819676416869 -0.46589803389239115 -1.2929141916556055 0.6485728566192249
P 4.735984856218572 6.131708781894446 2.4912787098439497 1.0541340412947715 -0.5201547383534267 0.7537471738657341
Ni 1.0731262309016083 7.848762214050406 1.4209287085341626 -0.14583785640414237 0.18346055185292273 -0.26679411907525663
Ni 8.685830816600072 3.8763094188596323 7.9963343016185915 0.7483154613272016 -0.5203609408269619 0.5488405363238935
Ni 0.3975016741089874 1.2343056112755213 7.172350093947559 -0.7281402719309072 0.46006471504006574 1.6189033330337796
Ni 2.745471430802646 8.206326984617062 8.485287974347283 0.08064419331562886 0.16942464258514692 -0.12211248776274454
Ni 4.898303768103196 1.8989189853573822 8.376381845096176 -0.20073810798644784 -1.7310967619105992 0.948355257695044
Ni 6.441606214186428 3.9238572901210858 10.40143777891905 1.170289797253449 -0.453289086879129 0.37614596473822315
Ni 8.881646441037459 9.159398057003088 13.306819482824405 -0.1302418017380983 -0.08610033133419365 -0.9524232571168307
Ni 1.7182848613691484 3.155142198673601 7.229365266518164 -1.279464236798287 0.8989422544795551 -0.6491739805383335
Ni 3.7187967568145406 3.850265609977731 8.122967497677458 -0.5239340028902009 0.9550264990676327 1.6270231339274368
Ni 6.397173675038936 7.95432510488541 12.222050731996022 1.9396695354501177 0.2945160104705573 0.4203141746150052
Ni 5.301091398058644 4.690458734411606 4.363782619601424 -1.4345179553737424 0.41355962949999103 -0.9025975918439552
Ni 7.480941659887348 3.643697954350568 3.509764404806952 0.3131595937136736 -1.0276866457365206 -1.0338086994738585
Ni 4.28146800953898 0.7742822542635247 10.627104534051949 -1.1849291444331786 0.7983447579704509 -0.9750276247799078
Ni 8.369574063296701 1.5166245430542418 4.455243807991376 -0.32610535524106415 -1.43830364766842 -0.3034958453716644
Ni 4.549901198473469 5.423747261554317 6.585722029164464 0.7933820146485369 0.3997057543360342 1.4818020851716869
Ni 4.899149226965982 7.241235692747081 0.4292284369120489 0.5259453768932748 -1.8394127101098838 1.8288130802171667
Ni 0.1775950669673288 2.345146659273574 12.480898990562189 1.1542597403737798 0.26166425404785904 0.3180606305597168
Ni 1.0660501078109013 -0.052901831407746576 5.51268126312616 0.5799120609177174 0.49129924757431515 -1.0226565395117808
Ni 8.808073140434601 4.096036825481462 0.8102546909210107 0.09246484009964076 -0.024608028356667297 -0.0945119524366566
Ni 6.197139946057867 8.614885790288048 4.575877922032562 -0.6566769737835981 1.137954318345537 0.4054783951537533
Ni 8.99042575145915 5.741851158677471 6.2199719302382075 -1.291799618435188 -0.5534579804912468 0.7349380115790309
Ni 6.6805218610853965 7.557565964212435 2.539349479032495 -0.7535877654697344 0.2509646082421678 -0.3559548345023289
Ni 1.8600370674394835 3.5720728850402153 10.885468491726062 0.13159677310409595 0.15095846546015937 -1.0849877934508345
Ni 8.069675101034184 0.197577303393866 10.844068576760302 -1.4410483002930923 0.046066198230443244 0.426258308013582
Ni 2.476551184045031 6.5517272310642785 12.703795029965416 -2.5086029858691443 1.3346689069948885 0.5097047466646963
P 4.129625435736702 3.534312119092532 12.573813081628298 0.9403213316469742 0.6388671992956868 1.632096948905918
Ni 4.9384630640855205 1.6712332377010695 0.5189812470129588 0.4867710206866584 1.7156184637693421 -0.8108482897541003
P 1.699822612941576 4.701385371236087 8.735581475789893 -0.9755523869351264 -1.1246282906605922 1.5316583465721816
Ni 5.107885668371595 7.572315545459947 8.47346441594663 0.5153298061609577 -0.5396773817673867 -0.6055595862824925
P 8.035819987441762 9.025898264615162 6.271889537252429 -0.09711622282872306 -0.075747784455276 -0.3469909404408218
P 3.7381871720371276 8.645524484293784 6.432484448238589 0.49894442282439877 -1.3101639798749887 1.2611482120979185
P 3.8822735797503714 2.8049108647645866 4.110449142160885 -0.2004555437490225 -0.8417925447414406 0.9783626026904119
Ni 6.8444122236823715 5.301863338759448 1.545961046615884 -1.409354311623921 0.08662175105530244 2.5416524601249453
