# total energy = -340889.9805206078 ev
CRYSTAL
PRIMVEC
9.07474830737444 0.00000000000000 0.00000000000000
0.00000000000000 9.07474830737444 0.00000000000000
0.00000000000000 0.00000000000000 13.28181143746191
PRIMCOORD
 96 1
Ni 6.249996941050492 2.085721997399775 11.487013307094474 -0.14508375184693725 -0.9997498101169363 -0.21427033814492777
Ni 4.5548430352895615 0.438504542004166 6.068924858527511 -0.45009192009807003 -0.36082964609612694 0.5512424608971668
Ni 2.6717238682048228 1.3258207251198983 4.8922884579155435 0.14703779024951452 0.9258254520236442 0.4818321886241444
Ni 3.3360498914979595 4.24733611474601 4.9792980519916705 1.0251834196986924 0.07406319766400149 -1.2150437044303721
Ni 4.930719109447441 4.360843066353127 2.6660049618326767 -0.3125062764003908 1.0080716997190704 -0.18423522523541822
Ni 7.036087936894339 5.99623067987833 2.439642625545642 0.8644285369734015 -0.21402171246923143 0.38093875814117617
Ni 5.187352991079138 4.694067823549585 11.571777808443736 -0.2617737830425298 -0.8965115335508753 -0.8735024742502117
Ni 5.765350933892701 7.851027557551028 12.438482515769156 -0.7307319439174834 0.7434118533779971 -0.2601961541427648
Ni 1.8653417351852872 6.711166574382922 0.11717224244131154 -0.20577926995478107 0.09635620473424696 1.7969416854298665
Ni 2.9204173450830626 1.401703770318068 0.5313809608495603 -0.25819892120707794 -0.753480807578225 -0.18058528718765673
Ni 0.846904514032201 -0.21065031709831056 4.855511225522022 -0.8284073816837862 0.37003496674447883 0.042256080455733674
Ni 8.593115098938295 2.539441262386392 1.5988381573137531 0.5303872147147124 -1.8665938985103658 -0.8386192892197816
Ni 6.682381472808109 0.7934451718577907 5.010683068951472 1.324156694609655 -0.2692639207719879 -1.1685499317442067
Ni 0.7781977797814975 7.585609319574937 2.481347446260451 0.07961112406542419 -0.2136584155925417 -0.09250366375737616
Ni 7.862951776803646 3.643157523116766 3.608030987437135 -0.20606749061916121 0.44859965182325967 0.9229782123828363
Ni 7.563385261013551 4.299261824459467 12.630073139034684 0.20800327418929337 -1.325516293961343 -0.5726947172336717
Ni 7.998428694020038 9.179833874858225 7.009250276302487 0.14757977879591355 -2.221303033531052 -0.7125750705027986
Ni 6.654875910742137 0.8213209836539804 0.38317761663174305 1.0232594632031022 -0.3196336314737915 -0.4132588104301206
Ni 1.840023187457125 6.519135825825344 9.217736376039666 0.14713317817679822 0.4692674645852563 -0.6966267747036583
Ni 8.94882708239654 4.850380362839046 1.4226283249243752 0.7088441427054566 0.8342584411479246 -0.31694657155993156
Ni 6.522184941250671 2.149698972841906 6.964131535281107 -0.5116117338794222 -0.1925897678477006 0.4970945140998536
Ni 3.3992645880837586 4.565306220067544 0.12570885815739838 0.261070329217602 -0.7811325078572225 1.966899060590032
Ni 6.208452743380411 5.5419941542392035 4.514261668413013 -0.8783484894886036 0.635402637785854 1.3993864017779318
Ni 5.27393516451082 3.135125889616511 9.131272174335749 0.44269459919273435 -0.9011737149132351 -0.00937475634668063
P 0.13926380967766938 5.762800929623305 12.524827838270477 0.25732346058066 -1.8425972784854523 0.39506928400528735
P 4.080006831032898 6.459378608337907 12.588580667429854 -0.27482701668206216 -0.9640672691136623 0.151889461914861
P 2.541464931254987 8.39503149327151 1.4367731350834743 0.26659614413183763 0.28425628041576206 0.6238959226978352
P 6.525615196104164 7.734943377429647 5.757041186883855 0.47448037624476347 -0.44451391178966027 0.6804416803033636
P 4.607086361193157 0.8509291648986669 12.587650505730164 1.844795828798668 0.9495773030276033 -0.6633926952408769
P 4.0989821297065845 6.049753545290767 8.059110628358193 0.9148946640437534 0.33783935584854075 1.2508074922935426
P 4.756130027102596 1.0008539888670334 3.992711382385646 -0.520927097743077 -0.4123825784727543 -0.9243637798764532
P 0.3945682406849292 5.62442916770251 3.5229606670705094 -0.5533481943862599 -0.2900610600229972 -0.8128694339491871
Ni 1.4308518618244686 0.9950733742065175 2.713235396781062 -0.28685129483644795 0.009568617525041585 -0.7736369708111257
Ni 1.9306163996328396 6.364347844248547 5.226193821233727 1.7690346746069534 0.6847377365755563 -2.1697719555312953
Ni 6.05210390509779 5.638767270000178 9.442584136837155 -0.3293387745766973 -0.8099214070644568 -2.0328761388117895
Ni 8.659524106922055 2.341684347658036 10.457566601316366 0.496967501603686 0.6829042829112433 -0.15778037347799923
Ni 2.579324781119465 5.000159083359949 7.05715768747328 -1.1678590763247694 0.28356542499632453 0.719883945459386
Ni 0.12312709226898899 9.087452937269447 9.438280891198197 1.3196757760201658 0.013237838846512683 0.12755757003771578
Ni 1.594796264425537 1.0940335043053024 11.589734920359323 -0.7456867654551028 1.044385703658756 -0.3256746954615488
Ni 4.518280874430506 6.805489508105689 1.9303251002127417 -1.072128163879347 -0.5175183291718441 -0.6860662255789926
Ni 5.651108927674121 8.238392263043622 7.852897863173528 1.3663528683617308 -1.4414324231053885 0.26255436996229625
Ni 5.409040017047336 2.9928973596726083 4.762272724219871 -0.4219907909864797 -0.3407508730683809 -0.3389163909628034
Ni 0.34711184450413174 7.045444002380983 6.713410759634956 -0.2673222236645848 1.9950755230242478 0.3012898388592811
Ni 5.220639167805625 4.315296904687304 6.9064624173751215 -1.3063746880358857 0.5854376187216369 0.5557889426172686
Ni 8.248256514434486 7.003282721827204 8.962978244879443 0.9661390640410265 -0.09413631426479271 -0.4503801407624502
Ni 4.7199127066785485 0.004396715546342168 10.129267617491536 -0.15099420379410128 0.33016101336767656 0.7484512155741174
Ni 8.319520512753217 7.256168732415268 4.420784501230844 -1.4454109481371624 -0.28205284500654004 0.18607407821636984
Ni 7.123314417454589 5.792520730271955 7.091198883257468 0.32275417938064416 1.0819001556644465 -0.8404303742865913
Ni 2.1547808318841177 5.636661928396977 2.2932905299789166 1.3238152521098363 -1.2290451609157864 0.6095705072140986
Ni 2.354824583181469 5.431735962519785 11.520882082661156 -0.4984700542911415 -0.6862683142874697 -0.9649435010710284
Ni 1.3658040660841575 3.219067311295902 3.8171531169234663 -0.8292514748516363 0.3624651248170209 -0.9961235262182586
Ni 3.611967613245191 2.3996901387255676 2.787520378805421 -0.5624031054996765 0.43137608885612155 -0.07238863817505597
Ni 1.2302091771399992 3.3474749995946462 8.24197497366838 -1.0964137758995893 0.1407442439313189 0.6384699638572682
Ni 3.3858430353633455 2.633337682939545 7.420773776691824 0.8694825544575412 0.11404128071883586 -1.0113133465848196
Ni 4.357476334737661 6.997865097098275 6.059348276657429 0.024047013646874716 -0.8460495202455817 -0.24474999479102366
Ni 0.5885137611316265 7.378859329291524 11.245497048638528 0.19355907373950537 0.7775352774242673 -0.3112544062711607
P 0.24125036833105729 5.408059944232052 7.95758506691792 0.4035341269431889 -1.09424402194178 0.6150616122356569
P 8.588241959106746 1.6759517383800013 8.187240629359273 1.2247730159029937 1.3839299580135458 -0.18309622653496854
P 1.6626663068839331 3.3511321231553812 10.618622511536834 1.2072851435308756 -0.4124483987136833 -1.140851437387674
P 3.9348199331465645 6.145410467012115 3.960875350435847 0.14651251387366382 -0.8212599720057276 -0.5137498632683475
P 6.9318735275358385 3.722588794896194 10.376229632396107 0.032642982846001846 2.0061045271449 -0.006977973979729918
P 6.597351081333958 7.832596743774721 9.879277359082703 -1.7068301760537508 1.46825237151171 0.675481765194927
P 2.461216932129489 8.273030577265269 6.1287855281454515 -0.4351597242682699 0.96864126163759 0.4882617462995721
P 6.794953725341389 3.923158881594346 1.550651243895638 0.49027903383991694 0.4049988844141735 -0.096216336722273
Ni 5.394720064246247 2.846322025297957 0.24912724984648557 -1.3034557146168777 1.0903202614073415 0.18852408241875918
Ni 1.5383604048121169 1.019629643078348 7.401595203656448 -0.8115327174156346 -0.26613540244533523 -0.8892985607422039
Ni 6.921927603410367 0.9224935373857854 9.273254778601 -1.283729439832544 0.02026157846251349 0.14423657335529352
Ni 2.9145913566810986 1.7641673665038242 9.618395587776616 -0.10175912091737314 -0.861564070941413 -0.941668846813804
Ni 5.980449692602604 2.0846421023533055 2.4636961533622252 1.443466422816282 -0.29199504382091646 0.6653467336434541
Ni 4.080052204774345 6.60538223357031 10.333687212414164 -0.14644669363273488 1.181213129034172 -0.3442198054535878
Ni 8.06885781549612 7.342015851235489 0.07041460187881819 -0.18042536457102476 0.3480697753272973 1.0176151204331312
Ni 7.809855424560823 3.7490689104054336 8.255894730069897 -0.06830006992797914 0.21643674966862725 0.4849059424534617
Ni 3.07925266439705 8.428707884174454 12.333968639717096 0.7160630290513991 -0.255239838578754 -0.13594656543235942
Ni 0.22256455412781034 5.0094788498534335 10.402009177337385 -1.1820474520100093 -0.9573518047666996 -0.7180389218308473
Ni 8.698681645791956 2.2622712253751867 5.9092900538892055 0.6758329778867587 0.8125439322889684 -0.6418314241303333
Ni 3.468486768037315 2.721916300994954 11.725554863061065 1.0499295162951208 0.4331858883713507 0.4704889956971833
Ni 0.9412782663453898 3.521946110211725 12.63782932639786 -0.07116633573218066 -0.22751357630807914 0.8570037052642402
Ni 3.2480248330882193 8.57733411166257 8.145123815072115 -0.3352803368721129 -0.6418980157022106 0.7327363759420219
Ni 5.509815096804054 7.954888051726232 3.794281121334197 0.7845250784785391 -0.20603740871217419 0.31304697939520926
Ni 3.027390477921621 8.209861254420918 3.821681416320008 0.3443108225054974 0.14221620049115508 -0.7151564580767296
Ni 3.35790188537947 4.34075157363981 9.444337378206718 -0.40974308396737824 0.368299729220927 0.2551722185656122
Ni 7.319374354252777 6.407062684447995 11.194973387535823 0.5187223767822744 -0.9700057460852842 1.8148828432893194
Ni 0.6996576482841143 0.027302287704282863 0.2523968816552515 -0.10381986010114379 -0.5116423300070414 0.7606115050857353
Ni 4.73445045343859 0.12495656152418523 1.7391473779943918 -0.7459073661063412 0.247703935213025 -0.05548826287529154
Ni 5.891136019935732 5.626180594122415 0.31859989285283663 0.0026276674308341845 0.5353054779519362 0.5112551218709518
Ni 7.873487559567946 8.990797793236236 11.535372640730092 -0.3827830104387666 0.10964289454082407 -0.34259383981439057
Ni 0.206210950235007 4.930592062971386 5.530546359271792 -1.3366121467641883 -1.9170803372956917 0.9638070734737401
Ni 8.05483732938859 9.066599165699799 2.2585587458498853 0.2159847497328732 0.5934260362437521 0.39543515198513834
P 8.52549007468372 1.3858411103077353 3.8361719743889435 0.4804954720905919 0.6993151201690988 -0.4531980698272195
P 2.0022343131348674 3.0556673935922136 1.4370517298559669 -1.2040874625291842 1.6744144787272068 0.6509850656051434
P 4.9056455799231 1.197304139841678 8.091744330682653 -0.6227430400403146 0.2267018790400612 1.4983697597223808
P 8.694979148489772 1.6238354589524613 12.54759275182993 -1.043845771994886 0.4635490740442404 1.531193234010305
P 6.532539229049178 7.800762526774579 1.5285769186810303 -1.7974672189160332 0.6055613860547056 -0.6300285179581343
P 1.7487584439079749 3.0892167380191013 5.950424072936594 0.024446305967822414 -0.36508533604868737 0.8411094026314868
P 7.025670125857805 3.990711307862604 5.780310656448211 1.404273297556588 -0.3808053178871055 0.30571316473795734
P 2.1861703862180653 8.539310916328876 10.322212193201883 1.1063284639101396 -0.017632625480098665 -2.13828082690155
