# total energy = -340858.5135612088 ev
CRYSTAL
PRIMVEC
9.30401577371826 0.00000000000000 0.00000000000000
0.00000000000000 9.30401577371826 0.00000000000000
0.00000000000000 0.00000000000000 13.61736754916646
PRIMCOORD
 96 1
Ni 6.5471243425495125 2.378013424574854 5.278309642651779 1.128798619988198 -2.343438147001616 -0.7945282124378381
Ni 1.539861151978799 6.370990017495219 10.443839726137213 1.8308853893651627 -1.542124536210828 -1.715938566112922
Ni 7.833841829847249 4.361759871256269 6.201348965139432 0.5141237016679985 1.1215733058843524 -0.26756416447206177
Ni 3.914878683432979 5.979086259641071 12.737849051929635 -0.007698139975206097 -0.21748190310368995 -0.31633850566228744
Ni 8.710615072455473 5.812990967745808 9.159205408000092 -0.8483079772624551 -0.036724866224859334 -0.03025031424410919
Ni 4.426069229175834 5.774249045526904 2.949086477470761 0.8499223729374266 -0.7109313642517886 0.5403342986250952
Ni 6.138352403863742 4.2803869481711265 4.343844988635592 -0.6719274721847653 2.81250917930535 0.35012845762853895
Ni 1.5973971863211869 2.671024797399048 4.934443449304936 0.46477600447280604 1.0010680147077275 1.5666022096372183
Ni 4.354819075392844 8.181923672799613 4.8520312676434605 0.3383584615768043 0.527649246958259 -0.2891472899594762
Ni 2.460139972948117 4.280991709204803 11.106679218283185 -1.417138069334398 -0.33609151991949854 1.5783904605213979
Ni 4.351404501556548 0.27551051891118816 10.779058767104072 -1.1623695139651078 -1.1982811402600526 0.4045016330627808
Ni 2.7256858908274975 5.233657809531471 1.3940504755546343 1.7864731817983748 -2.1908051220525104 -1.5430169661181103
Ni 4.625528722098231 1.2055306445306482 12.89672256668121 0.43496303487643156 0.8923311769209407 -0.6300552574310117
Ni 7.459569182128744 3.561409815272944 9.412869167170117 -2.106186517470166 1.1049765778679357 0.46194162034780445
Ni 9.391194531723153 3.3836286794038712 7.955538357854757 0.5654879150725874 -1.0415173809720257 -1.088961433386602
Ni 4.064422131037313 0.1657789553545708 1.0964271020474643 0.7155899460697224 -2.3806170700447584 2.632307500709357
Ni 9.115311852175855 8.158003047913732 8.550931177918772 -1.7757910194941802 -1.0345931430483666 -0.8353336764899744
Ni 7.486299619817244 2.127995909237104 7.498880510120895 -1.3373397689588324 -0.8730748997944899 0.03946000576783527
Ni 1.1698125274801268 2.200660273437306 2.922369065404525 -0.37529595803310206 0.713643620976629 -4.46500654624449
Ni 0.3282438202445946 6.042530344081682 4.075909799472394 -0.41955312807926454 0.33651446638953014 0.367044002436955
Ni 0.48984713326202706 0.6036808374301512 4.377506918171614 0.273661021398419 -0.9031354666252962 -0.008667960087643136
Ni 6.128797179531654 2.9172555782643936 2.631338517566019 0.6921047184635887 -3.1005192703365894 0.15001744170312872
Ni 0.6636005606468146 7.980398688346812 5.98758361736502 -0.2603594191935064 0.202220091848613 -0.494134145919949
Ni 2.1448733940846285 2.017371160153826 11.327349076259 0.6568705778516429 -1.2944357705064546 -0.3356487759551251
P 5.307475871703609 3.3864943163019077 9.124222308205885 -0.3117884243977598 -0.2187484285209394 1.7318130712513335
P 8.014879371282271 7.430056843685334 0.9304583447684781 -0.32219419311211606 -3.273168333396305 0.6621822198725434
P 1.2544976802266359 4.956574911932724 8.488018352786204 0.05386692522178465 2.1444566166949586 1.1201080341927354
P 8.411090888499379 3.8247599853992837 12.005030334572982 -1.4465208933718894 1.082325159017007 1.1216183001896747
P 9.02957534563234 2.3865638151894486 5.9828181004196495 0.038616941041249624 0.12158978249005511 -1.1639070336555568
P 7.103132332895744 8.053788765787425 9.472254839873964 0.18545135703070642 -1.5826870310142227 0.07996773607389454
P 2.2256229481042897 2.8162977017040363 8.756375944271385 0.09249877866136974 -1.1679732333051305 1.1870827004410718
P 4.057713935571455 2.905616254370097 4.408636294578916 -0.3008244691870884 0.5093177956389228 0.06085466939352746
Ni 1.1634951006821832 4.844722032750287 5.997388189323301 -0.5970260948901848 -0.1716378481863818 0.5339157966932611
Ni 5.602831856535288 3.6318970397519106 7.1223739681841485 -0.7609058963977025 -0.3179477591309363 -0.8816924662601718
Ni 6.94056326302761 7.522966746489843 12.49035385530311 1.0897515333880652 0.6302275213428179 1.153910070343845
Ni 2.9845050052092157 5.249865405234 7.4887484368028385 1.8505013638238776 -0.49146919749327617 0.3028165599164527
Ni 5.9537049042584655 3.5507753250961414 13.27824118198475 2.5585608058445097 -0.5983057329335567 0.07684461706388056
Ni 6.470794196083641 8.229662578396441 6.555510052082629 1.0865276271341286 -3.024348796521598 0.8804817337815223
Ni 6.367566139643022 6.787688977730104 4.50687181608614 -0.1320405455097339 0.43262615921313885 0.37187947615238537
Ni 1.20440485860642 6.549599210779634 1.8257893774962566 -4.636365943958506 0.66287513217451 2.9778118293023232
Ni 7.903789421403859 1.2093825071143722 2.6236850340844455 0.07354332060478948 0.33596682141617623 2.047810905744751
Ni 6.879854559262396 5.596709814071302 11.038034188952954 1.895784404031393 -2.2213169174881227 1.1076520678175696
Ni 4.022088858679961 5.273367349404257 9.896680785316052 -0.9023111709517879 -0.28848471667481285 0.5043149431076928
Ni 8.480805879658421 3.3999944433767464 3.8304977720064883 -0.4274973226270057 -0.2271507936520217 1.3395059233722157
Ni -0.048025469286632816 1.851154916051828 12.507688167331459 0.9121281570422098 -1.167886072907963 -0.23299208292414708
Ni 8.284584184270166 0.3260852885551648 6.12319895316299 -0.9669263358290122 -0.029068635231182194 -0.150609823871489
Ni 6.285662887651424 8.521641205455435 2.23251257188025 -1.5659031266876644 0.4459213336601482 0.32879961424377563
Ni 7.085082542044477 1.3470633344427445 12.478669872132482 0.6719788942479911 -0.4685997490942704 2.6051178276684426
Ni 5.039241093228344 7.821486096728444 8.724443631291678 0.11826817431598985 1.6307126669638818 -3.1078818813492473
Ni 2.4353168585196743 7.550320553243824 7.663378302485662 -0.3271101423564947 0.5903563961794929 1.532783204205244
Ni 0.5077964407415443 8.305546132098984 13.19362208775115 -1.917667834368046 0.07244545955492039 0.29245552839710276
Ni 3.58507923172945 2.5013381553653375 2.171997391645813 -0.4227780627744654 0.29646902043187007 2.222047110785928
Ni 2.382377008033227 4.7538869254920835 3.7055039007630577 -0.5929221000241403 -1.0905177221301285 -0.07572644429903734
Ni 7.5526744692672105 5.905538013930111 2.7169912879664104 0.3058782295609119 -0.8432812134718252 -1.2403523583984897
Ni 3.7748439400812197 3.418481522975441 0.2532301920289572 -1.324166721911984 0.790655102635677 -1.5103600993150377
Ni 7.863186696004411 0.1136662318818754 0.6102420294447457 0.7096193303085844 0.5829971276009444 -1.3409709379535164
P 2.1311499706281247 9.340580685212384 12.282757070072199 0.5991513687633035 0.2798830910487309 -1.1179390515658747
P 5.893191584827209 5.585368218685892 6.342915149508779 0.38573592241950344 1.7326584499707645 0.007587325428954676
P 6.080034832185525 1.18415001598621 1.2089228887287782 -0.5791394444177509 1.0602972326826898 -0.48229473008285967
P 1.4347257722781228 7.947685768432867 3.637566907043025 -0.817579694940663 -0.07747762266218915 0.7522222525807756
P 4.484991561887726 3.845163692273937 11.85281570400298 -1.869933247296244 1.3098780732034538 -1.1291680875124748
P 6.67861799930258 9.307551428757748 4.581890096309729 -0.02694747512312133 -0.23797230974755793 -0.40518503228305053
P 0.5396152447272383 0.5897964544985302 1.3879907699971965 -0.8518489005361781 0.5601816723683255 0.9012367069406866
P 4.9136647905894035 8.178816131488105 12.954337685158771 -0.8779823643984362 -0.5944683614653374 -0.6566445778837658
Ni 5.35422855161475 7.137566495751691 10.802548616053654 -1.204946725205686 1.3366777098948013 1.8915683090675164
Ni 5.9153072306279615 5.6594933133828205 8.987925918443837 2.5658681381392 -0.6455998900338301 -3.0696842872336036
Ni 5.360229641872001 0.7585247828942615 6.436738706674935 -1.9883430893964207 1.0603270574793608 -1.115060187356183
Ni 8.22907642539457 8.292390253612544 3.2216243633010317 2.427136810872852 -1.4799164381131997 1.352567127431548
Ni 2.333177371939672 7.571505797454305 0.42308988875845865 4.181448063226703 0.8042942906856665 -1.6433822920117505
Ni 0.8165595124890348 0.6196874663891817 7.652566105605118 0.8926129698274174 1.742662612371328 -0.005567209675132348
Ni 4.8639162175575885 0.9763355167831741 3.48743544563364 3.1462401694124718 0.19704908917063482 1.1425468228122257
Ni 1.2425327157757449 8.575120688864239 10.202090689732204 1.9274362266087195 1.7261286192720464 0.5922646689457993
Ni 0.8520757323944677 3.5468304223533904 0.06087059364192075 1.6081676917838303 1.6645992924089978 0.6526022894935922
Ni 8.638964845988667 9.035362443523828 11.340993415580332 -1.0740356653147052 0.11414798150002922 -0.5180888569633335
Ni 2.5587346294691846 6.791038423455081 5.482066660519641 -0.3898954531138317 -0.08195134216282661 -1.4482065086044285
Ni 9.189139218363897 6.189338411010618 11.757834727258528 -2.5291281024056897 -0.12852301927477866 1.4439994125016165
Ni 5.395482558127388 1.0164265213079717 8.605005187943759 -0.3498728899743071 1.5638341599737777 0.5918766894787613
Ni 5.756655151454869 2.289569449403648 11.211206115343822 -2.5367259693576054 3.965412405651236 -2.906447261516407
Ni 8.22177277291094 2.927434171661963 1.1510612138297953 -0.6255236881092453 -0.08497701636302785 -0.19990301367966218
Ni 7.792857639795791 5.101494263633408 0.23948350853269623 0.2487750567900167 0.9874298550990026 -0.6811057962499237
Ni 5.709018590032971 6.651701481296026 0.9844542010598829 -0.2369821779201467 -0.625673069202916 -0.8038065524159705
Ni 0.15627769431471852 3.13007563802309 10.297671775502383 2.9509044633885178 0.6152971252852307 1.313635483363357
Ni 2.244398452195968 1.3233194858590167 0.4345301067124367 -0.3666727351404653 1.2030361384465345 -0.7165111723324112
Ni 2.9043416041914254 2.0986603470958447 6.730152943387717 1.0145393097212851 -0.27707776038945187 0.6148515531073799
Ni 2.8044816015075886 0.4393133012880223 3.2746907484037555 -2.462275306447198 -1.575617525761951 -0.26583792580957444
Ni 4.01828351617575 5.065478418074 5.407388907278092 0.7056143229142493 -1.1790369473184596 -0.5909320661773049
Ni 6.624431410685169 0.5590699419798147 10.453304701515044 2.2042607333367843 -2.2420942592447903 -1.6920411906700343
Ni 3.0293875779239112 0.5362983630579206 8.895341656195923 -0.5727782780864136 0.09956545570016401 -0.9157858083994551
P 4.23385756464165 7.80104517379018 2.602878463321205 -0.49778485529865885 1.1109243108109383 0.010720214630981537
P 5.706283209357573 4.484610097235715 1.5576774120309074 -0.7125131069166116 3.30768924999131 -1.1233458244037426
P 8.553879620558341 1.5688710735634634 9.288570305914618 -0.3498656908854555 -2.1184470800050743 -0.04392832595183402
P 3.2941240464197556 7.4248000747003 9.787428378578426 -0.6231441321334752 0.8610585920599042 0.39189448582173153
P 1.5185177394979714 5.535740597860812 12.956816274995255 1.6606745034332948 0.8059660219611345 0.07933344492400532
P 0.21505023237057713 4.377716258529425 2.309845691260434 0.7802454772665788 0.8877103903194776 -0.5547697573241349
P 8.626543984758543 6.652222506186577 6.899471146391679 -0.5715109813382157 -1.0059502825006932 0.21545561670228053
P 3.256200877600291 9.174317921030873 6.563952516112752 0.2585439632513225 0.703010309632499 0.3178554565274461
