# total energy = -340864.7423045277 ev
CRYSTAL
PRIMVEC
9.36416855923777 0.00000000000000 0.00000000000000

0.00000000000000 9.36416855923777 0.00000000000000

0.00000000000000 0.00000000000000 13.70540723111007

PRIMCOORD
 96 1
Ni 9.008011748307489 7.239850717315836 12.613538761427002 1.3331429572686655 -1.1255070937211198 1.1847643367205403
Ni 4.653074073051945 4.722780943621592 11.273616140180494 -0.0017342090822873358 -0.5801424317609686 1.5281503334189233
Ni 1.0088955178900803 8.887644725967048 4.763670521943653 0.41830434327382804 0.17659107842659907 -0.10293591483429368
Ni 3.699726802907586 4.612218205736609 9.254575924317852 -0.4633421002397569 -2.263707466639192 -1.1647716956486973
Ni 3.6936681858658664 9.07360774889056 9.605489712390662 0.014974619031961308 1.1276555075226902 1.510457287014534
Ni 5.128380539518111 8.077250852667964 3.3578934490625274 -0.9098866693062007 0.8019707847588123 -3.1437598261927793
Ni 0.3561296299464398 2.9405736598284253 3.226622788880698 0.4294367057415636 -0.7837131241002051 -0.6593354944523677
Ni 1.990972057097803 4.357718833310243 4.7594903571099225 -0.49540298533004357 -0.26243892743035446 -1.1425059422719614
Ni 9.443576683513903 5.223717139366254 7.193625435762906 -0.08857887478167326 -0.5025241697558571 -0.1385536640379033
Ni 7.8458341556787525 5.7291481360074 1.3379767470250712 -0.46846862283304475 1.075291134988361 -0.6982434843714749
Ni 6.771726568115511 6.942145071272013 12.530949604204658 -1.026251970172523 1.2528990847152488 0.9411363713491017
Ni 1.099812230190013 0.03556979417770066 9.705388535148737 0.985575061278451 -0.07405779834736277 -0.5451998542475126
Ni 6.482458037921131 0.47218632551052264 9.216803677700874 -0.19744940993284704 0.9758377793860291 0.2425316469834662
Ni 2.8853718863184747 7.977391359417734 0.6430589908409408 -0.5431044051710647 1.6615214248146224 -1.2637334563265912
Ni 1.9624300714051264 5.169011666788624 10.890454028509113 -1.0137890618188217 -0.2841824897550332 0.5559334386149328
Ni 8.69934066090995 5.1802673973669044 9.678895429531375 0.8495709031352787 -1.1137949474905142 -0.17723693954071412
Ni 5.6431757046936 0.6315485548785267 1.7169315377739711 -0.845402373579886 0.47591993690476747 0.2910221383846859
Ni 3.816020411935588 5.605391284657527 3.436288395198337 1.209223498204169 0.06658231590592403 3.002276647212907
Ni 5.794144829804273 4.161988982605412 4.149010245016814 0.5054719395302715 0.12985382227106024 1.5175959549418445
Ni 8.668663644791444 7.488338293543152 6.006614068181094 0.6093869304483829 0.3733496329400086 0.699125372755796
Ni 3.656689084323747 6.703330681140671 10.215256274841455 2.668518403412275 -0.04686735397549993 -1.088629761078796
Ni 6.786493861894169 5.405606748977326 10.968135425002606 0.11176791130362686 1.5287020921573349 -2.771676461559704
Ni 6.217658080106989 3.48904237505341 1.8060849771388876 1.024136723601733 -1.0562354039084907 0.20428520190775784
Ni 5.565734030914586 6.221057273284956 6.3862674259026555 0.5917494198722777 -1.753844082909444 -0.2386341117012729
P 9.654645042277988 6.803068440199956 8.634681077180314 -0.256081617753759 1.9370824914492315 -0.4860392847269565
P 3.3091379691716187 0.17388511834791606 6.179946700585484 -1.7871648085487608 -0.9514971457581355 0.5295505777460299
P 8.423078960809773 1.8481497586120084 9.866741586747143 0.14695011563171467 -0.5170411324251095 -0.00307143983647213
P 3.38519374600755 9.317516246704582 2.25433367862507 2.0925085057624417 -1.0553157203076986 -1.6643951468179916
P 6.819792845202292 9.216130393983255 -0.08546582979609219 0.5357037418316193 -0.3586007567656082 0.7652109515309595
P 2.4495072977189607 4.282084444058357 2.5959141999197017 0.27499233861533284 -5.0180207543301005 -0.1294666141349706
P 7.208490116894322 8.952763153954866 6.632169555197641 -1.3914275519421715 1.0733545800872806 -0.43649129859549984
P 8.676763650573651 3.831677301725009 1.0728069045538224 -0.31949504901339815 -1.803381013297307 0.494925788583309
Ni 7.910737207790282 3.3756516582710545 8.079721120327322 -0.22647947861660994 -0.1274873789214127 0.38106499930639537
Ni 4.269939117469314 7.731301010335208 5.292959547176598 -1.6654881227718543 -0.6756799972486621 1.562624970157025
Ni 3.6203561104104978 2.470885694482865 1.4782651015054726 0.191214998987361 0.3978429900956826 0.85898679713254
Ni 9.127601544659578 0.7665442813033175 6.419461530523194 -0.6543586100630666 -0.2776976533616378 -1.6212759470310143
Ni 3.9682349714613276 0.9414547761057441 13.266752256626583 -1.1222492489054543 -1.1764110796598386 1.0087980363621336
Ni 2.768797352234443 5.923276713892857 1.4823769079089024 0.7781957938264017 0.7801943123136692 -3.481429489232675
Ni 6.664525566734356 3.0986689171937325 10.648799486061305 -0.30327653027200674 -0.7199268828821795 -1.1196562913672976
Ni 6.046097148389296 4.87988359912226 8.690571117077539 0.18717425325908407 -0.19400927390304654 0.12019958701074783
Ni 7.090024020766353 7.887233144769082 1.922155718955772 -1.1471688949652694 0.8808159771924894 -0.6206666171272601
Ni 1.5756337259255677 6.447398590928551 5.401780549714194 0.19105147682630325 1.979197418341411 0.7570901221960381
Ni 1.0665881602301654 2.4182684314883938 0.6207394951393349 -0.2105476378777019 -0.7037687850650782 1.2304106738047456
Ni 8.46164997100273 8.719426802416116 8.384132447458589 1.7293072741103441 1.0292105385802144 -0.051249799313911736
Ni 7.088385291272843 4.665378590506071 12.929722721239642 1.162225532188076 -2.2811961103422584 1.5195168261136411
Ni 5.208434816318206 7.844157969511106 0.3842736384764067 0.0460829104009916 -0.7152634159682392 2.0038201019860975
Ni 2.956061994584228 3.329270931520455 12.391456267632824 -0.4772160300083717 -0.24051153122964386 1.2271168335448221
Ni 0.9162333245753457 5.6224621638956345 2.7658467027292715 -1.8241251878231939 0.46670844560882846 0.860712264464079
Ni 2.3463609813131763 6.0986863188781655 8.138380144860154 -0.5990343835694651 0.5733475203263223 -0.4576710179969086
Ni 4.61019554533319 8.346283414659629 12.064363051477672 -0.9279607531990922 -0.1015241220884316 -2.5669459445844116
Ni 6.825692271378927 7.116327970179321 4.382605047607112 0.8890653616854753 -2.0215370596498863 0.505179347990517
Ni 5.201318048232106 5.032763014613938 0.5700269040247488 -1.5277412709059626 1.7087551609906058 -0.8041760199402473
Ni 3.677215341751026 2.7707170067839835 5.003446612183471 0.47299325017627575 -1.0501850839493527 -0.012745986811758694
Ni 2.6815982148426443 7.590913395668342 3.469085459073019 -0.904120713356701 0.9308419314016291 -0.7657043462276103
Ni 4.243223144640835 1.8105900786207598 11.097460210962998 0.5614294287324976 0.13434708215572347 -1.0949603312825142
Ni 8.211701584484056 7.457155612323792 10.341031104510478 -0.06468869842763697 -0.38375591587499713 0.09022026703983817
P 1.6998587857021576 1.2982764181068718 12.669442847577027 0.29674335713917926 -0.2837199482963178 -0.8294458502506296
P 5.127163197608646 2.1918896571706594 3.4376040608774123 -0.7823468398802979 0.16502291397302546 -0.5778533786164757
P 9.263503722598493 5.02226578168694 11.935395040338438 -1.0626014553358345 0.5842849931744324 -0.6773337308020012
P 9.480003299112497 0.5726985013075967 2.714671521689089 -0.04687121063024186 0.059756294123026125 0.24557274780263516
P 1.3375403767713707 3.8764380273191668 8.981263000889138 0.4413655959686657 1.5159301372036473 -0.5263289854849387
P 5.960873850558244 7.688057280043613 9.945123423047004 -0.41601966100470933 -0.18512611248080374 0.23203897498225845
P 8.925494695182861 5.673543703250473 5.0125748036707485 0.5500237579987173 -0.6311310069936937 -0.3375531920666896
P 1.4212279509627912 2.3488050293006397 5.378535874161395 -0.8650576859169682 -0.8240930705791486 0.5718089721946087
Ni -0.01563816145235227 9.327245617811764 11.63743937099475 0.3089771802012098 1.509249382749362 0.9152096241810109
Ni 5.097918899275894 0.5388929164817662 5.090106373467693 0.9101944303546066 0.5421194155499761 -2.548278192971579
Ni 2.286561401052864 3.8061224857947873 7.040344297441104 -0.48964577113129215 0.09442967713549544 -0.3855281772840715
Ni 9.026337426129198 7.604519532548743 2.894239753920498 1.5339054907351455 0.5275425461770656 0.538062471871783
Ni 3.8763350214652887 7.958232270596468 7.754684275582315 0.5199138259872143 -1.4842867992667534 -1.3387567039110169
Ni 6.897421802351992 1.8701555546677135 12.739477464045375 -0.5777199383624051 0.3227559791528571 0.3298450247891545
Ni 4.564161292818361 3.462560506438289 7.156757767826345 0.559166857950566 -0.32915648336256215 0.2096966027313163
Ni 7.189724323151499 1.8191114719870116 3.44123548543503 0.714799331847627 0.7106287454097052 0.41978529869472864
Ni 0.5727921429929401 -0.15297118434331514 0.4263599575371565 -0.21190415190559636 0.004262631931095885 0.4498224684867672
Ni 8.954795178526819 2.8181090637362916 12.028701488448336 -0.20901448906262712 0.2191202100380613 0.5407585306467074
Ni 2.892451197730438 1.924711200548794 8.585656845652471 -0.37806863568223276 -0.5194967930544537 0.23127818555683394
Ni 6.945431894427568 9.223003693687463 11.449579167526181 -0.2908609302164733 -0.40877429229620565 0.17033686998677117
Ni 6.825327068806088 1.820815750660262 6.188265827911394 0.24183693490928673 -0.056694110257934624 -0.22753414513336942
Ni 8.511514168448105 3.3055234001173623 5.471732761499441 0.512933023794007 0.839435871583806 -0.00041471893991541477
Ni 6.9765022056245165 7.0283047859565 7.897603961420867 -0.03922320716668084 0.14477239125410551 1.1113259171247312
Ni 7.825167435723459 9.204790385888165 4.280047737402137 0.21401245649785078 0.147806550094739 0.6108995104381673
Ni 8.13658222450156 4.687609126606601 3.3595377970571576 -1.3696752478667444 -0.5222219052951007 0.40425429293866505
Ni 1.5569147530254166 8.68730770434332 7.473914664749705 0.03212310578678984 -0.25336319038133137 -0.7407291643395113
Ni 0.5176193984054465 2.1439451142748247 7.874879933638577 0.7451635459617812 0.20019277700593907 1.2662657358301417
Ni 1.3230727363858112 2.504877626262529 10.544693342380752 0.7255056625215375 -1.6649803298975003 0.21147837722208743
Ni 2.3231284791794717 1.1929950712752573 3.43028502675097 -1.6730867610547184 1.470755854659854 1.1261002472204285
Ni 8.054055807208396 1.5320622497352712 1.1614041123077987 0.5723067377666338 0.05209646358492318 0.025386301283588535
Ni 1.1190368681910188 4.602236002078999 13.700376936112683 0.2721772377640409 1.7990337920722048 -0.5155192964639445
Ni 5.054515978119216 0.6750048517958508 7.3227582562683455 0.10598909983832068 0.7390494626442433 1.733851956058233
P 2.2288874870498474 7.831638076180689 11.014131284426442 -1.1571676580491943 2.1237214410301357 0.4436423078179843
P 5.776980308880822 5.88051992036505 2.762050468805449 1.9402747731342844 0.48100943561253284 -1.4009941125846839
P 3.591654933852737 5.6175178829095005 6.090326925627557 -1.8076942959606803 -0.6098836675791433 0.1658531231838047
P 4.889303952667808 2.3653702434378916 9.044554479595908 1.1892084885348229 -0.2932955077998949 0.7686055790348054
P 5.035525444331569 2.7644149213603706 13.2806496191484 -0.18151216987730032 1.8250713537865473 0.39387114993212813
P 6.499257356271742 4.029251893631105 6.570687233851707 0.9623114627648202 0.7538878132086565 -0.7430285018966494
P 3.413510991655402 5.606374522353633 12.925652117177762 -0.037933798931295955 -0.06994069085519568 0.29361355326094596
P 0.780250614787035 6.996241872894911 0.9333397876538827 -0.3006468059586435 -0.013819679491911683 0.2983906629346151
