# total energy = -381160.34519020515 ev
CRYSTAL
PRIMVEC
9.38119412420603 0.00000000000000 0.00000000000000

0.00000000000000 9.38119412420603 0.00000000000000

0.00000000000000 0.00000000000000 13.73032586641847

PRIMCOORD
 96 1
Ni 7.760949455038362 0.7825923606634415 3.2124295633953417 -2.0219654054365566 1.2164832650903759 -2.8435490793302898
Ni 5.821650210706955 3.638815162818873 6.656859813858405 1.148187823148087 0.5284755995142962 0.7237370006568891
Ni 0.3410748948632958 5.080123089892859 1.2838389523366613 1.3314665980075069 -0.5108365462762945 0.062386275546705464
Ni 0.6946718078539972 6.483212031462611 5.164057573251948 -0.566030932060251 0.1073777526557312 -0.16337226574347993
Ni 5.833733188941971 5.537944133235421 8.07253925627382 0.6808885380327951 0.47778398669669975 -0.456150467587324
Ni 6.408837923196151 0.24709878114492104 13.088749207643904 0.6407407621693159 0.6535394565958809 -0.41514574304018825
Ni 2.592727569644703 2.8115157826858743 12.37934423417027 0.09674032754654306 1.936321702023807 -1.6995416128121374
Ni 3.1218925955006918 2.7410817760177877 0.7722777375505537 0.3030639000405684 0.018331708429652302 1.860775492056376
Ni 0.8232851670997973 8.119723849153212 6.979769902233766 -1.148813115436912 0.26775185500283566 0.33456762707580445
Ni 0.42183290583855193 1.6568596280879213 11.715085320058582 0.32212297355454844 -0.08840609664923484 -0.050078404713629884
Ni 7.723846831653668 8.124001673745733 1.79945565741081 1.8696224009240447 -1.3449456063305483 -3.823494967347422
Ni 8.481490844243972 6.213183735254006 8.183329284503545 0.1046842649839681 -0.13777539111098208 0.12828544934267586
Ni 9.366250039353266 0.7188809178177245 8.590639163474375 -0.919804699750861 -0.7865413375776196 -0.31788656687569766
Ni 2.646228520634061 0.8651140361636844 11.244396092519613 0.039976283282621476 -1.680353469919461 -1.4931820448738544
Ni 3.8409142312326434 5.714526353202576 9.25786441121798 0.12428558415466337 2.788489676462301 0.40764017869176244
Ni 2.1765590289135286 7.451351281348938 12.945555596245262 0.2295576033213014 -0.2512654273120382 -0.34476230822061915
Ni 5.696758371232764 8.959697222760983 2.1968796338474315 -0.5803262656370005 1.173904511187901 -0.1459684684447357
Ni 3.711341175811811 7.907727620772096 1.9142683417485893 -0.3020436863061701 0.4829542180437295 -1.1734519970315147
Ni 5.691955199760459 8.951019618050276 5.706501679613887 1.497918274007259 -1.2973583434698883 0.46044318142540697
Ni 3.538980493271487 8.575968851856427 5.884227467163997 -1.0584979746904222 0.5475812099954956 0.7002240051366133
Ni 4.9666106390825435 5.336661228724172 3.758608323200883 0.1666419376336872 -0.16130869834623188 -1.4199084329906837
Ni 4.754886465335601 7.943357396654541 8.222680580157597 0.42194656801210556 0.035564013147538744 -0.1557674568130285
Ni 1.019576338133678 4.531942383227572 6.8308509479649135 0.1459566413701938 0.8084358236578658 0.37813214193031647
Ni 9.103670411404446 6.792810205152035 13.377497677041928 0.5459516448118725 -2.095640880743836 0.4172260226079847
P 6.587887397259429 1.4995651435642388 1.418630766136484 -0.1675662492201695 0.7192540251848709 -0.9990052186414279
Ni 7.782985880406414 5.101165108667036 12.402219338307118 -1.9130971842782276 -0.5972932325086423 0.35681306873756613
P 6.454984017868543 1.897318399920153 11.13880981275803 1.2793511082591902 -1.1320114704985407 0.6033324967241868
Ni 2.5074431324284574 2.610429883254543 6.702829542078298 -0.3260583040532126 -1.4401622981437132 -0.4590864102871964
P 6.903517678872079 6.059913783077236 0.566017171353357 1.6433977186307183 -0.012705106271494246 -0.2297776897519075
P 3.245030151644179 5.332758651902924 11.710252128764576 -0.22355124922622144 0.18850917002042375 -0.9351891526267313
P 1.140152828238222 4.890172668074077 3.6667110821353655 -1.5022516112752902 -0.0364844680792791 -0.39723852374246427
Ni 2.20479642370188 4.225364954096903 9.598980583336116 -1.3107651037940975 0.1650851346695286 0.9025073461229941
Ni 5.465980991899395 1.1654914339934834 4.052738783758402 0.2531276773317576 -0.3036873925571802 0.12784193404735403
Ni 2.703256800673392 4.919554568564814 5.124707215717324 0.28852096922938697 -0.03081595693959209 -0.4464116430330054
Ni 7.552583748844319 2.1272327093795917 5.12841372557808 -2.6777188389646205 0.6536271312136808 1.4917851645263274
Ni 6.0224171495327035 2.7353311039230177 8.763147130764922 0.08151348329445962 0.24492457269567497 0.645249962893579
Ni 5.7048543418979945 6.950836422829702 10.48390019686763 0.9804637081938148 0.5260258524222231 -1.6106938006397935
Ni 3.8797899003366063 2.37968064750402 3.0022729872128955 -0.818977603729454 0.34695468788624767 -0.5647160699035694
Ni 0.12334488053711631 2.4174868604598525 6.979825251280029 1.2308459615699512 -2.292700768547748 -0.5411040869115842
Ni 4.490383692559003 0.6276112786496618 0.5125105916474302 -1.1375776517324085 1.0251857336915378 0.6551921617079555
Ni 2.8480836779965033 7.150196182513174 4.117326430150043 -3.482717097695847 -1.3463797676739133 0.046055913817798104
Ni 9.034728014627174 3.706012657459723 4.779567449371704 1.269426907166943 2.2043746332068297 0.5768406210812452
Ni 7.129088495379024 6.98852068025987 6.109033716336972 0.7936612364518524 -0.26221704122753553 0.807210693001513
Ni 7.306346161334472 1.4815344881545343 7.48462074875007 1.17338720523185 -0.15009431768765116 -2.931421672073558
Ni 6.316489446685676 3.3878682157795397 3.4389384993304715 -0.07310494751579022 -0.21825606226555314 -0.33647564273179476
Ni 7.883486614747811 2.2949684631389666 12.992320849740253 -0.009225375253009918 -1.2173924071682065 -1.2759094295674929
Ni 7.601037617310045 3.814262258277924 0.801024531188409 -0.6973914207838248 1.2658456175735877 0.4549099103120036
Ni 2.8905242009275667 5.043358189502312 0.08365773812777423 -1.5072848028238235 -0.6907186367493394 -0.801467876980465
Ni 7.815895109947124 5.210634264741876 2.6964713828493343 -0.6995061531339823 1.5945691271637892 0.8488713059650929
Ni 5.450511402528633 2.961155212675572 13.563268776808147 -0.14863238843014404 -0.20010433105719086 0.30632637284192404
Ni 7.015472851431609 8.137369875597361 3.8542120741271577 -1.6920581599508988 -2.4517906048657903 2.7854069237719186
Ni 8.842244670352292 8.904348176498102 13.222276436454534 -1.0168350477339971 3.086534526021723 -1.565380164304659
Ni 1.295317781659926 2.89781338888456 2.5051250393214137 2.04838606152193 0.08532900038580789 -0.20144798956927887
Ni 3.5398717067282615 7.54373728263654 10.730991473057124 -1.3006727525551018 0.3146176663164388 0.39355901800834797
Ni 8.554898689499403 6.638208123387242 10.727490411351141 -1.235060256761615 0.9105682687542576 -0.30516577687491964
Ni 0.42029532809575765 7.998537581420349 9.217717590288826 0.25362647134504707 -0.11121126746920847 1.2145968467009405
P 6.705142944588201 5.1246087131773645 5.171073768455338 0.09495289662881712 -1.0567771353445736 -0.2790513391760549
Ni 2.5436170175792485 6.713079434950641 6.978081287263033 0.5568037570350282 -0.2904675514327965 0.37203348523174634
P 2.186099703498164 6.654568926214778 1.3372545344580542 -1.2166218475507693 -1.1346861891172264 -0.22917810849469564
Ni 3.9503083377532295 1.431363861135231 9.178778129063748 -0.3016438797645902 0.5675455689325645 -0.4303746441748007
P 6.900271785650561 8.541324101373574 7.7189423432831195 0.22713022482673142 -0.7459117369817154 -1.712788964740347
P 9.095884020150516 8.50161350597853 3.4192079715168964 2.0539172757528044 -0.6574513900557774 0.6766978969902152
P 0.8012309174626097 8.354347518142136 11.472593643425476 -0.22290127434704837 0.9343129206693652 -0.3848000408687954
Ni 4.929273485840803 9.34480462922497 10.75120231801793 0.5498980310541305 0.4261552067768145 1.3268987761311664
Ni 8.039430207294908 0.00487446854884627 10.98215981628151 0.39272700902535596 0.05693373707256646 0.17473705593699582
Ni 0.06250220690278728 1.2934884487749663 4.399773551348954 2.460729816336949 2.651265015648466 -0.8202400153816455
Ni 8.070406910813558 3.962006687022689 6.986154743061989 -1.6976855334400052 2.146163829194052 0.35273581334439896
Ni 0.8783490250565101 8.379460975234634 1.0370225451396238 1.1190320275197372 -0.45405964649656644 2.7405699699628867
Ni 2.3032802012726807 0.6950357981921328 2.1423702044727757 0.27431125338790824 -0.0368549640448204 0.9323663384659556
Ni 8.239718705212281 2.688396988930951 9.535725066532496 1.06684351844164 0.05091452746168006 0.5992876372308517
Ni 6.7541221599337105 4.63158004769504 10.086709812168625 0.69597448583164 0.7438353140686609 0.5623097744549219
Ni 8.576325337239137 2.9893269391039508 2.677152689464732 -1.9944281192482363 -0.7022268944992552 0.028777586353324627
Ni 8.075894909468436 9.328077959820442 5.572370301891505 0.4666601088693963 -1.3310899313943785 1.9274807066934097
Ni 5.387394727400386 5.619128988550502 12.264585960759325 -0.3792402873928308 -0.741272181327175 0.27241815013025344
Ni 1.413070532285635 9.268948292261978 5.130542318560631 1.3216102740387172 -1.4368491746100804 -0.5190705041503125
Ni 4.714200225735242 6.405516980420377 5.700172187831926 0.3394596650607831 0.47607497442539304 2.0395466088534295
Ni 4.517532868810659 3.1292849765947843 5.145385244153365 -2.221430560247852 1.1700630259546236 -2.391337798896372
Ni 6.5677553543305915 0.5039962197172283 9.258207762928695 -0.7040886302983422 -0.6492858235258495 1.5736357194452317
Ni 1.529303529437685 2.2173390804567057 9.008302128454647 0.6887599703610718 -0.9049979737553316 0.09860334889721083
Ni 7.1369030302158 7.4644755721492375 12.28087077591318 -1.6946048376321525 0.2391424187962591 1.448589860085776
Ni 2.1914751278216613 0.7833287844145662 13.5498133298497 -0.8207686341916057 -0.9071762123535732 -0.4543985178932239
Ni 0.4595940890618314 4.4010371982187175 12.031569290350882 1.47059541782259 -0.8079845950530601 0.13654383269672613
Ni 2.581779715917791 8.949603057713718 8.604108682224245 -0.352723986269857 0.0007067962590374924 -0.0458841641266242
Ni 4.504174048153313 7.992636810217069 13.102603355359332 0.8074017259663966 -0.4614482256511536 -0.5495527318995697
Ni 4.664508039624313 1.3864373217194792 6.523401067766033 -0.08164255267315618 -0.28921233886945674 1.9212984891420974
Ni 3.481877163677901 4.542036548274837 7.196434212889528 1.2910259734939573 0.09934356949734503 1.2975995129464168
Ni 2.971277521305682 4.700513063278032 2.6031876012689597 0.403038418253693 0.5727934475950651 -0.9837981718836863
Ni 4.900473219395542 3.3007263020954882 11.180247486020363 -0.779965741242631 0.35271730140163765 0.5608810124281953
P 9.179864471361586 4.823800718530029 9.93111707628767 -0.14572395653409742 -1.4012090568089675 -1.1116370206072468
Ni 0.05580403418555049 1.2540686704026567 1.1730461097486526 -0.43528030900653425 0.2933505294075464 -0.3089442700807454
P 3.1294819816747035 1.310674796699305 4.8704346353050765 0.12193173921050612 -0.0937341937303676 0.19195187715338555
Ni 4.884159322539415 5.615329604866355 0.842745516518055 0.41772661639348707 0.21213760807264112 1.664110011477405
P 4.6653242035268345 7.676781379941655 3.7930851503060885 4.039297940086792 0.8901269701807702 0.5313927731610912
P 4.3210156109945865 3.730319331843982 9.172407360026947 -1.2515394853635606 -0.4103573205126094 -1.1446497280878416
P 0.7966012980845194 3.0484847502452603 13.736092890345997 -0.11080760427288659 -0.5784617016244361 0.42181904129530584
Ni 1.4349005713794865 6.286488387372338 10.768269524774889 1.123342481969633 -0.31801177959965227 -0.07374540931326655
