# total energy = -340863.9008160195 ev
CRYSTAL
PRIMVEC
9.34643507040593 0.00000000000000 0.00000000000000
0.00000000000000 9.34643507040593 0.00000000000000
0.00000000000000 0.00000000000000 13.67945247767636
PRIMCOORD
 96 1
Ni 5.316626242919501 3.818514171688859 0.31767972720112525 0.2721561547181184 0.6496861442880617 0.447216655432804
Ni 3.782390199343588 5.686614229791401 13.347137642168224 2.21426540995798 1.3089828150826939 -0.29732956865995247
Ni 3.2096219527037726 6.746378486534796 2.491985828558852 0.07376135015286651 -1.0535041210202567 -1.3331126182513622
Ni 7.456576717486349 1.163033020118014 13.534355152556552 -0.7767310363554171 2.4121164262046197 -1.3406228105854783
Ni 3.511324883442542 8.887730926393182 3.5436345755513043 -1.1912784836899741 0.7590369615097637 -0.265017229680492
Ni 8.613310240227722 6.958710803155719 4.794552126578136 0.5259551470852877 -1.819346792597944 -1.332810513629911
Ni 9.127214637493537 0.9617668828649575 6.717049372635841 0.1685262991405936 -1.3601379978002706 0.03480013839832071
Ni 2.0709270500468415 2.668080146324125 9.452132244173104 0.5471474648921868 -1.0159793846019212 1.080017851040069
Ni 7.700397174555192 0.36010787014067425 8.533379525739557 -0.9919033174893239 -0.4825400133244464 0.034714006442417636
Ni 7.782786001521186 4.568939460072248 4.640726625503637 1.7050196052075732 -0.4724564038361993 -1.047966221921163
Ni 7.967667837733812 5.812034044772303 12.678362812363952 -0.49528291481241155 -0.8836873852030136 -0.15480020780375275
Ni 8.946248957661936 0.2434895932600409 1.1849158290318516 1.5265835031524355 -0.8390522629921421 0.3340024986009538
Ni 0.3776258937801933 7.451071667108247 12.494306266386277 -0.24478187647022356 0.07732772734788618 -0.5138413945408893
Ni 4.35853250911837 1.9788085839575817 10.104396596060708 -0.11987485668147742 -1.7604435905038325 0.24799909785594063
Ni 3.832384281639799 5.6975308661948345 6.448274868021166 0.4658489258220106 0.06101150668636589 0.323539651396417
Ni 6.884892657338654 0.8937407229889978 2.6175495786430196 -0.32730503197612015 1.48093716606823 -0.567506488164513
Ni 8.454850776542932 5.633246084360224 9.88206359369349 0.11231992715235493 -0.6815842785482391 -0.021064533979783077
Ni 6.534578916724658 2.922966782760834 9.762464738603047 0.5650788525596268 1.6387422221365775 -2.1613719043930586
Ni 9.429805479583614 1.8868490072680295 2.776532442703319 -1.9461237757158936 -1.6130013657270477 2.4042452509866594
Ni 1.9393946663948372 1.9493579664000271 7.093370504051378 -0.7182651789090404 1.1124397190142001 -1.2595944944575532
Ni 5.929855207873075 5.890488022486715 8.116880872999154 0.31039282960181386 0.20489506757761483 -0.36170459250191256
Ni 6.254896187498297 6.1291118615415945 5.5110545281239665 -0.9546246356435236 0.58401219912902 0.6937965043437148
Ni 9.437376092157914 3.8512173487227797 12.76302562703282 0.5343693392909119 0.021378208565459956 0.32518438608869155
Ni 8.843540980403933 2.486525641070079 8.53254488906933 1.059824921031962 -0.37562943011312083 2.9711387881575217
P 6.855479425522208 6.208210743290114 3.45519767031762 -0.05618348917010324 -0.13074445240612967 -1.4198027606507548
P 0.3595115675700072 8.299615833028673 6.0343894785841865 1.6525529027674248 0.323659721914049 0.25611915585991374
P 7.613082776198266 7.227897485566105 8.538823824288361 -0.22235028693958478 1.4258919042676281 0.24520893670531316
P 8.656752471394816 9.3001797687281 11.801264352029026 -1.458211185225624 -0.1552108129786101 -0.40815105688991
P 2.4333444243444413 7.363878772409921 11.677669895857704 0.11074744045891251 -1.748451194028647 1.2601285125841521
P 0.7867903987588036 4.1184412797250145 10.621246989725805 -0.46415122640461354 0.4915676707443534 -1.4773684748803655
P 5.9632126353763795 6.676598000757359 12.539284116869366 -2.0785157910277747 -1.1228172055937822 0.02711228283575976
P 0.06786727047625232 2.357077512484827 0.8035008903903974 0.9107217636129864 -0.46560801345579816 -1.8700114088323472
Ni 1.5383952072741385 6.463059993985715 9.692849684730014 -0.14598749460812924 -1.1368983662771968 0.22034996868010437
Ni 7.517057500163257 8.145642658276799 6.35255989363735 0.39160395116450625 0.060318080163767086 2.974033078986181
Ni 6.411299435422168 8.58330818298883 4.377055274550157 -2.123389511612014 -1.9906131163775205 -0.6493650135032172
Ni 6.897061716069196 7.681274367978627 10.986215006210474 1.2476820592906834 0.5037202469464873 -1.3831467999906177
Ni 5.926107287327032 5.226844385649469 10.506339110500846 1.2615709014576337 0.1507838875555081 1.4276148004960059
Ni 1.7739160298170829 3.102465072253959 2.0004007187343076 2.5778674765929215 -0.17740560390809448 -1.240249257161722
Ni 6.55586074985019 0.9331509019776314 6.035593299447854 0.9660112802139106 0.9188773028405853 1.785617261555983
Ni 2.0028569619250804 5.010371598200875 12.123729454091933 -0.6835881963521453 1.210982904097437 -2.06091813255067
Ni 9.193321974207146 4.529347960239242 2.1675916222547924 -0.7031370650183503 0.7670279501350403 0.12964376314278317
Ni 2.912536160991799 9.171806480199692 5.897362325632885 0.7089104771670178 -1.355766351095136 0.5794891144476858
Ni 4.537638248329864 4.020453252281853 8.807378687674028 0.41979532599705766 0.5307721088579568 0.6938371277736631
Ni 1.0437911988551507 3.105119459872602 4.4503640396446285 -1.9559248209667153 -0.8231546179252791 2.1693950318078508
Ni 1.638691804230698 5.769470378521239 0.5832614895252066 -0.44887938784720754 -0.23305430362065027 1.5255671460727789
Ni 7.802525672826027 3.5997702004679746 0.6461957114623039 -2.9675127613691603 0.5625943955748762 -0.9714553340476173
Ni 1.6017827313221664 8.322692181727373 0.6156123059491875 0.2243338930285169 -1.053880787633385 1.02938948736024
Ni 5.4812543538870555 8.650191273830423 9.100597859111943 1.8537769492513556 -0.40404706202386537 2.4695638696888116
Ni 5.834699150318818 3.706431719848112 5.681952227875276 -0.9419035885324295 -0.22506794298106397 0.9289305733115292
Ni 7.586996875340399 8.089900518285287 2.3335637506151676 1.0480410410231564 -2.7055356040665726 -0.17975713485940653
Ni 3.684841454358442 5.832586855946236 10.560866213906362 0.4588532112304678 0.22159515394111515 -0.5281899499530774
Ni 4.688629910228403 4.752914692063014 3.5555223065800106 -0.23535595517063337 1.452082960840699 -0.2720198862505702
Ni 5.197776971938267 8.052944713200372 2.1875500001451136 0.610667082712387 0.6723288213882421 -0.8011930260525234
Ni 8.426680620618313 0.10335288129210997 4.409037841424228 2.004777066582728 1.1392977197473089 -0.232497916896548
Ni 1.6956863665493167 4.790150890206238 3.475661690356423 2.939511648170544 4.264014156155392 -1.490950584440174
Ni 5.155633895274664 9.119176703155391 12.169199861714116 -0.42138401064041625 -1.6001584483261087 -1.216999285494846
P 3.5404577222006814 4.570126457352416 1.6059540453862526 0.01891072086157388 0.5784272488420747 -0.24461784008853354
P 7.1678092531708275 3.3581461556892056 11.806147864461213 0.1641407684783883 -0.10494548906515476 0.9630948778980639
P 3.626005644290271 3.6123878880918077 11.316341381269865 0.14792610639173878 0.9875928630394282 -0.38263851444110225
P 1.1524435089492706 0.6987535209549719 8.72415335475075 -2.6314814052636355 0.48183295995509273 0.08090670294839615
P 4.5037761133216065 7.291742984942702 4.73478728084344 -0.3575067523704811 -0.005399059528384249 0.4579499826899081
P 1.4274436741018979 9.104147635230115 2.764494234066654 -0.6630024017809937 0.007746733824954401 -0.16838617401830355
P 5.57823296632031 0.25769710952447716 0.4750204225832709 -0.5253866761763275 0.21184347387098998 1.8051291063366652
P 6.944205135605948 3.8412166629764823 7.671369015872154 -2.1024514759077664 1.4111592260431438 2.3768118373660547
Ni 3.1927235977231128 0.4236823228942402 8.306902313970555 2.4217732325680936 -0.6441826979713293 -0.8461976157876716
Ni 4.802133020231241 2.0008287854699898 12.526849619376963 0.47786883310102224 0.5854062512630692 0.3453775732071149
Ni 2.3785649671864513 6.875742497202556 4.640835978796377 -0.7517532833641568 -0.1939488529787563 1.7386334366072766
Ni 2.876673888834281 3.2966466115671147 13.391418248579656 0.08249513048143857 -0.5503238057376393 1.0981356436867022
Ni 2.2618934156247392 8.717149136154232 10.067940825263106 -0.20324390512743704 0.07008184441875027 0.18933320858361585
Ni 2.2353682323088586 7.325006948093237 7.403251565657445 -0.5822540787873327 0.3340433791412183 0.14600677788183886
Ni 8.758965087583144 5.884739964791413 7.156310333849641 0.057294977066727135 -0.5787540360538743 -0.23582081062219384
Ni 8.411109459446976 3.176694461223206 6.574619045450955 1.4626486521716875 0.580375116597065 -4.34852168908117
Ni 2.805033462436739 0.8165270172358319 0.13156135760136273 2.7773763401579585 0.957176712641416 1.857136609752208
Ni 5.062150849634976 1.0719426619092143 4.2952253644137235 -0.692735410069052 1.4375498002215308 -1.6210350346648017
Ni 5.158512597339954 8.190197115241848 6.8165122675657 -0.9742652926925867 -0.05274078203714142 -1.4492981990067104
Ni 1.4164803055220783 1.0518945582402348 4.891293339555357 -0.30081109945064965 -1.8889792081841015 -1.5752449729138807
Ni 4.324763838462881 1.7253239128124096 6.316309744415841 -0.655127369908291 0.47703451012518494 1.9618018485727824
Ni 7.195885944742676 8.244985918835113 13.449788606171037 0.9857815208623023 -1.0009286609163859 0.3328979526828654
Ni 9.177526498589163 8.064085664050452 9.806991156262264 -0.08425813591913231 1.0862769445759033 0.47891450075671715
Ni 6.917464984278699 1.08161622242082 10.848899983052643 0.02530582575464029 -1.9718746594277528 1.2162744915136796
Ni 9.17575067588655 2.2090112848279624 11.088851950560374 -1.02773781068943 -0.11304266425099242 -1.0238904119188816
Ni 0.7130759983733143 7.019182239397349 2.915939198076123 -0.4898159781605693 0.3619203080571445 -1.3304746664078828
Ni 1.1959137794221957 0.8066478351481342 12.396922018662003 -3.273556312863343 -0.020410445335551947 0.5439317861683665
Ni 6.46283567953907 3.5582907207090324 2.674852573325776 0.38191192068772295 -0.1315911166771411 -0.4863375326936657
Ni 4.613606074260618 1.910336599118913 1.5163806136228966 -0.42748138178740575 -0.2796190387540668 0.8721068794542658
Ni 3.2721028725299393 3.611256969423301 5.088933994564499 0.3045281432909207 0.8116820985093053 0.789155378161699
Ni 6.118223264443991 6.097558296046735 0.9397635049360478 0.45492405137939074 -0.3997039545638213 0.8117222077186214
Ni 1.2196350321550022 4.431612286548557 8.379417566710016 -0.5635644727976294 1.0816859827711114 -1.0961468953914475
P 5.355806499600322 1.114674563995263 8.221131946721375 0.9892082871556641 1.7258475976965182 -1.0481040330506077
P 8.929593609998477 6.41856161563233 0.8865925692892141 -0.45161144206639 0.5084629038377952 0.28539219379241815
P 0.7399853201790759 5.065534259205218 5.330158011913416 -1.2318985712041817 1.1394866958296632 1.0154438238134254
P 6.958458449403242 2.372695405832549 4.439653024817286 1.216397647355105 -0.6468278489036602 -0.9573248081835061
P 3.072304125615359 0.5908143438724804 11.703811875327231 2.8471306260339615 0.18133656353138447 -0.9539036983170992
P 4.102683189848139 7.294602994137437 8.559247654655472 -2.5260476637081526 -2.431507172026406 -0.2436117674215224
P 3.2449327851799517 2.2238253847418705 3.5780528234585383 -0.06949254757418354 -1.5992549626752328 -1.0992869836823262
P 3.316068504072541 3.623183020836643 7.2258833287639295 -1.0261691806507294 0.2767612575902975 -0.015151768039773906
