# total energy = -340861.6335122224 ev
CRYSTAL
PRIMVEC
9.32111809797764 0.00000000000000 0.00000000000000

0.00000000000000 9.32111809797764 0.00000000000000

0.00000000000000 0.00000000000000 13.64239852944653

PRIMCOORD
 96 1
Ni 4.506098681946053 0.31635035088179503 1.260885321928015 -1.3044314482665855 1.4867105782168977 -1.96688723351549
Ni 7.044854266751513 3.409590341221587 1.504156244628643 0.3646899003824816 1.560681987498041 1.0710519000960328
Ni 8.572035536697511 1.8255316101443078 11.47339285916507 0.3723139925866427 -0.8270842919969886 -1.1125777872539613
Ni 1.221495209998371 3.8228980278853375 8.368929310820006 -0.3468955525135381 -1.1477666764502683 2.116789489796993
Ni 8.04316463090796 1.445164753968587 0.31466509277420146 0.9462698359209253 -0.9294797609467799 -1.3986410389714752
Ni 7.685205742047806 7.106112653273111 5.23990834538276 -0.3988562618515454 -0.6421060179479586 0.013743574838337621
Ni 2.977845483447107 8.518206081103745 9.327826260252179 0.22498361079737383 -0.9626637038979164 0.44846338335571156
Ni 3.1405922011383876 3.7550309688068597 7.012001986883075 -0.5240350472444394 0.7909042425320056 0.13518937555136074
Ni 0.43288949104667324 7.395113912266132 8.251372304585717 -0.5338666886228806 0.8111550223612417 0.981303944706923
Ni 0.7893420872619847 7.242173010554876 5.470997499162958 -0.28836670303970985 -0.48031472353835347 -0.9080182486388942
Ni 5.912636723537053 4.80700300843574 8.50194259467604 -1.156149244087009 -1.0545104507975838 0.22614214988184922
Ni 3.188987445024592 1.054451456977441 12.149974587439269 0.7103739490864217 -1.1850124481756044 0.2362671541309931
Ni 8.616459984378876 8.841481090437593 3.107546974130419 0.3623882488324984 -1.372064059813895 1.7873273022685539
Ni 5.6476373430122475 2.111885671667437 0.3329279589811045 -1.5140187791135473 -0.05966399151953596 0.14226196612742595
Ni 5.855460986634515 5.382954880494402 2.9523783252525986 0.05192728499691057 0.9313376400911251 -2.175870869340182
Ni 5.81571574011472 4.804663407854954 12.176822203187621 -1.8617915920257162 1.322974758486412 0.9284238088784397
Ni 4.120073907234329 0.8162633398413637 3.7297362512926084 0.24586893888681524 -0.4852113895090225 0.808797834982975
Ni 7.944808195336458 3.6814687067209726 6.8012673581557115 -0.3703000474804074 -0.36505859657580997 1.1105615281548809
Ni 7.304652463515051 1.1566947986931142 2.328893412709018 -1.2214223542632061 1.3265406214607993 0.5663140105183085
Ni 9.481813923498182 8.858976828645298 1.0496436243895164 1.0782371049905624 0.35888023567924 -0.4579042170536372
Ni 6.856483796085815 5.856765943133758 0.5604228897176721 -0.017694589066285654 -1.5497535135109954 0.26848127696969243
Ni 6.93353215624825 4.835301922233604 4.907961900111443 0.5828595735818155 -0.6162867428920096 0.23892027548312403
Ni 6.81818332283304 1.0867398092158485 6.971947279250602 1.3755404483982696 0.5478136377212758 0.1540687289543669
Ni -0.2707132257679188 1.5442389156146707 7.664258393899605 -0.6714906417576629 0.5346966407233437 -1.0888968986972538
P -0.27243390412334895 3.3575039346660964 9.900356349947467 1.7371180284040146 0.7839491513704112 0.905840267150969
P 1.6056650822575995 6.541914710825486 0.5552282307389006 -0.14551055497171067 0.4287592200585648 0.7493449310329804
P 6.003489659237908 2.0164281037478258 3.9408521137401085 -0.3012841824323263 1.3567066035212183 -0.4157103572944066
P 2.799849416950389 7.39483427873058 4.653694854681125 0.25012000085368535 -0.1859897460326797 -0.3696721840884214
P 4.792778982593993 3.188987445024592 9.381099245110194 -0.21884972998549404 -0.7781777961042727 -0.10702268330915762
P 2.210130253824716 1.518512630343884 6.688908739347337 0.18308079991600082 0.3770592205811119 0.10054273201176878
P 7.954688580259297 8.243885582727204 13.408512851892219 -1.428812677458849 -0.6948899945182098 0.19385012261736292
P 8.389779719342549 8.522875961147463 6.5985144026447875 0.41531595006946537 1.0039767037140905 1.4659201238341075
Ni 0.15089491634280047 3.6839015184802753 3.6793817084339695 0.8183134877828939 -0.11338924895713375 0.4532741744807935
Ni 0.7137804453969008 0.20819742044812214 5.417069239719963 -2.1196490707329754 0.4602166672368977 2.484162850548909
Ni 3.9912560585233616 5.243613489728825 10.09200505776162 -0.7946032886501476 -1.274124055532296 0.8689210255271165
Ni 4.548537731524999 4.157582085469708 4.388022489447424 0.12921464602516455 -1.4559810103435247 0.9707161418887477
Ni 1.6761327332167109 9.136354653677207 3.4062608379249477 1.2054300926000077 -0.6313922310748803 -0.15364115449864507
Ni 3.465507727214141 5.969262514486339 3.052500180545217 -0.41814159244371857 -0.15962513999622188 -0.3794498323004755
Ni 0.8565529396436999 2.4876851800958075 1.3883870287983178 -0.8935627353351967 -0.49661191803648025 0.800122418696164
Ni 4.949569505978015 2.6176868107739457 11.572751314905632 0.15797783420078598 0.23459388019362823 -0.8949634723374651
Ni 7.339308379687799 2.5159374883044143 9.150229137599514 -1.585763098836385 0.2797416803748602 -0.6903342568267272
Ni 2.3782552565164474 7.04763195987133 11.405481058720904 1.0607245500280957 -0.9327201222609486 -1.407078371105551
Ni 4.877619797280478 8.373150845095056 12.423367634589564 -0.1559014112877315 1.1639929085011438 0.9977546340637783
Ni 3.519113475979465 6.322989615841804 6.689809159331814 0.7442271501904408 -1.3288528145337435 -0.9367428702670965
Ni 3.854645755288344 1.4612063977914218 8.287525192285454 0.31505372541259286 -0.07063360315716222 0.19915379421846346
Ni 7.294203490403257 3.225395731353466 12.661346026573977 0.8157760660730209 1.4427287733193088 0.2443926114516049
Ni 1.5332679599031793 4.675183759776513 10.829254213685617 0.1524875005101761 0.22420868030456226 -1.0484079374442719
Ni 5.47636180248663 8.79438148193278 7.848621716000842 -2.467467135060783 0.6299500993117151 -0.4383358080034064
Ni 4.621363625300599 6.8570057786855125 8.53293810786841 -1.2090921148326272 0.12044204203885707 -0.6909721475210423
Ni 1.5899403564417238 0.8820620428685412 8.585924934408379 0.6886905505757172 -0.5923106916923864 0.8848829481730114
Ni 0.6196977423604209 3.5979794541229886 12.675383630058688 -0.391761559788293 0.1671484449564605 0.924797267869446
Ni 1.3295828926070816 5.676085394695741 7.0435977800651 -0.4612160550356896 -1.1088556012073676 0.5901777045097837
Ni 3.8248088570449426 6.681824689780019 0.5109790200731475 0.5630775058588818 -0.5632569688595396 0.23771777053459062
Ni 7.332336183534703 7.740778246679846 8.576320454573953 1.2338577518130815 0.6850886921570717 0.8522967867068743
Ni 0.393701647374412 7.907094952508341 12.23268832303199 -3.1048502936117752 -0.01832399512016844 -2.2209536206114326
Ni 2.4434191914179215 8.23440600587199 7.026107634528105 -0.16827253125857472 1.4916067299669344 -0.46446567232123875
P 2.4065075647250542 3.460819204934719 3.3676536998948494 1.6677383522586116 0.3037161889125866 0.5876775637957492
P 8.480315737036445 6.692320268481071 10.245796045420954 -0.20447134977663498 0.09628987027268579 -0.6861937522957925
P 2.2476850376493536 0.607595202941729 1.5636781068944625 0.8789539842830862 0.4764297866616504 -1.766653061748654
P 4.395923068938554 6.40670257526823 11.981299638794287 -0.06764443862185124 -0.1574553860384127 -0.3793775843016434
P 8.74165191824552 4.5697525957555465 0.6951130426752326 0.17998750570265779 -0.40853209437841254 -0.6880097224586086
P 6.841122593866157 0.48126143213824835 9.255466422369164 -0.2886559521453545 -0.786813874512716 -0.027612876621262123
P 5.450672801687251 5.251200879660137 6.404273491956067 -0.3763729931473647 -0.05796989164656468 -0.018433009894206962
P 5.162128277468964 0.45209658649195694 5.822657176578907 -0.6501021487795579 -0.5682829613192213 -0.1653720697823281
Ni 7.070431414136672 8.053128905891462 11.423775616728502 2.4678831395522787 2.985263143374046 1.1769826358925923
Ni 0.9570923810160762 7.217341552597856 2.638385285075507 0.615545750960927 -2.6555626145825557 -0.657540607335474
Ni 4.418666596496785 8.047172711584205 2.601864213220627 -0.26038590155606767 -1.7434334290990814 1.9013331017637638
Ni 4.972956190668016 7.070319560722451 4.9054377413971935 0.9126832582147313 -0.07651268764575855 -0.19761653163833062
Ni 7.292525689189945 4.547866611039675 10.536570181029376 1.1912373460393937 0.5784509029911585 -1.1474355183630947
Ni 6.399255002104693 9.076429187008408 3.983457079216816 -1.1686568896357163 -0.30372518777365115 1.2119164716552997
Ni 4.8936241566319065 2.553753263428901 6.566018189478286 2.1663595874156365 -0.11323164033334691 -1.2847504248978907
Ni 4.847671045622857 9.58574438754502 10.300965877761799 1.0019560737396356 0.28102903172771604 0.14827269109788013
Ni 2.6267096528544247 2.3780408708058576 10.305262913091449 -0.06458508297023716 0.2564652263454228 -1.7384966539190962
Ni 5.909653965824498 6.7678306441979705 10.266218614634104 -0.5558861303167651 -2.403618158925622 0.4290428127372547
Ni 8.502313575166538 5.476035563361819 2.679026291020854 -0.6680944715919204 0.7036674836005236 -0.16316323505646738
Ni 2.4150084242058356 4.993304190938352 5.024222338852556 -1.3849512001892084 -0.0035951735504260664 -0.8720590569354659
Ni 7.644015722260993 5.775644254470115 7.597574184676511 1.416754203632418 0.8717399830331503 -1.4217398297724677
Ni 3.092821472148249 3.103829712331147 0.4025567093335596 0.12095317734732071 -0.2741842408917407 2.1280154404197997
Ni 2.0441211448853283 1.6874765336422715 4.537707524693069 1.2405102241325925 2.907052499200574 -0.3905413142279468
Ni 8.020775305828092 2.1267714968766565 5.181409941857061 -1.1459165106154072 -0.5619014832729097 -0.5749608875600292
Ni 8.350407317536824 5.976961757831872 12.305756565871734 -0.07197623322798571 -0.9613352148944797 0.30840099598276566
Ni 4.2730334511812895 2.6338775924824085 2.258512448145928 0.9044886382190809 0.8030863864204943 1.5016600004378782
Ni 1.7743493520204348 4.667037102774097 1.822679348081677 -1.1758176690502136 1.4416309122694397 -1.2124661735111828
Ni 0.8319992509986615 3.19198884497285 6.147510251165054 0.07941340623232129 0.12088530022386276 -0.809326196682619
Ni 6.342824954630293 7.930714665144635 1.2290723467000457 0.05119220660309893 1.4582955174093144 0.45640500680029134
Ni 2.1115780747783295 8.41235546677945 13.23712359372881 4.173403852765986 1.4772969982124817 2.818759016869804
Ni 9.086412104227614 0.0718350589479606 9.73915786993136 -2.1367314801365587 -0.3726883452069259 0.11855665209068614
Ni 1.0658605052279637 1.2309468235000296 13.015502831462404 -0.43174349949786933 -0.12917402259521626 -0.1313975126090963
P 1.5613524879904546 0.08018025576061831 10.817616798047727 1.154558245450805 0.2645096939164541 1.207118021825392
P -0.1458279566785977 1.5877778571001213 3.5409798863478485 1.007673435839387 -1.2840801383037435 -1.1181583666655321
P 2.853567019129934 3.2655883915301445 12.150437846996502 -1.097013100046485 1.0881229966457067 -2.790239569273872
P 2.222275670385526 6.230449557809785 9.072644813160602 0.2942221333792223 -0.1100280457943847 -0.04986783136472057
P 6.448200191944149 1.077810178313887 12.36175877403674 0.16239267543903 -0.8403414141172107 -1.2998186320849228
P 7.184624428938268 7.17398903346944 3.1887609418607945 -1.0813342558586474 -0.23424343883274495 -1.2740664628214833
P 4.889699966016326 4.570731313129978 0.926783834209377 0.6243805756437376 -0.24137310789899075 0.48320335794005814
P 9.14942286090534 5.203346260609332 5.288898276587906 -0.19381078473899524 -0.2656013843187361 0.5565235067904479
