# total energy = -340860.9006116939 ev
CRYSTAL
PRIMVEC
9.39802108825917 0.00000000000000 0.00000000000000
0.00000000000000 9.39802108825917 0.00000000000000
0.00000000000000 0.00000000000000 13.75495382919935
PRIMCOORD
 96 1
Ni 2.0167871251371636 8.11627195662256 9.0822588287679 0.32183835243459413 1.9729226410762923 -1.0748455628105102
Ni 8.805137502205346 3.438125034015174 6.906004202702241 0.027860473855693953 0.03387531259120618 -0.49958128507744926
Ni 7.446456199725792 7.468588539319066 1.248894560273746 -1.2662917039720707 -0.6178898257130713 1.2098888997023096
Ni 9.23134715523915 7.106539176053111 4.303525826571188 -1.6388826043691838 -4.248921009267695 0.38498901695114984
Ni 2.119526291351041 0.5167107162250235 11.348428081510715 -0.529272898604611 0.18252544163316306 -0.3002236023782959
Ni 2.3572304379891316 2.513040229121575 4.418050111192694 -0.5085035272677435 1.5321108607285676 1.8468920492060643
Ni 8.420880615177646 0.3555534511101706 1.7791760189075547 0.07512634882119319 0.324055414690571 1.0015434116822495
Ni 3.869005503515161 8.54719941622784 7.221818121765633 0.0282754499059255 0.4057306203738755 0.2770057695009358
Ni 0.6812794629841901 3.770382670525001 8.731479572355557 0.6003232775842178 0.3526067439657024 1.5474143238548577
Ni 1.8331591916709222 1.454212186541397 0.501467126067787 -1.9306166812192298 1.092230333945861 -0.4641689670164264
Ni 3.136984245230754 2.6777123541123875 10.313808401375681 -0.5376996892157256 0.2622314394052387 -0.46110652604101876
Ni 5.570075509205838 4.3468666802876665 9.488854811852166 0.8462153563994845 -0.23101696147564726 1.145232597174505
Ni -0.24430155742130866 6.209037562966843 11.780499280278839 0.46871879117063797 -0.03838399909483712 -0.7361045210833065
Ni 7.9705744361492945 4.097621763789473 10.675315498826548 0.4867550798470584 0.4064063062846614 1.2115452043588104
Ni 3.0025455539858297 4.997886395067004 4.55602621756412 0.2495227335893187 -1.133215518108971 0.3012389310166877
Ni 4.109040359375813 8.643801674690376 11.967538695389395 1.7929047963563316 0.5368136870663465 -0.06327099214450395
Ni 7.026345862359093 8.35391031711324 11.058349703314509 -0.34062000391747144 2.160125690690783 -2.3465921192495647
Ni 2.5628685367748845 7.217191475998427 11.135639028501384 -0.21881604853408124 0.2774834804683028 0.9021257944138592
Ni 3.772779165894973 6.211340078126228 6.74082176516794 -1.4219259776413447 -0.32120097596091135 -0.3591530297246524
Ni 3.9927680428373846 2.931675077182056 0.6719979773866027 -0.27209264847003467 -0.03499348535604941 -0.22770075261822076
Ni 3.815652937964833 7.777116172655637 1.7199196165281418 0.31589627591854624 -0.44925631157065204 0.6290985499446973
Ni 3.8917017243719587 6.96037175452691 4.2093322809060005 2.335490352909449 0.9729512018668535 -0.6537888536025257
Ni 3.200120150703204 9.271627073496806 13.921113791083535 1.0426643500922754 -0.7211800385629902 -0.9072895980029858
Ni 6.498872532417628 6.444072671624258 10.369172143432573 -0.20433225309560937 -2.479772949011329 -1.6606408219818818
P 4.54247709060377 5.82488405417079 10.914968795032216 -0.7335465305481431 0.09148524979519082 1.1254371597151327
P 5.623296502461343 7.177757379636057 6.116896545100879 0.31849771809713534 0.8066409365409721 -0.6339180828205276
P 0.3699888114563576 5.282608841061848 5.802788366859644 0.14443197719555126 -0.32925804193743297 0.006582281203208019
P 2.534289154735331 6.650500204178943 0.0027395231386155594 -0.30371413203005754 -0.052443562511696774 -0.1792431713374655
P 8.359558527769527 3.278396268101246 12.845173831759647 1.158106882034012 1.9730203429964215 0.04117364602483232
P 4.088082772414877 3.9430431134157216 8.16309759654761 -1.952297765737089 0.5968060084595787 -1.9580099856305182
P 8.456198378316298 1.6993501678369314 3.8665591986335768 -0.07545493580520553 -2.399169893346281 0.9748003392604503
P 2.1439423500615837 -0.12898971863508157 2.219843587538088 -1.3864750930329026 -0.4310719273521415 -0.14527607036340143
Ni 4.826504083040269 6.7169066209798265 13.468204360221918 -1.2695127820125296 0.22027694935032383 -0.689933936064515
Ni 6.157376641207084 1.8161393755335884 4.164972681706757 -0.07457381875183286 0.9208277416987367 0.7141748108897507
Ni 4.312977416349939 3.3109322170065183 5.825965766394648 -0.2511299301754385 0.1857112955603124 -0.07265963244825552
Ni 5.877193439383599 9.103017177682391 0.0941653516020114 -1.5482072520697983 -0.2117570848047708 0.5413133747089129
Ni 3.1737680996545663 6.062043115587474 9.132395391511936 0.9935817336330114 -1.2731215824097106 -0.5978501334533768
Ni 6.019263323728201 3.636188327827602 2.4116149062517063 -1.3770851671775703 1.0954688954878167 0.9965485295708192
Ni 1.0628503955933086 4.845215542968172 3.48831140627082 0.1540137073467154 -0.6456819082246752 -0.6183156003965803
Ni 1.742299124075261 7.2272755525944286 2.9301488385621206 0.7558292532057435 -0.11432024541183537 -0.13402569426056274
Ni 2.194146578557242 4.1573273915754925 6.707039638670282 -0.020170047189971715 0.09632766548915668 0.37053144676492317
Ni 6.788895462289587 5.9309595178605115 12.539951482429426 0.4705116214050025 -0.06349339256795516 0.39291084290138784
Ni 6.311109469685552 -0.0014764291083242003 7.53064461217187 -0.372770620508087 0.4911881759177476 -0.24809525711417277
Ni 6.439138710568432 5.8355884001566665 3.423373900161414 -0.08096609543142184 0.8751546651416541 -0.6144576601030708
Ni 2.360801685991443 5.098529802584788 11.912174953332501 0.31849540410429017 -1.1925856325371718 -0.11805631541549991
Ni 6.59938436764059 2.4761154043818823 11.915063905005951 -0.8839077287439357 1.810496541296166 -0.30950168524611216
Ni 0.397092704189693 7.909430911141292 1.0408937989938316 1.2533271733916027 0.4341269121283814 -1.2961648373824193
Ni 7.669339667154287 1.067201679343494 9.668838192751839 -0.9903956225955458 1.1916129842112573 -1.5734025203885031
Ni 7.980837075145412 5.127221960877047 0.7922841887192078 0.7519021502371953 -0.07519165484148986 0.18041225194490218
Ni 3.7053953549039833 5.471471472257794 2.1577950331021305 -0.13680402833664826 -0.9218932068487736 -0.22973012434342371
Ni 0.800674741920429 2.797142405726544 11.03682353607952 -0.35182538571498756 0.08811119111663536 0.9278522526456859
Ni 7.88793763698001 7.887467735927074 6.480632853146873 -0.6019986084041116 -0.09225246697851855 0.45617746417051763
Ni 4.579956398585927 8.179671006684655 9.724642701996384 0.9990535553808602 -0.49586655523002343 -0.5740753996312823
Ni 8.693714564533215 3.823566071696271 4.469575701449208 -1.0338097279151228 -1.106250816594669 0.5198616325930402
Ni 7.49651005988451 1.6406783223673707 0.10155783496679698 0.2468235894906007 0.1443782411394804 1.3032312573108975
Ni 0.4557175595539601 -0.3764114190478838 4.38031987604827 0.950806290338698 5.3671310551067695 -1.410605924642835
P 4.719564001413146 1.250716836557031 6.4386114815870386 0.31105077490078686 -0.6749076378590119 -0.17894852291518212
P 3.5193615280467103 0.6516700578366011 9.599196977102544 -1.2114837549932556 -1.9053717906095122 0.9737870675045874
P 2.68281547954727 3.547922114044147 2.3552333585141545 0.1406012905955514 0.1023594735055334 0.8659100066149346
P 4.6816523844622875 1.4169678290857075 12.950096158265463 0.7823455543287171 -0.3282046609722541 -0.12496049873450094
P 5.446905045210312 8.789536787247878 2.6878142869484014 1.2973046074138173 0.9798237606169705 0.21393198096890254
P 0.6835744597267284 9.188285422748116 12.740457321915013 -0.5647829185857628 -0.34049453408320074 1.4859451608057828
P 2.140201937680215 7.4540873928254685 5.130281016731659 -0.5351982629501104 0.8562156621453062 0.8738770839808111
P 6.024357051142026 4.196902458253743 4.781772322207101 0.5404481984951403 -0.620204589889177 -0.24283555137713014
Ni 7.678361767370655 5.711149203318215 5.425298054994219 -1.1897293940352995 -0.20491152263784707 1.3803311849186937
Ni 8.20801543819774 3.025410939221684 2.3223449838191796 -0.15244867685244068 0.19587486635687557 -2.0818309714439374
Ni 7.8163247165125975 8.570572294600867 12.934676825114428 2.333790853719839 -2.6202459415591326 4.183405444063388
Ni 5.902088797168137 5.237742688527541 7.092920503736927 -0.0939545372712898 0.3301453296383927 0.4436739323868682
Ni 7.298615930451138 9.025671464369163 4.180969053350797 0.7907450912463221 -0.26295391939356005 -0.5992269591962454
Ni 6.001980363001223 1.4135093573361004 1.7526839373451415 -0.8156390262745243 -0.711360224259091 0.962374969012904
Ni 5.027001464306905 8.996048901992092 4.860367972321139 0.8670248369456681 0.0734366198235961 0.6152793846734178
Ni 0.92868800616751 4.889423834028369 0.05527728026315265 -0.24591393319213778 0.18838010064172717 0.44395161152828705
Ni 2.6873923158028648 1.7058629964306211 7.814243994650198 1.7474862590122162 -0.24127643442012642 1.1497888490866197
Ni 5.541467933103107 1.0497495542374593 10.757817906294694 -1.6525061086898896 -1.9311473569117195 -0.24988320225253094
Ni 4.844783233999471 1.9079674392982973 8.659087555942378 2.6952943859545386 1.1809950994860952 -1.3964900540667433
Ni 3.442316551407361 1.4105301846604874 2.7652680775038045 1.662210737572163 -0.36096591456367516 -0.5469741725391161
Ni 1.0805844613311046 6.156690585669798 7.697877697901183 0.36026914560696666 -0.11443003151682228 -0.2689916409472077
Ni 8.03996942364685 5.382923317842576 8.59541596326958 -0.20474131560856998 0.2887323139092447 -0.7784235935664917
Ni 8.274384262914388 0.9315515831841007 11.923481712468243 2.574156860510554 1.3848432138564342 -2.147151389918302
Ni 0.80283252755551 8.396285994066988 6.512172611819922 0.8291833406178623 -0.21056332160698576 1.625725755272252
Ni 0.4624333854025182 0.8054348395866685 8.20879171473719 -0.2017475230875687 0.05037819534223582 0.5472788482637285
Ni 1.0191120055860468 2.1633116714635965 2.5591365826124686 -1.0323727383582801 -0.7721768413258314 0.4041846160429942
Ni 8.502323865672475 1.046723391456553 6.192094810602191 0.17124189829954378 -0.034177674322973396 -1.091202921122611
Ni 6.188446498827197 3.866261281366016 13.834457458307437 -0.46424275767715534 -0.18978032342336348 -0.3205857109744156
Ni 4.532881711102822 3.7480905645737272 11.86107509342995 0.08000090330467513 0.3087498946817521 0.8044508708681888
Ni 2.908715711735614 0.3944537398764057 5.305368028659739 -1.2640502162360618 0.2256659815763791 0.17700374048398548
Ni 9.230896050228333 7.4339662297387585 9.226396277745419 -1.2932620619133275 0.03219483956498972 0.7163324806627018
Ni 6.4133223467201415 3.050014958353401 6.9011905363159665 0.6756396309290299 -1.9683972424021132 -0.20332489487701758
P 1.33837217897167 2.1846545772879393 6.474841792570492 -3.4428405732158835 -0.46995806289437775 -2.1957354694745925
P -0.04537270586937242 -0.06603143576064077 10.234483464827486 1.4653696506472762 0.13838911343558102 -0.09131298588338467
P 1.1818763323019401 5.586625424290235 9.991460978072269 -1.2550127886241418 0.15621328610119548 0.11033683528405513
P 7.005435265503451 7.729872320793474 8.737793162902802 0.5450517587054227 0.04310685849180318 -0.24927153681046105
P 2.062386323314051 3.130311650279066 12.899642882211747 0.35082188415113774 0.4652639998528181 -0.8732661898696896
P 9.282293827398448 6.074909006416855 2.2643958461690343 -1.0141554440193048 0.9717499824699005 -1.1343079798422013
P 7.430526554031269 3.1710238775054216 8.854902843117562 0.49600565191104906 -0.5309651987053694 -0.8861852119242027
P 5.738600822830723 5.737068945398152 1.3528432517978801 1.1247648162384567 -0.7006698344247805 -0.16685276809291266
