# total energy = -340861.7241702131 ev
CRYSTAL
PRIMVEC
9.32332282496430 0.00000000000000 0.00000000000000

0.00000000000000 9.32332282496430 0.00000000000000

0.00000000000000 0.00000000000000 13.64562537024882

PRIMCOORD
 96 1
Ni 5.051031402238371 0.2249121131104146 8.294275149398194 -0.5646456216769501 -1.000076854439052 -0.32036408188191273
Ni 5.110271796155678 0.07837185257615552 11.653514086498651 0.904680699625229 -0.3683786620879785 -0.024234704177648586
Ni 2.2316958405420673 6.885749475609354 9.088928068295761 -1.1533117746382138 0.057132997567566124 -0.9406442622040315
Ni 7.269208424527354 1.9787261193965966 7.08168376871121 -2.723059728993265 0.9780939224100574 0.17804580859525465
Ni 9.277256394548743 1.5848716654081223 7.4250626846718415 3.115040860991532 -0.5161080790878788 1.161685857634522
Ni 1.744766653711842 5.2475670496694145 7.004368248623382 -0.6170763286728405 1.0610814191468823 0.7259165248067112
Ni 3.1304734946217687 2.1070430129256983 8.0038415197104 0.3056427165113381 2.922162358258819 -2.4452445762171564
Ni 2.1375023089483367 2.785193553115066 0.452586726805925 -2.1646750006243622 0.2358611769418261 -0.7334166898384983
Ni 4.4504042922382405 7.899614227976001 4.853012414128661 0.676929296274731 0.27594107568184734 0.7736140879929901
Ni 5.4773589900030455 4.890735511048525 11.992457897739978 0.5001875512028806 -1.2278112885086854 -0.6850889492673878
Ni 6.775958024748444 8.042969641396292 4.759375484914039 0.2861838364557781 0.2963414937150703 0.8990960064485998
Ni 3.620246294946608 9.163614411316438 1.3054740530763118 0.4464275838726054 0.32721915713053323 0.6454229981363335
Ni 2.7747887247216574 7.733864192870256 3.496554701924648 -1.4582063001296177 0.49749971995807224 -1.0615372757373784
Ni 7.196430565711094 1.3735585511280173 4.9166412961506065 0.504761286616492 -0.7080201041422646 -2.03294247327335
Ni 6.727644565308802 7.177550836771443 7.985215385154531 -0.29112343984924055 0.5867828198956218 0.09821614076112117
Ni 5.328996952167647 2.2523749708078196 5.651949399914015 -2.4618299913796635 0.5815436829838694 -0.9210393434889105
Ni 3.7575508717832777 7.704542342245463 7.038945656385597 -0.32078317169720233 -0.6553181457628585 0.8640590694491248
Ni 4.2165287364598845 2.2205451463140062 0.4752666421731337 2.3190178091757225 -0.16775368264062723 -0.03618184923719576
Ni 1.3940978315497718 4.9447548441232625 1.2812996090429176 -1.5984167830446536 -0.9566576069131524 1.85099398718958
Ni 9.014730267396782 2.247601429466041 1.069661110792445 -0.1931898633255447 0.2693654793468587 -0.6594149415400514
Ni 1.7819853588610226 5.758149506781071 13.00050116726716 -0.2984348859089892 1.4935936784899762 -0.6344598142566105
Ni 5.42434657580509 7.773814631638853 2.747082605961182 -0.3822068262203224 -0.9947220178850418 -0.5188666156696224
Ni 3.4581603257535956 7.8040035512964305 12.782757757160052 0.007519191195180598 -0.49530476918928246 -0.37284004029344175
Ni 7.389731020084332 3.296456612800843 10.974016326145444 -1.0131622268681004 -0.14810196984797072 0.8760555796893688
P 1.143384354554126 6.250365017714399 10.827940367093255 -1.6423754480137909 -0.4922492701924103 -0.1991334825034893
P 6.124835797742312 5.4286819209690105 2.3522734437043518 -0.44689321065511417 -0.01830574028772331 0.18984588655397627
P 7.673663496690833 6.230310550085169 6.127540493725222 -1.3482785273585232 0.09323180017265233 0.543032928503181
P 1.9696358795367641 0.6308822252505321 3.4634914018067775 -0.5898452608710294 -2.2611078242328153 -0.863887576868267
P 0.9562000000250428 6.053689520439358 3.134004237016557 -0.5695142626231611 0.9015007592353506 -0.43287067112377703
P 4.0404671061900626 1.5734039782003337 9.748298639100861 0.985865081715044 -0.8061521698300117 1.9600840945507279
P 5.726049305922196 0.7807732880469694 1.584475424183463 -1.6623092108232402 1.571432541146326 0.45234343513640807
P 5.416095435009241 7.243196353543833 13.102256846091977 0.4296699047982923 1.8982531772868598 -1.566900200493611
Ni 9.01458109422985 6.4448029174854815 8.932112573556864 0.08806825369384187 0.336492097792027 0.3101663154133045
Ni 9.098229947586177 4.26254865845797 13.44143280807434 -0.7227293853279811 -0.5841764926210261 0.1515361923405003
Ni 4.735781883899381 3.8837513710065514 9.739347316752733 -0.3063312579379305 -1.3843534187042095 0.5131394833778582
Ni 1.7008538026966513 8.808311897656585 5.790944295198466 0.0996731849226219 -0.13233956480739142 0.7223807437393107
Ni 2.579567665824189 0.07283752808303086 8.276903934109127 -2.1060160533305727 -2.5722046218801893 0.8284901712055796
Ni 8.531716876198484 9.038029251406753 6.161641479685554 -0.6212836818859687 -0.9141086778073483 0.7603363970474776
Ni 8.855786258032245 7.122114358610864 0.41492796081429906 1.3029160400633237 -0.06092254651698541 0.036957293950639576
Ni 7.151156509547662 1.4657662149369841 13.179954622420066 1.4761736832413157 -0.8277178118159293 2.777988776930977
Ni 6.857443867184276 1.3457657254642628 9.152434814787284 -0.18309057010801372 0.40232699400896516 0.457282010088606
Ni 0.37548098148409276 6.843337679586403 5.859022266924119 -0.3195608692543271 -0.7874273397269986 -0.7866308119676323
Ni 7.613192424146347 0.6496556683087461 11.11453931405864 0.6066597613252069 -0.3501868216703001 0.8724542354913556
Ni 4.345805932251102 6.079459185026615 8.856979643367689 0.9916521207104664 -0.1359419374466691 -1.0659683149255383
Ni 1.4110756026110591 2.817209844067542 2.666723953267969 -0.5410423804357134 0.09898490060634565 0.35037605486297074
Ni 4.510222732177405 5.557856560207962 0.33805902789496917 -2.3203023323151006 -1.0067488671425886 1.478473535019086
Ni 0.43178639334204166 4.043208163132412 11.29628537432081 -0.4746048176377697 1.9271410639658035 -0.3582531436182023
Ni 0.761314580753168 4.170285054711404 8.901887292939849 0.31155933910608924 0.13901363439345737 -0.009986164678434415
Ni 3.651125140501239 4.226355518831436 6.093099206477831 -1.1250013577292948 -0.4573596574040768 -1.3523604107373806
Ni 0.09703341575917156 1.3120339430920842 4.6789897945843215 1.627887795920577 -0.2322330932709355 -1.9520565962605607
Ni 5.329593644835369 6.996072355877455 10.777902092910978 1.048923957848742 0.6211846944142593 0.55724727233035
Ni 3.107482180268592 5.675768625343656 2.381626061294824 1.7188809365706978 -0.15579959560254455 1.024460682600055
Ni 5.410454824634679 6.116593980269397 5.987209566264449 0.2482844903068434 -0.5760993720398465 0.8105520986699202
Ni 6.429922894084156 3.3888973596831384 0.8347292225257616 0.505715165889329 0.6946591094543263 -0.3989105121282485
Ni 3.3806368955643573 8.41563218235769 10.580067706595344 -1.8543176522461744 0.5968625727291269 -1.527895794205956
Ni 0.9404995242055988 8.141964684300602 11.961059743097971 1.0246334607324934 0.7189568056594263 0.23465147290444102
P 3.3539721919755157 4.00663276726562 12.73940617018544 -0.07807360437497522 -0.3361120887447889 0.3372498018936579
P 4.025531142851138 3.0645016615467178 2.9099163056534336 -1.002337111228138 1.597493499899436 -1.7495701381244384
P 3.002399007488929 6.270083845718036 5.436144308644712 1.5218686141752693 1.284928602346968 0.5096728649854965
P 7.679546513461657 5.268367383133298 12.189268583197551 0.009443404801086961 -0.8360078197388634 -1.3813452280055047
P 5.546920302407364 2.0497698401472872 12.141249740762596 -0.7596969636912657 2.2843786218352977 -0.623493545053094
P 1.4852333132214255 0.5867316295005459 10.615859943335751 0.8788840502770994 0.2813046539866058 0.2733144366922777
P 5.973415709984837 0.2484712178302204 6.293771612294318 -0.7358389261267456 -1.021735056138776 0.04034446525531761
P 7.819498914011344 7.986171958087472 2.8180536047929934 -0.10843473316533583 0.41056635119962187 -0.7855589190596923
Ni 6.770531850801345 5.237413950995202 9.570100103214758 0.4317126462599339 -0.06995714591542791 -0.2661788540887609
Ni 5.273318067610807 4.62657780238326 4.130449292814885 -1.8646902537297498 0.5356065541321228 -0.8090675437045937
Ni 2.9190018838517995 2.126994924002664 4.364676337867821 0.4711181446407499 2.010768765389789 2.784934612121191
Ni 1.719024959093383 4.855316207225444 4.665371216775852 -0.6833400848970812 -2.004794807194541 -0.6433779426818468
Ni 7.671929358625264 0.9014926057178378 2.5839626802548814 0.438191054895426 -0.3858688484529419 0.22719733061924097
Ni 8.101296349666152 7.322556478350904 11.519391559779072 0.03444712593427616 -0.906662248831632 0.41629116949854117
Ni 2.565312305059385 0.7792582480703307 12.756899521004929 -0.2753453510793774 0.04419649201155614 -0.417676479881842
Ni 8.12721518742034 6.168394362486043 3.943381479822466 0.11105982949300873 -0.6850478116168073 0.446428869424186
Ni 9.060358609831674 2.2268383892938903 9.743359142610872 0.4320983117341268 1.0150175349092843 -0.18365184192812242
Ni 8.237966940543364 4.8473540894405245 1.9516651745830953 0.7389551031582241 -1.097268924811033 0.7057963570180683
Ni 3.072715509050833 5.421120706070217 11.175371199200638 1.792985786105912 -0.024440392430551457 -1.9702780043645938
Ni 3.6230059985348237 0.5554640013796022 5.915597122814835 1.1382173421989366 0.6698417933003302 1.5147862534071912
Ni 6.76916132233017 8.441690869955876 0.9336487465143118 1.4265840452386462 -0.5099785691513733 -1.7579874156538562
Ni 5.40859948337098 3.809006291051396 7.218221968402774 1.1518192492530872 0.5917177953033939 3.9080647209697013
Ni 6.0304837696587175 2.6817979017863047 3.0983350681388675 1.7799785752129669 -0.8864628910656217 0.105347866709896
Ni 6.905403040352459 4.0960900508093046 5.59687653134783 0.8802351649883551 1.3504410822274808 -0.14309628910326322
Ni 8.940898873089075 3.220760553906504 5.797330771407682 1.9879651372317122 1.7239748061538374 1.125693755810629
Ni 2.3190646997487234 2.8797973109178554 10.794317667599396 1.180099584255019 -1.0654538371829652 -0.43579684363163657
Ni 0.1698243272275366 1.7708533112788278 12.00475256369194 0.7130916051279009 0.04564453731199236 1.4294708798681381
Ni 1.0805358346616845 0.32333656865121385 1.5559283416944159 0.03982690218895076 -0.17638667572527686 -0.8233150547625434
Ni 9.236010013892438 0.0660911716085952 9.185403017011236 -0.4953590194659856 -2.055092527007828 0.1675914460311501
Ni 0.4394259241534742 8.360549990468572 3.885864968315499 -1.4561872128170599 -0.45791270169406945 -1.3196593209599337
Ni 4.72065013077886 0.6833137964297524 3.726115423849537 0.372570588682139 -0.27161133795824194 -0.907498114469366
Ni 6.761264467805782 5.9704136000003585 0.3750092213436748 1.37628889652852 -0.14678093704370204 0.08809859271114505
P 3.0646135414219158 4.263872570314478 8.37404736507891 -0.02663302920649607 0.7874072851223407 0.26686533863282424
P 7.0895013749906655 8.307369756457819 9.991176795503478 -1.5686297815902082 -0.49623473720271954 -2.3075905411753874
P 8.135932494362844 3.3261513963429623 3.8360038372689518 0.3107209023651939 -0.24416326904961821 -1.716111858465993
P 0.6344903512256657 7.990488656605526 7.6330221996928875 1.1900440970622408 0.3880288322187382 0.7271195439758767
P 1.5402036252353457 2.0650227964659393 6.099171486704199 1.4966453208321064 0.374028147064272 0.7131029179818106
P 7.988940984998622 3.8169311155445826 8.01250661604448 0.04673905592775176 0.2500348973390468 0.9137806050439683
P 2.134686665422522 7.74307563592822 0.7128901737706207 -1.4246392628074498 -1.0275123249421851 0.5142792534092563
P 8.975889304057231 -0.03560577028174374 13.454996378277501 -0.9317215057931051 0.4711335712597176 -0.1779537631020806
