# total energy = -340893.65416382614 ev
CRYSTAL
PRIMVEC
9.04566086498772 0.00000000000000 0.00000000000000
0.00000000000000 9.04566086498772 0.00000000000000
0.00000000000000 0.00000000000000 13.23923902532485
PRIMCOORD
 96 1
Ni 6.509899901886699 1.9662101045805689 11.455145587139606 -0.65478541318784 -0.5204308748329489 1.6728129385680415
Ni 4.471134550376585 0.368054377844761 6.014493471869929 0.6954795484730925 -0.894073356423028 0.2549603596651222
Ni 2.793408666601038 1.4206572436445455 4.6676660087906825 -0.39836852358184943 1.538143697186209 0.8604854931652536
Ni 3.558083619747673 4.383210725397757 4.814303410227596 -1.1082531917366785 0.41535785905099426 0.1652265453433993
Ni 5.278586434420842 4.599700530255607 2.764697738567828 -1.2767645784789368 -0.2976794958002035 -0.8558911889263517
Ni 7.110332788146443 6.028625508059685 2.5219691848297208 1.977594078410033 0.41499044840924665 -0.020389876510261657
Ni 5.296768213043007 4.559094557999439 11.466902232749174 -0.8802570193652259 -0.5144039519125787 0.26500283150278875
Ni 5.45104196150123 7.859033103956389 12.543636208414805 0.14000942264782337 1.0791529319366124 -0.8371686728161841
Ni 2.0269607638972165 6.549827449567415 0.27050506498939186 -0.35783482513386117 -0.06285678742522077 -0.2020599121216649
Ni 2.7276648024090493 1.672488446053043 0.6632233421332552 0.7661265213666935 0.1007345363076007 -0.7714867572373423
Ni 0.4575982807097738 0.024616861861870863 4.796536827445608 0.46242061686675195 -0.027568396536571872 -0.2637751297432747
Ni 8.689569514888092 2.2141335814344516 1.3039772623274763 0.4996789869975781 1.6329888645925683 0.3860876493319674
Ni 7.015832767616214 0.6108516786065139 4.819096705994703 -1.6770940824418985 0.0855413735069301 -0.7257512028734404
Ni 0.9658956822262698 7.7715525163668575 2.5361355945312996 -1.0045991677894377 -1.0723263959330822 0.293261826348482
Ni 7.456654965424163 3.857992510403339 3.7251515511328566 1.402853791501242 -0.12984225230683447 -0.002873722003369244
Ni 7.641503048082843 3.8665768426980827 12.522877320972015 0.7099165498340291 -0.11684018362021167 0.3914131753099388
Ni 7.769037822607174 8.817882216258944 6.810608428975301 0.4502968370200245 -0.21569318663438336 1.060677498840244
Ni 7.150206061861121 0.6860835366277507 0.5469115192191323 -1.092498242895267 -0.9444422957938832 -1.043475533139661
Ni 1.8905069676209165 6.13113093858027 9.255419934555597 -0.06494118075807526 1.1244472849980376 -0.35043981822137066
Ni 0.09683380106979039 4.761988734365192 1.3362892680071958 -0.6007943036833653 0.2378879775638677 1.2665195037121608
Ni 6.36574824809425 1.843722808897614 7.028076974354006 0.37396978302251077 -0.04577103558752762 -0.42862320870133286
Ni 3.4795853735371507 4.371659416293028 0.7008958065251615 -0.3720257719222625 0.3638419505598895 -0.07578660811301141
Ni 5.822854811494006 5.4889975550826255 4.8772693519246255 0.6638104995045858 1.0544708558089002 0.9435444665699622
Ni 5.192553152592279 2.5301256573588784 9.715536527289455 -0.7231939836692255 1.5735264475608772 -0.8636219819117062
P 0.32143665928396964 5.426383489598731 12.55481031345558 -0.03046063048270238 1.231021567915867 -1.2476949148064898
P 4.049018779529153 6.19327462969185 12.59889705606688 -0.9488923611454367 -0.9921681411149363 -0.30774562178695386
P 2.478384476404259 8.534382154668258 1.2861545964472514 0.6610833303814099 0.519553357324002 -0.4697498035383136
P 6.0977343581459245 7.497224755036307 5.873111599477531 0.43465295983518043 0.9570910949061452 -0.3888814100270206
P 4.519637384691038 1.0783784768365308 12.48233828660729 0.9287505960902392 0.5549422783462572 -0.1921297974921465
P 4.05420194328562 5.855572967352897 8.382384294519158 -0.1463693034275802 1.2923704033369936 -1.120730755378399
P 4.920821495970466 0.9398441785288391 3.7442026177777037 -0.9805166729189372 -0.5106791947628238 0.506066892801793
P 0.2402048143174183 5.8225743960028185 3.528746731972844 -1.2785239843722047 -0.5320098379197999 -0.8999979494375789
Ni 1.439562675147195 1.1519377921377483 2.638235779438814 -0.44065391461362174 0.7968406626210986 0.44154608741058793
Ni 1.8778339965514375 6.57101238764359 4.696831933572496 0.6468743858708794 0.07233181679519156 0.7571513144512767
Ni 6.030326092328822 5.804953448363028 9.45701334486868 -0.03613042717397003 -0.1087833747540062 -1.0962901058375314
Ni 8.546629979670453 2.3708044300592785 10.180829047250976 0.8005877883683566 0.9001995239254238 -1.04732884544748
Ni 2.1620848480056263 5.400087753054137 6.908910340826373 0.16613003099427517 -0.7906283631627997 0.03292811818658845
Ni 0.5454605951937614 9.19599989197294 8.946415631758345 -0.34537114544921166 -1.081635332038834 0.7658773814703649
Ni 1.164963543986464 0.9084828718208555 11.215634575021353 0.8596573408370034 1.1237525729238582 -0.4013306915339669
Ni 4.022587358069467 6.920618139866507 1.5933027296060607 0.9975779992765981 0.35679224280195976 -0.24692206274167797
Ni 5.839833517202367 8.048422108440107 8.15102885036396 -1.6812322729799885 -0.34430028098253607 -1.2180801772638505
Ni 5.352941767890592 2.9701789739813127 4.5893559123290855 -0.5775569304219795 -1.8682951974721889 0.13360866132780216
Ni 0.6326589581599049 7.404090629317993 7.036602509852211 0.2633755803120109 0.30676937391661363 -0.44869581108149176
Ni 5.268536705043118 4.055088418064213 7.616282840631868 -0.35458469362767964 0.9940206209426429 -0.1847759282302366
Ni 8.089986920762918 7.313923480409663 9.120326605694606 0.6112527800125279 -0.20112608745348587 0.595705319196232
Ni 4.777239718821396 0.18179969489964012 10.264116970964203 -1.9391763978637828 0.5773185891589284 1.1761760808308968
Ni 8.160470711322079 7.133842461101173 4.818831668127225 -1.1552025639030232 0.09744583825399993 0.033658568594709774
Ni 7.230323481391727 6.111483762875124 7.13401704235859 -0.3909241514886623 -0.4291783098738544 -0.5697034958158318
Ni 2.2357346199169044 5.568309910783692 2.5258081633606895 -0.01447479657740733 -0.9827154803424689 0.0753693180699347
Ni 2.453156127858379 5.161119480596247 11.408173278667379 -0.5619192238847226 -0.33433211402623064 0.2585622180837676
Ni 1.0212008536172739 3.68333888769848 3.8521019759561974 -0.1422676225543808 -0.16844762338385827 -0.43449663676297434
Ni 3.912293613422671 2.6601479886598747 2.6418504255768323 -0.8835778562083428 -0.2380862096176029 -0.3119408908152241
Ni 1.1601060240262138 3.350132918879536 7.978097521514655 -0.912762448192099 0.07607714277023672 0.3421341265691527
Ni 3.506930406758447 2.547728513676656 7.031849919559631 0.3619326493523186 0.6050201688392548 -0.7444770614177179
Ni 3.9546725352360266 6.821441512596149 6.217345133628955 0.6275160359489257 0.17259404145206406 -0.12193790985809323
Ni 0.7442172862153473 7.320246397452893 11.281407385328562 -0.8020417472060639 -0.6710057317014444 0.5983635827546857
P 0.11545881708125218 5.5371204716348235 7.984664671405048 0.3349134404509974 -0.4116770677652974 0.27120896031350067
P 8.574074515162815 1.588526620594865 7.849597574960977 -1.089691112463775 1.335000322192378 -0.6000417417880569
P 1.6964323107360637 3.058790269196602 10.290503164118858 -0.397119995886729 0.5710921486332423 1.1281257622908893
P 4.045056780008502 6.280746171620376 3.7258525898608252 -0.9809527320150911 -0.37130586303710245 0.3860074309133352
P 6.988976200089245 3.9945729459337236 10.23181401094549 -0.563475512628249 -0.41304000955109516 0.31754461015524665
P 6.2948302658068 7.8130630547236315 10.295177057160686 1.5199899090953177 -0.8815037472881335 1.3672663813149357
P 2.28954725724191 8.378380684957879 5.769964831591618 1.0537542893578498 0.8765538594820259 0.5981692073556925
P 6.956891240500777 3.8713258147262604 1.4581433674197273 0.17042737281804843 0.22416934242619457 0.20200951849970372
Ni 5.264031965862104 2.926814075118298 0.4031352603584332 0.43235799315341666 -0.8679843726454599 -0.4803106097732954
Ni 1.5678030112299992 1.0395906824425782 6.9886369878015175 -0.17889735796227255 -0.07229864956441097 -0.9548768608636458
Ni 6.882165034929778 0.7888693826395236 9.32842113257274 1.3364825631648594 -0.0992381542677323 -0.6285053964453885
Ni 2.7532097490901415 1.5855234611408555 9.095582200012549 -0.0886925175414021 -0.8324797519809469 0.8320933151758056
Ni 6.407973393670502 1.8803939186161502 2.4778164088930787 0.7714407344907552 0.6046010790239652 0.37301230420524795
Ni 3.988376668144577 6.915290245533942 10.479042781034108 0.13476540064006468 -0.05488405363238935 -0.42811413027539824
Ni 8.686439716179999 7.390241722317726 0.4398805444972191 -1.483578460345819 -1.3868975252823017 0.07211430146774676
Ni 7.597152172170168 3.7873911262511 8.029346618510544 1.4032186310398287 -0.2067596315901794 0.41827708958031834
Ni 2.941838918049351 8.587715371959943 12.191009205415865 0.47228388281407696 -0.27943597620898325 0.3782568404336389
Ni -0.03591579702453085 4.97200184594271 10.213702788479171 0.14088385483297672 -0.6918902884599374 0.15727386615522593
Ni 8.901147525819656 2.3008543334994753 5.579941726271375 -0.6194710541572621 0.4778230674647513 0.4997100973458297
Ni 3.4712181371065522 2.8581122797773304 11.71323186413379 0.23207445620588416 -0.48215897583594375 -0.4639542799024591
Ni 1.3565868267386767 3.422742439775118 12.765221434117363 -1.0976548473955416 -0.454424743145469 0.006896212899201027
Ni 2.9529831724088074 8.277431108130335 8.100998203905585 0.7684821660830636 -0.2929553508516568 -0.3416006226631859
Ni 5.69189173144838 7.758092572789851 3.5026653775940937 -0.6773460720971755 0.7400010279242352 0.5667346429954949
Ni 3.0577500181809056 8.56405192276811 3.39348153555274 1.68061520822128 -1.142101250634375 0.5359279420272834
Ni 3.2806441510310416 4.09567629899837 9.204157269068196 0.364340744573179 -0.86459334468604 0.2897255310604494
Ni 7.299450422799979 6.119516309848498 11.654184502784581 0.3423539558894426 0.8803704050146387 -0.3531345914447144
Ni 0.770766301268111 9.350137955516072 0.2153192963236677 -0.3386945047599844 -0.012332039202791665 0.2886636654548383
Ni 4.756461835490494 0.35314984220508855 1.445195408255664 -0.3539102932684744 -0.36123536617497787 -0.24017625937741216
Ni 5.8304622124000955 5.575356480707408 0.4579456340924062 0.5002993941903965 0.027764057487145735 -0.22720890058346674
Ni 7.884668507247542 8.830799420175587 11.666681988030543 -0.3311940826178812 -0.8744923489673069 -1.1093037444883798
Ni -0.09698667274079267 4.960504810804017 5.631681098093793 -0.24841175991332703 -0.7568240130188449 0.7361785688543515
Ni 7.824198263422082 8.61782837744909 2.602066703906113 0.11394383590902313 -0.15296212615374946 0.24205033647167346
P 8.428285596728271 1.5058764159825648 3.449748260708687 0.5565926694654865 0.8015367825451872 0.3544869917075508
P 1.7999779922723447 3.3537240462989386 1.9040537495435808 1.0951750183964817 -0.5289936768012954 -1.5790275798847646
P 4.713494945711746 1.0511962655133433 8.223765010513628 -0.08888817849197594 -0.5766243913053811 -0.7068528233070407
P 8.538552204392047 1.7644918641456013 12.309208857781952 -0.4013175789078443 0.11975555749479377 0.9205834868984144
P 6.339633424769777 7.695442324661933 1.2331198859687664 0.9030038261434383 -0.20226225794045813 0.7296448815008919
P 1.8562872320350208 3.400453931056205 5.855000377011214 -0.04269882442010711 -0.3722905955478749 -0.037355043609690504
P 6.737543006765013 3.738734515699545 5.892454840972875 1.515753502416467 0.9199296553644994 1.2776888900654189
P 2.1472861465997246 8.319927623536769 10.102121846271215 1.4713441230631565 -0.09485725159121729 -0.18207447013867353
