# total energy = -340868.2671616135 ev
CRYSTAL
PRIMVEC
9.30974327734674 0.00000000000000 0.00000000000000
0.00000000000000 9.30974327734674 0.00000000000000
0.00000000000000 0.00000000000000 13.62575032966658
PRIMCOORD
 96 1
Ni 7.034674696161023 6.484068554814388 12.141864817624503 -0.13264629741453282 -1.13156255588658 1.1452678212878147
Ni 4.785980707131906 3.2425928619984523 6.39813497032087 -0.9903069195364815 -1.037982885456206 -0.695780367542963
Ni 5.146407414641418 2.264455384245792 1.8833238078869683 0.301219647742978 -0.2670471156263272 -0.7828006395882647
Ni 1.476683535194009 4.833553494820751 0.8633427584031377 0.04991976764857855 -0.5445105414899719 -0.5371196483425396
Ni 2.4689904420782587 6.822757011980757 5.742231909624743 0.30015186860009596 -0.7306800076336255 -0.6181315094102322
Ni 1.2912986190985192 3.612245525006915 4.512194193623856 0.2701416953912509 -0.15129656552586845 0.22631518512460377
Ni 0.252020333935347 1.4483167477012677 5.657397805801685 0.6390266076916866 -0.17312625980645022 -0.9176377740065293
Ni 8.241068457388259 5.239048669101631 2.971735193697233 0.41827143315336346 -0.81611416613873 0.1892607034744676
Ni 2.5175128235722424 4.537233678901335 6.570881910039137 0.2799067451978147 -0.007278278828968111 0.5024686339275732
Ni 3.205726278975395 6.654697527957467 0.6725777417195105 0.7767359214514236 -0.7925620898504028 0.3898681994203221
Ni 3.8145648639607233 1.226577284458041 8.463716551566598 0.48075386795830105 -0.299538146275497 0.20498788440173732
Ni 8.474566126277477 1.3314608512100012 7.8924157820881575 -0.7379562295800646 -0.5796379813207243 0.14546658910765267
Ni 7.453520042172979 0.16082767551513108 5.846837115055393 -0.4121771473301675 0.3982175998262819 -0.586879493374486
Ni 0.2123924810828355 0.3995211120773704 10.579455305210061 1.0467601174282037 -0.7682487099160188 -0.5057277642948194
Ni 7.999890250369239 5.444961568925868 5.485059563809355 0.26982185015798693 -0.8233420513457369 -1.0260732785028137
Ni 1.4567141360565197 7.628701479734815 13.176699562364215 -1.0096578132592677 0.7235613943109732 0.5207954572612192
Ni 8.235128841234545 8.38545326448538 13.607137400593421 1.4494717484700972 -1.3968111848515878 1.480982674594185
Ni 3.2833974663898817 6.110105480710048 11.907937969574336 -1.2847046592616198 0.5666950480068111 -0.04387947499176959
Ni 3.7346872674107656 0.9002465803989456 4.143045187721844 -0.05140252284169212 0.9764587007994795 -0.17993454097753525
Ni 6.4905015873570475 4.5003670958782775 7.165332286927967 1.09554371458981 1.211538519490591 0.34595941385251383
Ni 0.414592655323842 6.407356270948228 6.577163193767839 2.1173723588836566 1.807859617893951 -0.4832524660104387
Ni 8.37712104433244 5.79291322056394 10.063460927086437 -0.49153218952072764 -1.4087223344668771 0.4245382399986818
Ni 1.6712292385861371 1.8673575983201645 7.863924244036702 -0.5050893593798721 0.5054050908480779 -0.12783293518628952
Ni 5.318004601076011 7.138729695769284 8.226751003339986 0.31905796147597953 0.16052888275741387 -0.6306370980764106
P 3.606920351903584 8.143977145684353 7.012547298552639 1.711065554291337 0.0635566417057228 0.9891365533774642
P 6.145864204293775 4.592012207817413 4.676316587253093 -0.9214926289762453 0.5006873736574345 0.08416300510216473
P 6.665087201354874 3.933422355237332 10.905450858514403 2.4495763708232907 -1.0057985874141775 0.10025836800213056
P 0.7728846387204267 6.186194011782635 4.360539408071507 -0.6619302517627375 -0.24846523885908176 -1.3000142930354965
P 0.6418369697139208 0.37962339796242583 0.4492100043927652 0.3681930284397336 -0.8134073087305282 0.4101223216836678
P 1.9093631595827993 4.810642216835967 10.55518759764284 0.6159568703564166 1.1745048637760611 0.48559242699752503
P 5.757294143128027 0.8022149846330886 0.22137079741299623 -0.5098736681423929 -0.5260029696040875 0.04039485887727882
P 3.2593783289657687 1.662478079989755 10.719949570629067 -1.672470210516642 -1.873716111377444 -1.7568162781638905
Ni 6.11179054422701 1.9445819180616442 4.260976359551283 -0.6340114138652823 -0.8371617308376486 -1.0216520095066661
Ni 1.1072636157652374 7.196105643034714 10.824173076589025 1.6126946331199066 -0.5646204248659695 0.1644783543234651
Ni 7.681627369756552 7.528146943565107 7.257469884281728 -1.0021355367402935 -0.9960188823195943 -0.2542422505521751
Ni 5.99238377810233 6.672209154893419 5.770791408801468 -0.8649283594279555 0.26092351922709256 -0.20709721743525625
Ni 1.0874617920051255 5.005867531480793 8.681728393637494 0.838632401845904 -0.5256844099224043 -0.5856422785332752
Ni 4.004157783977027 3.2276600339254764 3.928194934437472 0.22301131756235143 0.3081402861222113 1.174920354046925
Ni 7.098893304669368 8.633073813790247 9.518036588798042 -0.6359006604681952 -1.2954917225747946 -0.9379332910307717
Ni 5.827284792412709 4.012750676939219 13.222700865402986 -0.6136585612405432 -0.7198194107700377 -0.12373382541625143
Ni 5.711024719485453 6.815821253305965 3.0298903664674683 0.8820531920337004 1.1757449068307493 -0.20076741856248648
Ni 5.502244418759421 2.8725305702897335 8.779112031277492 0.32201010212576797 1.2713714324878234 1.1480551542249646
Ni 9.234883542668907 7.7917895608959045 8.935017645569317 0.8818960976305457 0.06460333780268228 -1.2087743264818924
Ni 2.1581753560156853 8.877017014535996 8.696826004164892 -0.6001204175447923 0.49783344914840716 -0.07101901152103897
Ni 1.8416440876359006 0.6359411093531878 12.184663569006727 0.9196175234407195 -0.34349218325894393 -0.1860807630845892
Ni 1.5436205887131458 2.34208002294434 0.26497297963231153 -1.597830057303248 0.41702933321614627 -1.7618147598197464
Ni 4.900928106269706 2.604037576758175 11.407532756418417 1.4637220877415245 1.3778793809440915 0.3355873265895704
Ni 0.7226138874558042 5.168862515210007 12.227803056989615 -0.3195048192054111 0.5099294610809928 0.9883248561094461
Ni 2.5668544624667375 2.22464692237544 2.2090065538202035 1.0661300373143832 0.4371543861007955 1.6440746900930845
Ni 1.1821791191961823 6.919522482673095 2.0763734355488426 0.7843893242316233 -0.2655479053729814 0.4990256696842954
Ni 2.3104548253359245 0.026819508174955403 5.85351313189525 -1.2837073283453568 0.8032221406674103 0.526307388218384
Ni 7.963154003750808 3.4025249402189326 8.896511616770917 0.2862902801266553 1.3941755470009538 0.49137149557314724
Ni 8.88785355560641 3.1302242617236287 11.73478233213013 0.8416220806018474 -0.8899554775999126 -2.7657863213275142
Ni 8.378024089421642 7.482119573245412 2.6228339482540215 -1.6205820062877832 0.6254380703739745 -1.068350699114786
Ni 3.1768381458641457 3.5447312674101443 9.159938248059762 -0.4303245076631556 0.4570984333228902 0.28461854885118726
Ni 4.183696181350678 5.615655710271261 4.140198268255064 0.3444902855061551 0.028555443040189532 2.2629065680044516
P 6.098980337600817 0.8923947429944893 8.506242527473423 0.3034449375290709 -0.6063149763912784 -1.5981619867213703
P 0.7103929875733882 1.6232747514265997 3.4089449391211293 0.49787432968867157 -1.672755602967545 1.9379839202175781
P 3.60267510901002 7.939935504240832 2.250142585069113 0.9464145890289055 -0.24073650275625638 1.573484024358716
P 2.726749301714467 2.462864631060791 5.748758970573598 0.28529526320323767 -0.8158562844916529 0.3146333500457226
P 8.833130885149458 6.050625531484211 0.6445656554422181 0.33330033032760664 0.5086536796923627 0.016863094303925796
P 3.561823955902653 3.201313460704453 0.30104823448441936 0.6933540174896575 0.3199804732902489 1.2409316279407274
P 4.734516446790629 5.03555630250618 8.528738590912038 -0.2017333820201816 0.06339131977245213 -1.6330911944983875
P 3.1961558629785003 7.837090771246965 10.423154026832762 0.5096438115197739 0.8667278745305396 0.616477518746577
Ni 4.994267591468994 0.5054734373472719 6.219555476495545 0.13282498908424223 -0.11940845856802014 1.1124739146862452
Ni 6.90510169047544 2.0293285102987375 12.384893801589229 0.3262745338290768 -0.014522361985891118 1.1660022256216884
Ni 6.626758988651357 5.511302798880996 1.1998518046892805 1.8715980365931766 0.9314682521317184 -0.1993844221720308
Ni 2.7112951280229836 3.3828534528634475 11.925297847696331 -0.6288504384896332 0.3411851323923221 0.45746404419242503
Ni 0.17236058537598037 3.1233164322783993 2.1995636813049795 -0.26354784422381705 1.6486774789724186 -2.3703671101819754
Ni 5.122360347987741 0.4415583264668433 10.40445913153766 -0.27892921177589386 -0.17325198675103712 -0.02257145754261274
Ni 1.9586396302749816 9.190392279975171 2.7867524585074497 -0.9994266224495626 0.1019306134982309 0.0615043871623844
Ni 8.352552632060256 3.0821766771322148 4.1798894273612515 -1.7899989355634462 0.10246334607324936 1.218108973619257
Ni 4.684271762806932 4.678779014326224 2.0880506464291004 -0.8491050192424539 -0.6084801023633972 -1.6132016546633121
Ni 5.747286169201313 7.834642308788616 0.46617235648064664 0.24790293859770857 0.42477812392362974 0.699141313595396
Ni 3.4161823334752013 0.22863798294526858 0.8020827862798242 -0.3645099231611915 1.0090592604433204 0.9887735136110907
Ni 7.616812937684197 1.4293993495439818 10.303928800700241 -1.396177665032647 1.8584501863573089 -0.5488168821748096
Ni 0.3245423023927495 3.4777290456886942 6.7336553218804855 -1.2951651924733114 1.5528748327487967 0.5329346637269144
Ni 2.4578932281985906 4.849715208994495 3.029590592736826 -1.405647037975663 0.6972798349066249 -0.8521090961761002
Ni 8.407433568151399 0.7490516961600664 2.17554175095791 -0.15987556544413112 -0.25897693702368296 -0.1316070575167411
Ni 0.15496626120419246 8.54202452541512 4.416596164727248 0.24744862466910927 -0.06970080693024769 0.9577603530590278
Ni 4.3049183473969475 8.90664061735907 12.476214003491116 -0.20926285762800734 -0.5082867832712471 -1.4652534367843861
Ni 4.1793392215388625 7.982946517767732 4.7735633716682315 0.6151755121057018 0.06210705374338981 -1.3740440663584015
Ni 2.8939802185940575 6.6926812801630415 8.539475517730345 0.16186405662906964 -1.8288390483590955 -0.4452618456992783
Ni 5.013976317797228 5.147245291528305 10.606134236262884 -0.34567967782856596 -1.6446668151511288 0.7899974144470201
Ni 5.394158300350912 9.244230524829298 2.776301340805004 -1.2405518760038055 0.687624571205048 -1.7849271774674937
Ni 6.844895581280967 9.0525242931094 12.075930423446676 -1.145322842895466 -0.2153473732591904 -1.443477221449559
Ni 5.266251738695917 7.2989317565422045 10.718969254671409 -0.12566600944195777 1.9395427800642662 0.0060233233759444645
Ni 8.365549033550204 3.8628917408477665 13.621403651054163 -0.7412567547082073 1.2832131623177578 2.816240364213008
P 7.165290393083622 3.3285124818771887 1.8628032719527703 0.07378757540511163 0.27970517070996986 0.10122638834235469
P 5.02916050893627 5.973038131758413 13.272175633625064 -0.10099113240309704 0.2882594880378842 -0.43728114148664693
P 8.350979285461545 7.7162037559554495 10.998296927324743 0.2881967531207488 0.9967981836877803 0.9933379930533216
P 8.562217358389113 5.4214544673770755 7.864960418453487 -3.8056211723907944 -0.8746710406370163 0.731936762858862
P 0.1731500515982923 8.86295930232266 6.942700950287364 0.4031749438315572 0.042504449021113895 -0.4527800084531944
P 7.055826432683343 8.752657465035492 3.781418454315447 1.689521509571974 -0.414687315346531 1.432343830540559
P 0.4701941655377074 2.581666263878274 9.841715877997297 0.038111719270056944 -1.4134333667893013 -1.3161675057565911
P 7.0521677036106 2.509245771621617 6.022594825720543 1.2405485335696957 -0.41120989832089183 1.3030229979548333
