# total energy = -381173.1570632123 ev
CRYSTAL
PRIMVEC
9.16744534842835 0.00000000000000 0.00000000000000

0.00000000000000 9.16744534842835 0.00000000000000

0.00000000000000 0.00000000000000 13.41748292699897

PRIMCOORD
 96 1
Ni 8.049154502293533 6.019802969119033 11.951770811141861 -0.17112002800969886 0.4737632955730808 -1.3228785992281797
Ni 2.953741714531613 3.1622185885447642 0.7085380975843393 -0.029511636305871752 -1.0268973170660058 0.8625014951540179
Ni 5.063024203447752 1.6123702828122373 0.7276247187397582 -1.78836294262192 0.7820660754150854 -0.6068417954290258
Ni 4.840301119407934 5.470443808341666 11.578415599566538 1.9195084871212105 0.5771422114820641 0.3899327341096704
Ni 6.0145500229509 5.5226524094368195 9.146818567636512 0.7979045851092387 1.2028918995591864 1.5431735463006329
Ni 5.295483114416993 5.888616826595477 2.520662430188123 1.0807650136187388 -0.8477814153350238 0.7996693903191454
Ni 8.936398195215604 1.8292903739647455 7.177615559948477 0.9853706585771289 -0.8377170891204863 0.5793605592896216
Ni 5.767615715822002 4.189641687848925 4.267765740118072 0.23672609604528266 -0.9585782209746329 0.31239751873666843
Ni 7.0717306497625 7.759444895303355 8.716962557067395 -0.4515242816692224 0.012753443010926421 -0.7055209918694947
Ni 7.309460841790513 4.140339166920087 13.292176910869083 -0.4787628056702013 -0.7066823591674475 0.3389387595603066
Ni 2.0649303884598886 5.297490784941987 8.870177153949433 2.1988858421781163 0.15858075789210754 0.8489139862775702
Ni 6.585140987088473 3.9919548969769494 10.965062169991132 -0.6298143450647993 -0.8705955850160619 0.4548068090752361
Ni 8.533929010794278 4.309597709855965 6.203479153309055 -0.0936146374333678 1.0470444814378417 0.6784591026556961
Ni 2.50330845619811 7.068100341415937 6.870475889172134 -0.16465678888285837 0.010411425141311102 0.522114690293275
Ni 7.453142212284692 3.365277502374029 8.39998805095218 -0.7458811408540961 0.3403595511672332 0.5243314954389358
Ni 5.667168017455083 3.4819424115113295 1.878675401901461 -0.6685750107727647 0.6422170896045262 -0.19026060549389168
Ni 4.43454082211687 4.03029315330354 9.290653951212061 -1.4653976756717344 -1.8666010975992176 1.375567187871147
Ni 1.6167614891203281 5.442858965374973 13.5504504311138 0.3188239910883025 -1.0775593621972472 -0.3306940030530111
Ni 0.4321735407459123 4.642852682114268 3.9315368485980886 0.12549323130951934 0.42338484312052893 -1.103903656518731
Ni 1.3024281240016906 1.3752543096206378 9.723475630342067 -0.9634178084551216 0.48562276601482823 -1.497100406091654
Ni 7.571613108149956 2.392492377174717 5.37394361192937 -0.7051006165026243 -1.132299948273237 -0.45713288610525143
Ni 8.440109375393433 0.23491853654849001 2.4814422656217867 0.8877391866748839 -0.10071962390926524 0.25743427512691147
Ni 1.6676408106441394 2.1955573168189493 2.9601378411311012 0.7518237315907761 0.09382932454733518 -0.8309612584538916
Ni 2.5216800166185998 4.501701526528301 2.6359320541477804 0.021473082272111404 -0.971576947227146 -0.3671296201722258
P 8.055012499852761 5.002262375869407 9.733900849159523 1.5370538065561399 0.9550948904117227 0.07766994117865333
Ni 5.938726082712441 6.704235269235469 0.10962614462090799 0.41750807262477774 0.09614408872344087 -0.1297931442364539
P 4.1093348668491805 8.395069716538211 5.082233668370455 0.5044784652687506 0.7377533695406391 0.8097529998073926
Ni 6.562488229703727 1.5003074312253781 10.166453922141669 0.9818323064065672 0.2278177378120593 0.3851558815463173
P 1.778878592152234 4.777540788749914 6.748054741118653 -0.06176381147135815 0.43951774412664946 -1.012523821953153
P 7.464638188715477 0.06786109723384867 4.513319429981837 -0.0569638189795535 0.6205822849435699 1.1804687946689798
P 8.361003489730557 0.5703883635960104 9.033427353222843 -0.21957632373887345 -0.05140509394485341 -0.4107095616457056
Ni 5.329833532029555 1.0854805305132236 5.486087137035041 -0.537228663116578 -0.3673391650798706 0.4025499086530486
Ni 7.385513968161962 7.505579999512837 5.954437250501181 0.7492235749637677 0.6639115438588243 -0.7496555202948637
Ni 0.7562775690861856 0.9342726874116484 0.7548914513538612 0.9747054655537989 0.14279289893023148 -0.527329144614679
Ni 0.21198617208149653 6.378992644186501 8.219751492246074 -2.1356824700467545 -0.69618634473213 -0.5510038625237995
Ni 2.107485669633498 2.0331560229821353 11.978887197652721 -2.4496326779825233 0.17458767484332513 0.9379245492800233
Ni 2.03770307586066 7.605092618457156 0.6455953347644591 0.3445527633129743 3.04975412396858 -1.8975227268787382
Ni 7.714386901557494 4.57330844191974 2.5099686052228036 -0.17129100636992436 -0.8454378548035117 -1.619955685557694
Ni 8.635137607122724 7.716623758215477 10.211013206862143 0.1511189022974236 -0.2542692471353686 0.6257622864826126
Ni 0.547802528562098 3.695745571255172 8.390569417630818 -0.7706730030867953 0.391655373227732 0.9959990848252523
Ni 0.4785644810412446 8.392787022653629 7.043560923784416 -0.47484881532777573 1.054620751123203 -0.1463443637269157
Ni 2.951358178748515 0.2890238820802704 10.841326410278821 0.3285319624046858 -2.2491529658637845 1.2254636142121154
Ni 2.8283768997860057 1.2581585305533152 4.7339431690434655 0.4758399755964515 -0.3000809061528445 -0.020019123434404235
Ni 0.526487301449483 6.391001997555184 5.41125786461376 -0.12906423649022933 -1.843492536606212 3.0237620707801924
Ni 0.4079247311310234 0.6422868037486135 4.756162306264594 0.14827423375977689 0.6950522311276868 0.49341346570384054
Ni 3.644939589293918 1.745829951775056 9.097107178646418 0.12286453543742065 -0.2103787164000054 -0.24341533514000013
Ni 0.39626190719542115 3.538780572492885 1.061063956648986 0.30108697881985563 0.010179254525846986 0.23306355959203087
Ni 6.24696309669354 1.4353010764640546 3.3245300414174457 0.6197014250005134 1.057216279764521 -0.42994758393971116
Ni 6.012560687316545 7.81096593799954 3.68839878057604 -0.657314607367597 1.2606301348109192 0.4913139028623344
Ni 9.047626809278379 7.686783723700161 3.8593643018304298 -1.4919566571071854 0.06237959067848612 -0.6716837316050754
Ni 7.085078450147846 0.32152614271640023 7.018363283578948 0.8038106661810286 -0.015360027395838064 -0.2551501070784251
Ni 1.4077804056145986 5.271638589140698 11.248654340719538 -1.119431576951001 0.8259586630329776 -0.9202155620360346
Ni 4.092393427898549 7.726515431715333 1.5905618471414273 1.5287478577936058 2.5616957519290655 0.4265899803213879
Ni 8.727453781491153 7.844940490353998 0.3896998498356475 1.6804264892492413 0.008544290025585285 1.3979095601220892
Ni 7.230584142260627 8.471196182472216 12.471134090833479 -1.79941997176703 -0.5278675336166522 -1.9775742809156907
Ni 7.433853907332242 6.85601149394686 2.0354588852464204 0.5658216442629223 0.248535687085701 0.4366661336104673
P 2.2468675082727816 3.4704922723071423 10.17114948763437 -0.09222187085089924 -0.7141503854097185 -1.2660914150358065
Ni 7.397110786491263 5.775444714124945 4.353288837504674 0.32372554215497795 0.8892180852132555 0.9266379206226105
P 8.742231703346357 5.680405808496594 0.537131622210077 -0.7159879528390896 -0.44000599661697765 1.3262310606401804
Ni 5.1690090387877135 7.581944819025151 7.492939925906164 -1.5096000812205614 1.5673324029350233 -0.38963217215011603
P 4.959019536296828 3.8915071986100305 13.059209206684605 2.1163644864444326 -1.1885919379967465 1.834644599297279
P 6.250208372336682 3.6301433325480743 6.6282903187187925 0.0004388873096315022 0.09334827114585859 -0.42462977127122353
P 4.16047087684194 2.735363999573287 3.846537212339237 -0.052001589878271734 0.12799517179576667 -1.0240516200870944
Ni 8.737721320249111 2.986322815197491 10.566254463230457 0.6221282892744512 0.29467207643244736 0.7567101131488
Ni 1.8225247993188767 8.890414289492462 2.7478069731055874 -0.3735301243819309 1.163995479604305 -1.1790564877024856
Ni 5.820346861300374 1.7765133912597761 8.094136406243242 -1.8900027643526096 0.6310330479632487 -1.4055855886101083
Ni 1.1262573272948295 3.044600265094224 5.333100809541463 0.7217479952513184 -0.9335549594574181 0.2818260737077147
Ni 3.351205473808434 4.911110467056568 4.932267097365155 -3.042096607423322 1.7742095339396733 -1.4294091733922674
Ni 1.7212978680997915 7.588591216881865 9.577909433090179 -0.1780866891355191 -0.02170550999789165 0.4206982974273013
Ni 4.133060215336319 0.8229028946909515 2.529866545289007 -1.2839664955440147 -0.1362512411569718 1.3235177754740755
Ni 3.8679927013652424 5.742066045716261 0.7232986012934364 -0.754848634460029 -2.4132970767762822 -1.3700724833051632
Ni 2.0773706117585933 7.853823744868696 4.671498198504441 1.5078206207226355 0.016034170644727223 0.3943306060670499
Ni 0.973335171918488 7.766760516668401 11.871010201598796 0.12287919072543997 0.30463458696179796 0.6158702241798812
Ni 8.649227970578957 0.6696947150206384 11.29757457917855 0.9461721340007962 0.22255880340596507 0.2017968882682654
Ni 3.1963398200243365 7.108400431040923 11.961833915869192 -0.3629484922113427 -0.03397789960734148 0.967879700881217
Ni 8.64661524866287 2.511788343118745 3.3013180698682043 -0.5448350147089263 0.2691327945107623 0.07087040175831666
Ni 4.065706994573177 5.4893379131453734 7.602104031282964 0.5307309712073763 -0.8195825843033046 -1.3206162855565644
Ni 4.828291766039251 8.891761903954444 12.694052441458604 -0.585039869062586 -0.42502315005490027 -0.5700675640234698
Ni 4.912247230276199 6.41573576502748 5.4375418470896015 1.2676106798938105 0.7898665452961107 -0.5035284426506554
Ni 1.271946368314002 6.56012302881127 2.3434034577218252 -1.4196924603251355 -1.4230708898790652 1.1193919819623173
Ni 3.16209024431029 0.3966423561761848 6.8471025705852675 0.32301411791025014 -0.3099410867763759 0.6741903000770131
Ni 6.6089671774741285 5.772520299067991 7.085424062836395 0.6487386927731279 -1.7872162306119863 -1.0921578288367126
Ni 6.512378973586763 9.138081992246928 1.4478806449316175 -1.5489503008834098 -2.0132884464878487 -1.2970634379372887
Ni 2.2825747077926457 2.6879591398256064 7.449628330493687 0.8607791131462723 -0.45594349378284055 -0.7971165419903046
Ni 4.479057936588875 2.1305784643935843 11.332566717963482 1.0407267667499303 0.026193113455600048 0.48727495690627054
Ni 4.985009243777909 8.856843104732066 9.789449150584609 3.2609365672168034 2.0152527693030713 0.9318459471861111
Ni 7.61753284175586 2.0094398419403157 1.1919338223090161 -0.10696149105391901 0.8312453653532135 0.7031067260010472
Ni 4.221544397561153 3.3577510297666326 5.998110960003782 0.5768331648820775 -2.9532626792080494 2.3605598942835666
P 5.901744608293153 7.306490589506962 10.886462327309896 1.2015711238652338 -0.31827146101894216 1.0509273614320158
Ni 6.561158950132384 1.533337736711917 12.606637183358037 1.2776894042860512 0.7450596733940652 -2.0858748024960074
P 3.3286627257675234 8.5845333089585 8.758087716771147 -1.5764302514712336 0.013016723974642097 -2.2848499050447617
Ni 3.1946988473121265 4.038250495840957 12.038031887876691 -1.5524351741082167 1.010714793768872 -0.6301095077077148
P 8.765434507450278 2.302284715229798 12.777268092858261 -0.020233553438055475 0.374494030957097 -0.3282290864522864
P 3.3018204458717184 6.4273692531380595 3.096231317134243 -0.4098490134176232 0.23397810098650026 1.0009037212157215
P 2.888130308379195 0.611424599080161 0.01028128992593771 0.69010362887316 -0.5412845783535065 0.45146334652429987
Ni 4.04679455487883 6.6888797983251305 9.85502021997762 -1.1497981050580006 -0.24207836149613146 -2.1583359457802116
