# total energy = -340871.9551312173 ev
CRYSTAL
PRIMVEC
9.19485932371602 0.00000000000000 0.00000000000000

0.00000000000000 9.19485932371602 0.00000000000000

0.00000000000000 0.00000000000000 13.45760605088218

PRIMCOORD
 96 1
Ni 7.595303223529602 3.042441034332067 9.171304873700588 -0.03262344246197607 -1.448829486900408 0.3148606355651803
Ni 0.9032910287242929 4.861625565998752 3.7657748733879557 -0.07582928842548875 0.03800861803328938 0.29510067932943373
Ni 6.03043011162373 4.064615157984174 7.939153264104964 0.3370322865662131 1.6514411577604848 -0.9922784414405555
Ni 6.79459648205838 0.16742551586726168 5.885267189202302 0.013078944671145216 -0.6828577459440239 -0.3354004073897449
Ni 9.090433327304527 4.227263024935834 10.498480757195919 1.9479382032168129 1.8707259184008687 -2.1489861291341956
Ni 7.288397208316051 3.970229926808936 11.64027724246717 -2.57004618077629 0.8672652350912482 1.759729080935311
Ni 3.4321375630869575 5.3633338712930225 11.46981006712862 0.07251719333312028 -0.6896649986738445 -1.3069498438130651
Ni 3.1811730721276827 0.7377808020585707 3.0444868905363043 -0.9761229147266157 0.34154765793806335 0.5536538985521369
Ni 6.400624343708119 3.7051881061926437 5.040586952400106 1.8789691322462674 0.404066088187259 0.8402820216341851
Ni 0.29280661789410506 9.181499214256261 5.018772148604367 -1.0153661764979545 1.3509568455216345 1.0514829768251697
Ni 4.557726269790979 3.285654258863604 6.296141318000329 -0.5221776823207266 -1.418667618605047 1.46642868803941
Ni 5.411174724464456 5.817072595385032 4.194183598956678 -0.32348925777445575 0.11059805936524178 0.3338436044255863
Ni 1.2479722845844323 2.298429795581403 3.423022699018373 0.0935022802252196 -0.45318624275267755 0.1483606228259961
Ni 2.7056517262476425 8.121028501432711 1.3251511754675882 0.47738803680986175 -0.5541529496757424 3.5154765515150554
Ni 0.3773018583579856 8.912944957370224 10.799997665347433 0.4312501048012186 0.17815559470024156 -1.6439741599594784
Ni 2.43068865239822 9.018878931882636 8.723597057852889 -1.042489772187624 1.2269206583736159 0.8586301851240696
Ni 7.491530040963237 5.988326850683504 5.703952838294592 0.6075789307053665 -1.4846269562149916 -0.26562401002655545
Ni 7.3019688207091 7.5981996042232405 7.650326181335324 1.75952262135146 -0.45936486075956373 -0.9246959664048914
Ni 4.252355796088024 7.40375591365697 12.069076749558047 -0.4042208685975684 1.9134586813827046 1.1352258636707804
Ni 1.6534563868344885 1.5104855188808812 12.783151365253639 -1.1670034131926934 0.6585196834192917 0.9322408686316849
Ni 7.081926641726673 8.408404635397726 10.967787297644753 0.38781903020077724 -0.00717440626125216 0.3410182677971546
Ni 8.37442963011838 1.9314261796896879 0.9397863449500735 0.34520248108183127 -0.4101940554618678 -0.9815772529729676
Ni 3.7531668822542503 5.981761721111257 0.6804664853041029 -1.2110857482238884 -1.4648880830251674 -1.0407092832484337
Ni 3.8332357174295035 4.471533658292032 8.851282391631559 -1.399904736175247 0.18876088101991362 0.2480790591642566
P 8.22648434325919 5.477699531824695 2.418601090303435 0.2907611714138154 0.16510441794323824 -0.07187930263880524
P 3.004843254470835 1.7917470713815495 9.72188201744105 0.17506178626626626 0.4176577108287646 -0.3098336146642341
P 2.223620419951424 2.016110834256073 1.449142014761485 -0.13896298366118004 -0.36070803291659814 -0.357440675019236
P 2.7418518874884525 5.535176597589567 2.6273418676650655 0.5696744423501092 -1.0056180959722552 0.9464094468225829
P 1.628455564275748 8.356168639459439 3.4462774177875204 1.8563046007692159 0.30613045478103407 0.432220696244604
P 2.026234374394791 8.470368792522903 13.02674709593392 -2.5943932421620866 -0.17088605762202183 -2.411882455816943
P 6.840901793719218 7.555820497502669 4.505297181806448 0.015779374321443794 1.3498728684288364 -0.6783511163229221
P 8.20944626889312 7.300451668917194 13.310191508043065 0.008434761030914506 0.9385040759325772 2.084780026769932
Ni 5.8469558882559065 5.755292335446754 1.7881528008636343 0.9642256490683975 -1.1349402141095615 0.25596926054561076
Ni 0.6903601539591985 2.546470321269004 5.712000179193235 0.4575563467959152 -0.9716147424436169 0.36952691675980875
Ni 5.1243962563568575 2.141537910579641 8.704177514916493 -1.504360687198493 0.1519131160639448 0.7963583236680414
Ni 2.436490608644842 2.2940254579552035 7.5297723804645456 0.2989740462419109 -0.37917678114474695 0.19199610012775967
Ni 1.4671593416477862 6.876881278335751 10.842874213958563 0.024993436720544052 -0.7501604849557404 0.6491004469879208
Ni 0.9559527466502493 3.8410053735759306 1.4956652445887966 0.6349856048530934 0.4543895190321594 -0.6148983471849152
Ni 6.091088598721932 2.024855145493058 13.329556801309327 0.2164094959751176 1.0422529735864696 0.9078853226054558
Ni 9.135331825485597 7.255930159969264 3.8361045135451075 -1.6665638723345364 -2.058078606219346 -0.12469696066046909
Ni 8.169099226087766 3.3191879108943976 2.7597110627940213 -0.9273917680694995 0.4515029415129837 1.7122500615177414
Ni 8.593451179713526 1.0587420792667117 7.47958959661797 -0.4291279162518932 1.3158803135334758 -0.5615088758201814
Ni 0.6945447344470553 6.997766094142945 8.513106498757926 -0.010065611766118148 0.1280062275393602 0.44544465113404574
Ni 6.170145999369248 6.224993335361484 12.77060865762128 0.2073964938432299 -0.6476945677793298 2.039148344973746
Ni 3.8259258042503204 3.50627571398476 1.855884893255856 -0.033812320563754675 0.39502480392059713 -0.1717535478286397
Ni 2.354408099273059 4.688008231848645 6.573448161496763 -1.1798674136395553 -1.0082845870608248 -0.02738327710895929
Ni 5.303254660333549 1.5858373912122088 4.533705619238402 -0.8075374802133124 0.3116220740232246 -0.07546573443848294
Ni 0.36848766618997936 0.06786173990898466 1.879973585767584 0.2981993728594155 -0.2599400722679007 0.08826340042378349
Ni 0.2502546478178491 3.810579584003708 7.956500285745023 1.9693786324787756 -0.29764324324562935 -0.5428804620857166
Ni 0.577429810971263 6.835329708956218 6.109134429672202 0.8483259749845841 -0.21553172135585463 0.08596072043253583
Ni 2.89075343971951 6.587114480941064 4.674634308931511 -0.12446376160374048 -0.29082133522778947 -1.0203446035491524
Ni 0.9846958769623578 6.399594519461492 1.728561836935373 -1.026340159010955 0.8602610358592733 0.805714825182277
Ni 5.402136177728435 1.1685654792820108 2.2661264157309553 0.4923554567529714 1.1025453427186238 -1.5886167662350963
Ni 8.389306912538402 5.992731188309704 11.835937412924768 0.822422624855261 0.029649447435316677 -1.6657981978131053
Ni 1.865894417138697 3.271356252582309 11.039422607828877 0.6593424364309032 0.031200079751888203 -0.8669525889468359
Ni 4.940728940942792 8.404818640253222 3.472802748025643 0.5586544370905218 -1.46515290665078 0.767977201422187
P 5.449747159416246 4.077248894724045 10.298096268006919 0.41813362202391857 -0.16881426269465766 -0.44063386000896365
P 0.12784992176094484 4.535447125598323 5.773877904640568 -0.8225308682983512 1.7996338875500488 1.0463438558263916
P 8.064544480477087 0.7985266403205493 9.58574476895256 -0.6303933574967208 0.448666243395137 1.0861075088775747
P 5.301994964603299 0.3231321834994682 12.118735426421964 0.06885028600449432 0.12119537526511387 0.19656983554137114
P 1.712101199736161 5.069006423663274 9.261565290973712 -0.0002493970066447318 0.24351277994981288 0.16809769624360726
P 7.4417858519074125 0.7086855086335531 2.528415295459389 0.9969131119990897 -0.23107686817930523 -0.6246955357809951
P 4.341904531247852 8.462387654611543 8.094951880330619 1.3149819700889225 -1.1012330516651034 -1.2054408912332852
P 5.662525399516216 3.5645067582159125 3.11931189742717 0.1900024667364986 -0.194778033748271 -0.7697114105044744
Ni 1.4015356305033462 5.749095000248302 13.103859783829794 0.07202456996741789 -0.7609704310870508 -1.5518571901175597
Ni 4.148444690631485 2.4368951824560168 11.546303021504647 -0.43131721059372813 -0.7496100117689091 -0.7649983212995212
Ni 8.747888037270204 2.126292833785823 11.46958111513093 0.3128189225448032 -0.8459124804470851 0.5802270210549749
Ni 6.603251459091336 8.705481345971597 0.3140605352698053 -1.967428450730941 0.8223442062088419 -0.4591738277946802
Ni 2.8083123308332767 0.061657048823056684 11.344088755306014 1.138134809787459 0.2664290224263541 -2.3383468485216374
Ni 5.2697393980214455 6.46576072730728 8.576841585792927 0.6793520467836106 -0.014770730551271335 -4.094819884413496
Ni 3.9094243219612155 0.8697426649185478 0.27795232262244435 -0.533487708016907 -0.17958898471265844 0.3107219308064584
Ni 4.972681077166266 0.015776539663952614 10.032470573822227 -1.2218149617159346 0.23186362574665875 1.1203895699888962
Ni 7.789792888392596 1.702556935736171 4.391041859586914 0.7829351082835999 0.24134816819832627 0.40114968587141236
Ni 3.036354037445754 6.881414343992779 7.153874577128524 -0.3085722314533073 1.0786004018672521 0.9936562956246887
Ni 5.361219053643699 7.3163771653025345 6.15435198947254 -1.02239891497502 0.3192042572458567 0.08609030403186464
Ni 3.7094913003660492 4.0210407195487665 4.285654979205522 -1.1479510245469327 0.636074467041898 -1.1348324848871034
Ni 2.54119247200504 8.785724883474403 5.545986993721348 0.40848092942550296 0.7381022682396257 0.21682241514282014
Ni 5.69039501819056 6.336195964278515 10.591660542311043 1.345168778084948 -0.8964382571107787 1.4366473430119193
Ni 3.5014851922660752 7.213725755576245 9.766965332294953 -0.7768012274717203 -0.8778890333536816 0.5479303658047983
Ni 2.9040400114728677 3.6826882853757112 12.928386007577956 -0.09804876194532146 0.44222897241022546 3.6682682135292115
Ni 4.365424981452066 0.844711499323969 6.65235016902115 0.2827429290950292 -0.30554295770868023 -0.14184261920182023
Ni 7.428517669872744 7.648164469903342 2.138884274172707 0.21818047183261133 -0.49545877826864354 0.9283888418754462
Ni 6.344305830220703 0.22962690036353553 8.243268639507342 0.2303243062839969 1.5953155184115106 -0.11723561928641744
Ni 8.687873190326144 0.08529335425501647 12.749937694328047 0.43152778394263747 0.40275611112658377 1.6810250420651887
Ni 0.789612224185684 1.9823381158823128 9.439299163652523 -0.07490394839774198 -1.1009517729792588 -0.9595585826100314
Ni 6.297899375107072 2.0823230163985857 11.021968006334484 0.9778154719376901 -2.2131490369653495 -1.9426057352603059
Ni 7.562505160246399 4.129061927132469 0.6744732759831072 -1.362860024717124 1.349803705753798 -0.8300328331023512
Ni 7.924543552091877 5.446657686676365 7.90841576880095 -0.09287133150944005 -0.49705723310401495 0.9027837397128322
P 6.880761508979291 2.237173642625783 6.797692391199803 -1.2689808207684596 0.617053188744389 -0.12734211159280004
P 4.793473268534469 7.66305094718271 1.411890881097555 2.0518912464617114 1.270053485007348 0.049161549326315335
P 3.1323483690063467 2.0922442696317156 5.166805706113268 -1.521304514141683 -1.0876961935209333 0.016809615358171052
P 0.9266671196367925 8.934221861894285 7.295395415763442 0.351334305011182 -2.045528280358161 -1.9754806316114557
P 7.8479319840303 6.831026514782812 9.606402859442714 0.1475628095150491 -0.48960077682596975 0.5145625889776301
P 5.054552104773116 4.156278710793326 0.09367998546348552 0.7246093759595134 0.15250164157756316 -0.4071470411054278
P 4.43753106843465 5.303548895832584 6.6504928074334835 0.8928927058513656 1.3318934011322803 -0.303029190147891
P 0.11262139571394733 3.778857319263857 12.94145282219297 0.7074464910269816 -0.014596666867252278 -1.4065057864315327
