# total energy = -381167.6373138606 ev
CRYSTAL
PRIMVEC
9.27088286995407 0.00000000000000 0.00000000000000

0.00000000000000 9.27088286995407 0.00000000000000

0.00000000000000 0.00000000000000 13.56887419537686

PRIMCOORD
 96 1
Ni 8.466420723636714 6.787714115431886 8.440531782693492 -0.38618740813462527 -0.9824316305534628 0.7958525876762165
Ni 0.8800904913534833 8.822200131922148 5.447468905957635 1.0580901977290422 -0.05503189206416329 -1.001614631239817
Ni 8.093304764030304 4.100474493616181 7.7062250003599075 -1.179221295415124 1.244831734326082 -0.5554302737262692
Ni 5.404220236485789 8.47750869977569 0.7611979057355215 1.0012791022772691 0.6095607370220857 -0.2955925313641877
Ni 2.043534398356184 5.666104141146175 3.1466489609385007 -0.04899134229703821 1.1709546845309575 -0.5581057636759034
Ni 7.058507338712302 1.3950175865888625 7.2373658501347204 1.131231912020039 -0.5033674915927588 -0.03096610936421119
Ni 6.846482243145075 4.476223384011445 9.552419381914868 -0.4588722373938613 -1.0588054786285122 1.403329702696396
Ni 3.409840060110254 3.9387253968797835 1.6106388576948092 0.24863030368203637 0.7699173558676933 -0.4375662768272336
Ni 8.50965085134244 2.82735047749159 2.034218087969848 -0.8870802129346465 0.1149069711532408 1.8402123231930436
Ni 7.924296565858439 1.3360362285653078 9.955429303946136 0.8108313204732358 0.8659136061593604 0.3490845897450568
Ni 1.477862197607172 4.399219429320524 6.158668012265801 0.7216490077796087 -0.7437466110095965 -1.7988057352217988
Ni 8.862890037669615 5.482206904781002 5.457998774936439 -0.5260965577591585 -0.3939624240943538 1.089021854310892
Ni 7.4196453174060375 2.8593257531632723 0.08321822760560105 0.005797066297751306 -0.31072475901993585 -1.70892022581356
Ni 4.717229260022185 1.239507794151405 13.058100904004327 -0.3122843901975718 0.22628895987235867 -0.1332330231559383
Ni 2.0851421215265256 2.271931873406214 2.6627153548588187 0.2911368095856792 -0.9474553715885939 0.5264197454265321
Ni 8.060291149455974 0.7896317040785334 5.045056955883694 0.48682912761810343 -0.8224815031176546 -0.8827736151394925
Ni 7.602077754247834 5.324045639788571 13.155051163597431 -2.362533987290802 0.5891983713156498 1.4353556207836893
Ni 6.045125653261389 2.215694696768226 11.119611173240362 -0.06939741675721597 0.8091698736104128 0.9682196007191389
Ni 1.2224030149069127 1.906334599960933 4.830383169026412 -0.3518325848038392 -0.5231058505619507 0.8238863538849812
Ni 1.6136806344265804 0.34715099742210187 10.762614498009235 -0.37223891637433315 -1.897619914578235 -0.022442388163916187
Ni 5.4297337066651075 9.03402126806207 10.7039019955944 1.3319872463976674 -0.16445521439501354 0.7589857965568542
Ni 7.06095485183997 8.590557847801348 8.90229407193675 -1.265542484510872 0.661683425859254 -0.718320457627008
Ni 3.561326289299956 1.7741596201838474 11.06564814421683 0.07923317190071515 -0.01256600959046868 0.6422582272551068
Ni 3.3492084849021357 6.395212739348384 12.80687387942066 0.3283941512752409 -0.5546365741803803 0.3542211396406738
P 4.585879388837381 2.9865593522697265 3.1376932879031734 -0.09367762946081931 -0.10911890371655401 0.344304137637278
Ni 1.9587892563107085 8.425879152018197 3.153541862493124 0.02566320909405903 0.319208885231547 0.6050978161547256
P 2.854041349819445 7.121530801749731 1.2981248064707274 0.14708612698894669 0.12332656267550371 0.30225091722096975
Ni 4.517154332718454 4.911231758922044 9.137524187801517 0.6212829105550204 3.053919825310495 0.5113507669085516
P 2.3689887481544996 0.9658405971225914 13.088834808434363 0.3694305003912606 -0.6699988877034849 0.8942787875656146
P 2.459148085906633 3.4911827880729494 7.786919693596754 -0.7590493028049379 -0.2637866997075005 -0.4612422802879347
P 6.613968496016695 0.2353395122848681 12.648728374929428 -0.4766372746867663 0.01799437969489159 -0.20487347031106004
Ni 3.552518950393578 6.877641681107535 10.446676709671335 0.31473130907616764 0.04722293754270577 -0.6781438854081224
Ni 8.590270450426507 8.746336495847526 7.103753883483436 0.3225222658754962 0.4653172216882567 -0.6480581217663355
Ni 3.3966475935168057 8.765860975570506 11.791582392059519 0.7225365525908847 -0.6336242057291926 1.8159295393862789
Ni 0.8595267456395494 2.4040048734696473 0.6934425839846025 1.5899352279362036 -0.3892807023479683 -1.9706577563015157
Ni 8.881867535292095 0.5510863204317438 12.322803991360006 -0.5515479079527276 1.5044367918520671 0.06961853162908656
Ni 3.847527720225004 2.969482385674412 9.181894634123545 0.7165510244314112 -3.063180681787131 0.3650241437934488
Ni 4.386814987787119 7.1065119711935925 6.023467943346451 -0.6536219890073581 0.2712634677005199 -0.16046589072996237
Ni 8.692500477921909 8.205584428762034 10.678229066226463 0.6682065716897524 -0.022739864799676966 -0.805320932177968
Ni 5.007565504791701 6.178830328743265 1.0577697464507534 -0.3029273744627041 -0.6661828563915043 -0.15606801877258283
Ni 0.1811122630941457 2.4769389104975166 7.6901455807817785 0.8037646434344415 -1.1148367584914671 -0.3513867555156723
Ni 4.853752283954104 0.3928675759643453 7.209360366589051 -0.5854584446572433 0.04282043759963593 0.43319103057767333
Ni 5.767230933557513 7.021627765902227 12.305096604716656 -1.1994453357714827 -0.16962647418330787 0.4234342083012256
Ni 4.136510416067856 4.853576137175977 6.7091164959430625 -0.35119083745478225 -0.951804392585909 -0.5701305560509213
Ni 0.8935425426725933 5.094072114618452 8.170144624091076 -0.22490904880569654 -1.2744613842670567 2.8487151969122615
Ni 0.14608872107255108 7.505929426039365 2.1937069434163767 -1.7374620420069948 -1.2234409273551317 0.5490068866984287
Ni 0.36939555423469494 0.3549598622229884 8.936473963599944 0.46395453701277517 -0.05428961458150005 -1.5030648512052047
Ni 9.070743235860135 4.281979842152043 10.375860142334222 -0.08392954893511997 0.7880490324713977 -1.1265447909570148
Ni 4.554247135838895 5.428055676831366 3.4596562231413404 1.1756716303906527 0.537020917981146 0.06325453708427171
Ni 3.6280302929119452 9.241689048591404 9.261829114949526 -0.5546178051273029 -0.10077875928197483 -0.3917926701365446
Ni 2.907849555095885 6.4676554195741085 7.977182318270475 0.1847777280024495 -1.2711901697149526 1.7602474153326266
Ni 1.3493863001707653 2.2944786610065417 11.835437377283448 -1.4741129440575451 2.0920040553221972 1.0047506057656375
Ni 1.9633876143081437 1.0821530959851373 7.204244693316904 0.07849500818310998 1.3154920769561216 -0.04624154746604294
Ni 7.660882965493262 0.5197201417770609 1.0712505375073473 0.9596773675760826 0.18889920636999083 0.14859047944861506
Ni 6.259524094891807 4.254352610635194 1.9480294694320324 -0.9605291740534165 -0.3164557479664421 -1.3157779836276564
Ni 5.652058753311267 3.5298145577812416 5.165046286967576 -1.6063144406251755 0.48027718543219866 0.6368028605674904
P 8.219435128052696 5.121272885514571 1.952425722178774 1.829393892421301 0.3493851517046112 -0.9357972185243755
Ni 6.365712789453547 5.844828224764233 5.528068109098971 0.30666241602510413 -2.1882314477880636 -1.1002843145985888
P 5.724900081508543 7.332295057220887 4.320492017468869 0.6066777590473358 1.750001312124586 -1.1523810352938282
Ni 7.893489421452235 2.9793836887817933 5.5511488995635165 1.0513726764995506 0.5842538828261808 0.7057966141283845
P 1.43356591834962 6.607766275249994 4.965204058828635 0.11019902415461022 0.34582365960559797 -2.0474740912306224
P 8.34357225221733 2.769055164814427 11.612338211901832 -0.5750773585332354 -0.7285495915541841 0.7525909487741038
P 4.929458315016717 7.3263524211798465 8.41565985762188 0.20498942706363407 0.6020785697124277 -0.09291092649812385
Ni 1.7077615557128165 2.396606708788289 9.65124235988596 -1.325846423607252 0.4457572972784581 -1.7223539827209626
Ni 0.7346006693265659 9.095858058067902 0.7589645500065253 1.5162862349914856 0.7550561224851448 -0.6354064944405959
Ni 7.824643843853537 7.827267503759331 13.224618942986451 0.5606886939117312 -0.7609002399707476 0.8870627294331497
Ni 5.259798420187309 3.7515926223268994 13.151034089967816 -0.7399280085944547 0.9369264470328122 -0.6475626701871556
Ni 1.3787749994688896 7.459241258952502 12.311230220948717 -0.12946635702465445 0.7734513371628808 0.05343343722879184
Ni 6.5547646367997165 7.857295893988551 6.550360967346528 0.24601986264238276 1.6208005500564924 0.2015608609980593
Ni 5.596118244931177 0.9720799014215309 5.072018537996882 0.2450009344595651 -0.0101784831948986 0.14651122832208316
Ni 8.25819669012382 7.548714551358244 4.50673849560128 -0.53276162848416 0.41894326240940755 0.019644770814121006
Ni 4.326396642889366 7.896215061071682 2.7767889354625326 0.41640584069953446 -0.45817418288557227 0.85829079950678
Ni 0.8048025771168461 6.854547911406706 6.868740706282257 0.44267120215396666 1.8089004004536393 0.10386099775172436
Ni 6.687282639249998 2.4482084438966054 3.48304851527668 0.6466216464301251 -1.5049127030472211 0.28755551999232415
Ni 5.697309933523931 1.6748221082029626 1.5060095256636503 -1.17136760369866 0.8655325686708577 0.5404672246585337
Ni 1.1869789707371545 5.764125187732632 0.8861397425497061 -0.2206163349676136 -0.4261960873170789 -0.4635909830257693
Ni 7.027245921036189 6.947618306439473 2.375068593264819 -0.8247564151947603 -0.8027202613303273 -0.21410244510849577
Ni 6.716643525898945 9.1757637991564 3.1081951921849487 -0.3883337650536667 0.013117511218564505 0.7427695918083079
Ni 2.042727831530021 4.921012540549654 10.327405872024553 1.0848535818658156 -0.23984150174581276 0.3996700160020923
Ni 6.863577751506508 6.734907165525855 10.278734663051297 -0.4991336560170694 -0.9594485393947282 0.13058761511329123
Ni 2.7457945192185296 8.3587208751363 6.946626321952124 0.02044078435285512 1.0074674904761682 -0.8581223922497156
Ni 3.325521378685509 0.5026626440361714 4.686933868360856 -0.43454394506114197 -0.3910917874147781 0.37467092285459347
Ni 2.980190255607956 3.999514577099911 4.386599903300143 -0.07903648250887679 -0.4111528198307113 -1.4509573318766882
Ni 7.4817602339036515 4.657598940184476 3.985205896186117 -0.4504588165191855 0.11769096165628119 -2.143236114024296
Ni 3.3988818763341078 2.5617118651921698 5.9205481621514355 0.9087782667333704 -1.3128875494537389 1.9701144822035361
Ni 5.587922784306716 3.1339663929133166 7.689521650351885 0.7129185698851463 0.22004040785948556 -0.3842927622150737
Ni 6.341775369394318 5.675310128024104 7.659344925993716 -0.5922497565474638 0.6222061937002381 1.5263395054624294
Ni 3.3149340302317363 0.3011127192376991 1.5278146426192305 -0.299322173609949 0.6819928268405674 -1.2623818273947034
P 0.08194997080308263 0.6766075874371374 2.772270307059408 0.1159842633778196 0.3740983381805751 0.5655557921960455
Ni 0.4708848381736537 3.805484265550873 3.753951134977197 0.30225503098602785 1.1139181033319394 0.40161891219834706
P 8.894225622410202 6.479753921966554 11.859128191853298 -0.7994516178813844 -2.2195729382138225 -0.2629971139266697
Ni 2.7399909464233794 3.98933514750075 12.817525196967543 0.293627694328333 0.12772057797814135 -0.08752780780933958
P 4.905641416437259 5.201577274574619 11.268787098371675 0.2783288591877336 -0.049927480958062403 1.0008906085895988
P 5.937416533877915 1.2701387917794817 9.15067215415628 -1.50653789735547 0.71011838143219 -1.058683094118035
P 1.2200852941420766 7.6015400430303925 9.063234747670373 0.30345779304487736 -0.24401105974247006 0.19034956566327219
Ni 0.24215175715687504 4.333544493728121 12.768310714247006 1.5415874327604353 -0.5819745998737009 -0.5684333708541565
