# total energy = -340857.74213425885 ev
CRYSTAL
PRIMVEC
9.40381168773531 0.00000000000000 0.00000000000000

0.00000000000000 9.40381168773531 0.00000000000000

0.00000000000000 0.00000000000000 13.76342895685462

PRIMCOORD
 96 1
Ni 1.1379082522929092 9.399636552447346 11.19185639062174 -1.8003411980297188 0.22915548278687634 -0.5474503408445862
Ni 2.4361797079770082 3.6972590878145026 10.747847891315004 -1.3030811048862783 -0.07129360533866431 0.5502934667203361
Ni 8.20950893297967 0.3304245579380326 5.213050115283134 0.40444866833765825 2.6934053964619418 2.331392528690991
Ni 3.1197521947951055 1.2039700305033771 10.827607261858764 -0.6819439758805029 1.6192195787226178 0.3497075680410364
Ni 8.087193552312971 7.58147535891759 1.6670814331918555 0.45532565769318356 -1.0140078626978473 0.6170984401600276
Ni 8.052512294228958 5.809618534912156 13.481072386705366 -0.5715639460633383 -0.12006794652889001 0.7226478813577684
Ni 4.5130491691719845 8.934326538549527 11.090296163077934 0.3208587621301442 -2.063393076453724 0.24521922111795832
Ni 6.047760666072568 3.317495550269799 9.02792832012899 3.25949829210838 -1.8553651196740821 -1.3925418680522728
Ni 1.542648314097684 0.9329399481777738 0.6902604778021947 -0.6836164784869194 -1.5079185797530805 -1.1379057244957886
Ni 4.262211892020949 0.4874710368915243 8.748971764799313 0.04162950261532831 -0.6145633324429997 1.7599738499562654
Ni 8.687711572916854 0.9922996296863771 7.6538019565791355 -2.435300577630567 1.460983862874755 0.3845131057559959
Ni 2.063854585601626 2.87945659072221 7.5606233465326955 0.46087306987397403 0.8651569304989939 -0.3322063259324795
Ni 2.334750193417847 2.2584570679201206 5.236984697190789 -3.663026248403982 -0.24237275280809872 -0.4713896531345817
Ni 9.463714126358537 8.4292478043596 13.752432542826725 0.06172678758583562 -0.5306659222973957 -0.8496377518174724
Ni 1.7762201927014714 1.2175867500548019 3.017728359327346 0.49211480149707504 1.0982845105597407 -0.8330939885261781
Ni 0.5435149343436135 3.5428296896974483 9.220410242876458 1.0846458367303837 0.8448292746852353 0.9131619976233628
Ni 3.447343384224268 4.206889266937364 3.3652133127144084 -0.28124243329010273 0.14080954995161557 0.42370031747841863
Ni 6.7146507906778 8.069570808915618 9.707084776904717 -0.9903328876784107 1.20220361524291 0.7508562254711842
Ni 0.08444528998607574 5.443180198751685 3.6595855368014383 2.4702979196413586 -0.8843705273129673 -0.1524049680986988
Ni 2.922187511745465 2.943806875176905 13.015882741599164 1.1124865130917356 -0.7465467994625531 -0.6261461521845926
Ni 8.41412647491299 2.84829235826819 4.851801742879867 -0.5462568347571173 0.951864042179251 -1.1126276666552903
Ni 0.191865973071627 4.924240245902365 11.51861346194026 0.1826470548126919 -2.053235162084115 -1.572974431712149
Ni 7.202746240675827 8.01140823265487 4.642955306759892 -1.4253154629388678 -1.420723472692811 -0.11073098539868026
Ni 5.333823270807268 4.988251993130644 12.595120465173036 0.11751792641352665 1.98793736931757 1.2538853598879178
P 7.676040090829971 6.2083965800072605 3.4610757706613846 -1.480067104758451 -0.2634079762118431 -0.30903323025012586
P 3.873909693321071 8.327517367821402 0.5219613975950879 0.5044656097529441 2.086201589707807 0.38431641636415753
P 0.597174965493019 7.4571945815753065 6.415781663766536 -0.25553165878755996 -0.9263311880154692 -2.2616590687505953
P 6.004888687871639 6.905933727415044 0.3331977420510955 1.9435886679988654 -0.3754952185281017 0.08512665456701468
P 0.33970800099132425 2.2039243630315077 6.335196638542795 0.20140942302185957 0.1272688351527034 0.006731662296878729
P 3.4562111787940144 2.664447836700268 9.193943214438967 0.8129784487232257 -0.4302548307674848 -0.237452689798662
P 0.7558332577967275 6.172737325491375 12.984047076979417 0.9912124620698864 2.027727247620998 1.8621492324754512
P 5.237001624052111 6.630825211892304 10.989327435299174 -0.005502674985784071 -0.2577150395921239 -0.5199781035662464
Ni 5.76705688250211 4.992342651283179 1.7868098252200204 1.8502159713729747 -1.5913555053224981 0.21027278694976043
Ni 4.187837144139584 6.3414229023653075 1.2241948086382175 -3.212987293031034 -0.029144225664124 -1.043835744692557
Ni 7.627572844581323 6.386326103924736 11.250006741927088 0.5270977453301632 -0.6535782802536163 -0.5447663662545199
Ni 1.7878433041417758 0.16254676850157757 6.7861686605206835 -0.47945906040627745 0.5711667106249196 -0.8498470396148008
Ni 4.032721267757852 1.6846176615202373 3.830169743286857 2.0547875941729 0.0704950206967689 -0.8644282798630853
Ni 7.16075822078832 0.20913419276242876 0.9865858736094119 0.08491788099031826 -0.8435519506347086 -2.130217590277441
Ni 6.997931218693764 3.5794011139622897 13.96960511395418 0.1755562094041815 -0.6393225416655506 0.8389748727869875
Ni 3.9603025127402267 8.169918885112613 6.1788441609034574 0.0971326778889553 -0.5854139645725531 2.1009921177534205
Ni 8.313298804311904 6.224486502073896 7.972136033628171 -0.10793208249730445 -2.1546986061379405 0.7740159514170993
Ni 6.358274533191381 3.340045891073885 6.460471398797085 -1.0039378800563548 -0.7083600039801865 -0.08166954925634967
Ni 3.2021013751209515 6.02488119185391 9.805204149694472 0.8118168243149568 -1.0959404358075964 -0.6255743388415227
Ni 1.0047314689453433 1.0404095310849186 8.921551460158222 2.9576888333002027 -0.7318825125821589 0.3417741721265727
Ni 1.409020147781563 7.825128123819117 8.299334143722216 0.3025306532449177 -0.9268371811176103 0.9134849281804202
Ni 0.2596627545674803 3.3188496991754657 13.620977597427963 -1.378286386574523 0.4705327044509251 -0.27025739503350876
Ni 5.238318157710398 0.6838245089755407 13.379829067620735 -0.217785807497354 -0.1965685499897905 -1.239371225432143
Ni 8.530028455901464 3.785683130592158 7.51714482246777 -0.8127017980230714 0.030500739692018435 -1.2471544689219878
Ni 2.3317221660037872 8.517342713722684 12.90570580126187 0.678580972945541 -0.5235190268399693 0.01939974468285046
Ni 6.380721432065172 5.441967107023693 9.402762379504592 -1.9108608387485413 3.3305964936067864 -1.1575584657297096
Ni 8.9873640373548 1.8448680191692886 10.375781373765358 -1.9762545336630029 0.022010957053452417 1.4438163499565329
Ni 1.9489494086687136 3.0466751729483375 1.3152801301679817 0.17694203400811462 1.8830785264289505 2.6766289483345513
Ni 4.077539835010676 1.4435509448760597 6.851875915024599 0.07117996257893548 0.36119628540692633 -1.7892021506937639
Ni 8.285124984024563 4.0386362654082975 2.1191687472545504 -0.04490688781501943 -0.6386501981888744 0.667169902895122
Ni 8.881975518008932 7.9699186147951435 9.575520747288554 2.3113983449572517 0.4895748086840408 1.5818370243091016
Ni 1.608221094092217 7.045467487569766 11.053643866031226 -1.338464883702211 -0.27212427303891845 0.7557546912140661
P 4.280079134526272 6.445748790972701 3.4517716392220343 -1.6238601628184228 -0.8993286912846963 1.1634573477126477
P 0.9855100775343546 2.040382671236739 12.050487417601063 1.6728710454994868 0.38103028941371797 -0.46681180395591215
P 6.16680352021724 6.874120631943725 7.125603010587321 0.7275520035276051 -0.19077405479520046 -1.1670000707585837
P 2.9223755879823634 0.14708596144736683 4.941373991083785 0.11641055228196082 -0.5024449797784895 -0.8776465783255725
P 5.496292928051717 2.8944650744266807 12.560697811914755 -0.745859029366909 -2.3192808330291217 -1.058663039513377
P 4.001867361094713 3.8001367893977798 1.2653590546081113 0.17940257973346524 -0.07802963851091722 -0.5933231921173008
P 0.6608651023562016 8.524743513644625 2.228381796877741 0.5569958184411762 0.16065615236389752 -1.4011609771798514
P 8.236770583518055 1.9521749161315165 1.212784223345608 0.28431387312657486 1.2700637694199934 -0.14490685994944075
Ni 4.8727073569922785 8.626473950182824 4.1872616308546755 -0.1407280459814028 0.14397226395031335 0.5154827867990541
Ni 8.327865308859664 0.4463096120651842 2.941437114591989 -0.1147269939319508 0.4004521455837555 -0.677317275741769
Ni 0.7585857535237317 9.16288618543998 4.273985464450772 1.0416757609267608 -2.1337520857932604 2.0000755473420004
Ni 8.50006791136359 1.1741787545787135 12.759469944405282 -0.4530468889613358 0.5344600992325054 0.6659632841815305
Ni 4.791994439927446 4.099732830964655 10.460164598593257 -2.3013381325077717 0.4901543353365946 2.921674619989123
Ni 6.142767377141658 4.547156794733461 4.34778469904723 0.7980768490210448 0.23874544046815657 -0.9045151205816423
Ni 6.256271386109679 -0.012899208707658224 6.898244230469464 -0.8164311831585164 -0.5692368405920584 -0.273035214888962
Ni 8.102512361808325 5.929310252074126 5.607055725866948 -0.554729905225135 -0.09119188692448811 0.6307332573346428
Ni 0.5175397252656129 5.536212109333345 1.3657287595723515 0.6442600881764841 0.5242160529069939 -1.0158400308105795
Ni 5.431641721617985 0.21037831706950988 2.284688060680303 -0.7535867370284699 0.15040156451542486 -0.42863966376156504
Ni 5.969878296373052 7.185678322177322 2.6772351400469723 1.5252462723982507 1.3158839130779014 -0.9572643872592159
Ni 2.4536707980085346 6.29793967639446 4.554001829375368 -1.937211046607296 0.8916264375444322 -0.09519715142913929
Ni 3.01823804592934 8.075890170475395 2.6368664565591575 -1.0389323938536688 1.1220736425595386 0.011888266797153718
Ni 0.882989720801184 4.84131743305398 5.6764097786043175 0.7379073786200002 -0.8543721811786641 1.950145238170461
Ni 4.411807730849722 5.733475870403948 5.5055368750952605 1.060132939190684 -0.6946061447292037 1.8281661906617868
Ni 6.004860476436105 1.315884795269609 10.612594746312084 0.6610560766879002 0.3958647833233892 0.7397778561698356
Ni 4.554416537477729 4.613716974971709 8.044958212173944 -2.3013802985996175 0.7701333285332415 -1.5649299641411176
Ni 6.406826413746632 8.033036999898155 12.284315079887033 0.13994257396562995 1.3020300379139444 0.9007201723155842
Ni 4.843931692746864 7.556329566044311 8.60083539756887 -1.6034510030344515 -0.7947452135446507 0.15988816384962143
Ni 8.263392774850985 8.30045319733176 7.422163501690661 -0.4403276416224545 -0.06079399135892111 -2.074057755256421
Ni 3.8999958673788413 1.5982906687839957 1.2097815862235295 -0.7827381617814455 0.534499437110873 1.0036074933001295
Ni 7.39947398447127 3.689547962101679 11.760134382696547 0.48620769198402064 0.08651325050189616 -2.0659654651665904
Ni 2.7371581098850855 5.22243511950435 12.581261127276013 -0.3298283126186062 1.0915032259718491 -0.018216523008026692
Ni 6.107380833169275 2.7707297181714012 2.470811125858246 -0.5161533305035175 -0.5843292161488065 -3.6489556292435283
P 8.232096889031135 8.989978297047683 11.364958937919226 -0.2542255383816267 -0.4970140385709053 -0.4373364202046145
P 4.007537859637192 3.238964317552985 5.6678212772463645 2.862233028893038 3.125051965370631 0.2851649082729605
P 6.215110901664524 2.2917277542274 4.314972918757982 0.9739971266328645 -0.9651394191319186 4.226321269590309
P 0.9339104215601681 3.2751313779084956 3.3133531711521176 -0.12662451670048516 0.7452959577745875 0.3852155311396591
P 6.306497145173325 1.4459113016491312 8.423246291640181 0.7169531449658362 -1.8442890643655785 -0.9185980810372696
P 2.187524115173991 5.236192896233448 7.845787358061193 0.28235752073115244 -0.4680873282342261 -0.0839953691760489
P 2.8747828962352915 8.236789391141745 9.759151802327596 0.5526838213293837 1.50008391420001 0.5251056546007989
P 8.21453056850485 4.778199047950968 9.727619880830439 2.404032620755221 -1.2228207772726294 0.30620913053776944
