# total energy = -340865.6722100331 ev
CRYSTAL
PRIMVEC
9.32000870736922 0.00000000000000 0.00000000000000
0.00000000000000 9.32000870736922 0.00000000000000
0.00000000000000 0.00000000000000 13.64077482415233
PRIMCOORD
 96 1
Ni 1.3239538353536884 0.405795042638884 1.101864552126814 -1.0271189461585084 -0.0634712810807681 -0.13287898225062922
Ni 2.231219401904251 5.095351274365917 1.8045922758273847 -0.2927391210757926 0.3169185465354735 1.2353132533126854
Ni 4.011974823489965 6.848817710488848 10.681190374395786 -0.7893438400234212 -1.2395506884328007 -0.5216176960521984
Ni 3.5824529027120255 6.335182711226752 3.9965427530906217 -1.6025135788218468 0.08990787800574193 1.514044747255476
Ni 1.549917446195617 2.2801587675685515 4.679481302326327 -0.36774745626188277 -0.3836780114492102 -0.11829799911266076
Ni 9.231552493768937 4.103832829200752 2.588651055416266 1.001452908850972 1.80024349610959 0.9395965376658075
Ni 3.0472327633092857 1.0397867702033314 13.186196215764449 3.2558401265305026 -0.14537557205574317 2.328436274276145
Ni 8.064277324608842 6.503474108255941 6.6004432067357826 -0.6486463901696378 0.07548141816776678 0.41115693359576927
Ni 2.657395439560216 0.34465578559111937 6.555388420696102 -0.46443996128962595 1.8444389596798814 -1.5926603401768507
Ni 4.331427441564535 8.888697333857944 4.434070561338687 0.2777794144421668 -1.180690937982115 1.020387540971946
Ni 5.537129006579497 7.606068417063676 8.8064435971087 0.9939470873922301 0.8094462672002511 0.7037793265880395
Ni 1.3050901377523658 2.7173324154861573 7.108085440406155 1.1048588213431487 0.258763021240664 0.6099505162613367
Ni 1.6265372376879452 5.465551339791871 9.606187951333464 1.6800289967005066 0.5134657563690254 -0.5269275383008861
Ni 1.897553770567815 0.2997016556453591 11.528528285029104 -2.2857186808029604 -1.296032682679929 -0.411881984687252
Ni 0.25538687829616535 3.14606213552491 0.54949932472635 -1.105007431105871 -0.222740580399468 -1.8823105379146743
Ni 8.060064680678114 7.100243585089083 4.32074298359509 -0.052694759290554415 1.4358706127468948 0.3986392607447328
Ni 5.075061615434059 0.08168894422224873 6.797975199048762 -0.36868693735701663 -0.28495176382088994 1.190402508842924
Ni 7.452390793670293 5.715607173113749 2.677438118261621 -0.15585744542367352 0.797465183578975 -1.1272405314724587
Ni 5.320028724007756 1.6541524234550986 3.919171768897371 -0.3590008204175043 0.028658030056324835 -0.32156504416854936
Ni 5.165437739762135 3.4897001761663926 12.37541603924239 -0.36431477643124993 0.28106348451007723 0.7730155351770429
Ni 6.440228529242812 5.205979777591064 8.1140098230132 1.3626018859597306 0.4702586248539321 1.1699704662408172
Ni 2.2682943964981543 1.1686079304036672 9.464760547370505 -0.3245225841349766 -0.050449672010119566 -2.057588811067121
Ni 0.6404840456222939 7.211766809149076 7.925890107482619 0.9906522186910424 -0.12232794620766031 0.18773218264508312
Ni 3.326413623807119 7.310475021251648 2.047739186702692 1.487062819349994 -0.02836261030309309 -2.6670590452579295
P 7.779616298997581 4.519337456899447 0.6798312583363568 0.21557543010959646 -1.0488100579786968 0.6092131238746797
P 6.219856923618666 3.2198300043561683 4.971544278844194 1.0522602213108265 1.209127081835621 1.5279919534641877
P 5.5710351982166575 6.835024097618316 3.270866371977138 0.591371981928201 1.5860577472586683 -1.746585601574818
P 8.792281843894663 7.873422186525897 1.457667068118715 -1.0895838974619492 0.9590045098787742 1.4189445264155176
P 9.264340284362541 1.0402527706381468 5.9434217376827645 0.7124439442415731 0.7180967716519762 -1.7856848815691244
P 9.04867528313003 6.134234003725706 12.900462457152242 1.7698152615267198 -2.411974244199801 -0.6426662613268028
P 5.459241693904472 5.3004660257542096 11.271358489069334 -0.313854305787853 0.10179125970688922 0.527751062643446
P 3.340086076564599 3.7815189684564166 0.5650823792665729 0.22306042563273198 0.24615535977898248 -1.3112569558288514
Ni 4.472625573313564 3.9737907478612002 2.801624438137284 -2.6105690805910005 0.02696932949999226 0.2714709557256357
Ni 5.2264837967229365 7.823122099591936 12.818917973064787 1.3558213727027875 -0.5610373355004016 -0.9270097021397325
Ni 3.394440367281453 4.073813081189952 4.846035449734525 -0.32846382817091174 -1.02885752611617 1.0970984606714396
Ni 8.40744936481551 4.901429853421887 4.740673683423661 0.43037952927080714 -0.8278988174784839 -0.18209169652985413
Ni 2.6476560304725765 5.454013169025845 6.814194810182942 -1.100816532952975 -0.09391468517228987 0.40737689772804686
Ni 8.242774131160488 3.2295041733829337 6.512160356360898 -1.5213513082192185 -1.2505210714013753 0.7240501610219336
Ni 3.937750274232587 5.892994898630533 13.555656272499915 0.3736900469985629 0.1547834956332044 -0.35779574436580963
Ni 6.440191249208026 1.8675713025918 10.428945271031147 0.006148793210215217 -0.5251151676824957 -1.0274542180107402
Ni 1.6476843374198626 2.5505322198483764 12.397077603454344 -0.29937436700412307 0.721409380964977 -0.12321034881261361
Ni 0.8669947409746958 6.888548907561199 3.1307624092490545 -0.21679464722867825 -0.43356204076384686 -0.19532259339783134
Ni 8.182287274721464 2.474946949321338 4.062413778553501 0.4659718245531201 -1.292901079029483 4.5617587008655756
Ni 9.161689708581433 0.11255028901832538 3.2884905084218516 0.24902188269350015 -0.17468949052851207 -0.38941877058772933
Ni 5.82201371239947 2.3479152307906928 7.828085936223588 0.5974564975593839 -1.3531158008461666 0.4333072444405634
Ni 1.3731262012353964 7.251824206525797 0.7399639544449204 0.3814612063035495 0.31096052917982575 -0.6517013749458775
Ni 4.208860007199419 9.08215275436716 11.07149369857967 0.3143893523557166 0.8872216236085172 -0.1818340719930933
Ni 8.861986188934333 6.08785764045289 10.600219070843153 0.020519974330222727 -1.0181121146742078 0.6355800439039828
Ni 3.743623813097238 2.063841365727299 10.935686259860583 0.4485034925650276 1.0250024140361378 0.26517895206933684
Ni 6.601557879775861 3.466111234156043 2.7936716747167263 1.2158109216136996 -0.18778051938451532 -0.6134641858415499
Ni 7.190629029425855 2.3914303513937436 12.695837006220504 1.3157080496216695 -0.1434205052119014 0.8346387073054788
Ni 8.023586166640772 9.122405871926503 8.182350650780599 -4.214446115419277 -0.7743982744571825 0.3420557079227335
Ni 1.4591871615370824 7.075210041730807 11.653313881463939 1.8130447616393164 0.40237918740313927 -0.6813173980400975
Ni 6.474172000914756 7.544034439181066 1.0172379411634898 1.0449482610304455 -0.3347144370663139 2.0096678190161263
Ni 0.775729487816993 8.068881408904817 5.243336236447596 -0.036454900392924316 0.9329368662574449 0.8794769466660918
Ni 9.005803243127025 8.332796095158102 10.411185062459467 0.3548659723135243 1.8092891512516263 -1.3244654840993255
P 5.391168350386656 0.6339525835279229 13.162993122114125 0.4986477175195864 1.41956930448371 0.45172919859117683
P 3.303570282492474 8.147132201919 13.356582750748569 -2.7872349781195935 -0.28744136301196305 0.9130354993478275
P 3.606824725452865 2.377422378323196 6.377430310647105 -0.5731387467496258 -0.4842593100083983 -0.06597167890511864
P 7.932399201556119 2.3885877487413705 8.633287155540039 -0.3755985768751854 0.48965759820583415 0.18460237876684985
P 7.980620926550804 6.999960291516835 8.792802832380788 -1.455281413173339 -0.28774398185404637 0.5021739855052899
P 8.795655687042727 2.0780543789891652 2.2593760801766596 0.6849958753329493 -2.8244128727214712 -3.053264451114684
P 9.050427444764937 0.8697599875548896 12.574311548827637 0.23186388285697487 2.6830551635758697 0.16067980651298133
P 1.645838975697994 4.919482710266631 3.961594584481215 -0.7613262717645727 -0.2776590868142186 -0.6707028557490449
Ni 6.96112381527933 5.9166118006669715 12.886262491902553 -0.8925561484475532 -0.8684836808793817 0.19968421280063675
Ni 3.095566328408326 7.913871024267864 7.851453062026966 0.5551420530618891 -0.7518332446724729 2.266759366091638
Ni 0.5951888033582489 0.4260353055246508 7.8165598814688675 3.242284756443571 0.5610468485820983 0.40666341660079
Ni 5.736772912863059 4.977108324035889 1.2175118800349218 -0.1747301139584604 0.39826079435939155 -1.4477869045685066
Ni 2.3353052590245915 8.874512280622168 3.254879761060365 -0.8972964913460159 1.5048905915600341 0.47703373879423644
Ni 4.895856488221496 4.2119356100692 6.803868240547435 -1.004374196262825 -0.5885499390983735 -0.7740491186478797
Ni 6.976678909793463 0.06718794269166689 11.705093985778873 0.10855223257980659 -0.5785506617938165 0.7866989462014065
Ni 8.90932251310287 1.6544879437681657 10.502946140079812 0.3672414631597417 -0.3963715477564787 -0.3641160301568826
Ni 7.066458553564975 0.932047469674039 5.924925248424076 0.6527768673982435 1.1118828180694655 -0.5959688572702639
Ni 1.9635301121289621 2.5552947442921883 2.028956573177027 -0.30086920638209474 0.7560411121062335 0.3328550152600719
Ni 5.3603936816714555 3.6900617231195696 9.849703002552276 -2.806902374641534 1.1745930526144932 -1.2091641057211433
Ni 4.969717557139718 2.4629334581118 1.046818716764694 0.4299313859897951 -1.558633846719761 -0.747280592304784
Ni 4.952615341181997 6.764089511430734 6.784062290066917 0.3248324020659115 0.7652124941928562 -3.208094483715107
Ni 1.7369886607478626 5.317540281685842 13.151466135358534 -1.1159593021316845 -2.6516892476700784 -0.8543554690081157
Ni 8.90589274990263 4.666425834144542 8.615786043210116 -0.06995251792973758 -0.3719833487201013 -1.0890123412291954
Ni 7.450843672226706 4.204926963529579 10.421606696183673 0.11209444140511016 -0.7042570375554065 0.8350747664016327
Ni 6.747835416264377 8.983192902029787 3.5674989487588036 0.1436048533085656 -0.4301525008616656 0.5218372682621722
Ni 5.000865026202771 9.293577151642852 2.0971054087652834 -0.480241961318889 -0.22998054979133292 -1.5912768295657627
Ni 5.535022684614133 5.402846321283127 4.828697437556787 1.6252318463549686 -1.2152527351173845 -0.10062140776850413
Ni 8.963443803602315 8.139806675083703 12.745599328652691 -1.195728549041528 0.9181378535713994 1.3525468157165736
Ni 7.155110476284235 0.6683806956520758 0.9547910868956335 0.7488147695611233 0.13855109293474202 0.26563866531457475
Ni 6.621101938012013 7.089730615279651 10.956720587487277 0.5185130889849456 0.4969487325506087 -1.5992829876996908
Ni 0.5138437674568938 3.870040411053927 10.907204313284675 0.37877671749285086 0.15193497044081575 -0.13313429279454492
Ni 3.218832763425664 4.490762310236574 11.314831669633252 -0.4317445279391338 -0.1589689944694617 -0.27729193328278695
P 3.562433524032361 1.40659435246383 2.607038500573207 -0.10395432879647903 -0.5659106044323027 1.0554026235945502
P 4.286644799778786 5.664384405318854 8.421091061544294 -0.7287871614862867 -0.33097168219443 1.5506932517164453
P 1.9648721933812303 8.244824533073675 9.714973888839351 -0.7435622629129324 -0.5158743658105179 0.5932391170439266
P 6.694226726243228 8.167962421355243 5.727025115767593 -0.6280348845668733 -0.4216907432475577 0.3126641421344938
P 5.213771304861176 0.37915286577962487 9.285465948074457 0.18534799868362273 0.8281595273390383 -0.9459044821617064
P 2.780596634516679 7.475290055037116 5.828662606603414 0.3990352106315708 0.32860421040351795 -1.364077956284625
P 2.317783642675537 3.3355099522947134 9.416963814772373 -0.5732739867759095 0.40196266869101094 1.0280931371463196
P 0.3029506106768912 4.814278452102734 6.532607523439723 1.7264296954522331 1.0374516955430841 0.36757339257786376
