# total energy = -340890.2100872708 ev
CRYSTAL
PRIMVEC
9.12188411180383 0.00000000000000 0.00000000000000
0.00000000000000 9.12188411180383 0.00000000000000
0.00000000000000 0.00000000000000 13.35079945180525
PRIMCOORD
 96 1
Ni 6.441710442474584 2.1393281405391766 11.495933036863585 1.2100485652086255 -0.4151933084486721 -0.44187210329143906
Ni 4.7494914569944315 0.41558665975886144 5.884044962853694 -1.69790304876745 -0.9460600339029642 0.743467646316597
Ni 2.546976024461093 1.373992932570041 4.797168809248782 0.8327695153072239 0.9898333223341728 0.34273679315015815
Ni 3.7206888670897706 4.269087424531237 5.113182805235466 -0.9961116991437167 2.032248275419803 0.681152076106827
Ni 5.295527446422835 4.63627975193603 2.2969916995916235 -0.27899040403113246 -0.3662806419083692 0.9101028990820648
Ni 7.501983532939352 6.202279225459604 2.416040498362608 -0.06300616851889149 0.46403089877666537 0.24459212905692068
Ni 5.161007019825764 4.654943127050807 11.652724543784569 -0.5173951733304186 -1.159550556459074 -0.4224142516771435
Ni 5.570862399728997 7.8581201366691165 12.54677409904454 -0.1614817335889864 1.0403866098016923 0.7117070660755485
Ni 1.9920644416863176 6.099585052907233 0.5528208469114778 -0.22198339051846933 0.7522564482528206 0.3097109730434408
Ni 2.402822888127363 1.568261700810213 0.3645752588219835 1.1480353567306227 0.1721132451609036 0.6121351826174812
Ni 0.5009830032642387 9.052612631551685 4.92903476753774 0.5028033915591729 0.6467275758803701 -0.01439457815877521
Ni 8.796023150318282 2.3132277413153726 1.5910682357378592 -0.6618955418700602 0.7581018512900041 -0.4531299355934454
Ni 6.836414372687865 0.2713897383808743 4.9793009105338175 1.3994020855072156 1.4017111932563666 -1.4768802223900372
Ni 0.7184268305545578 7.38132837035717 2.824441849921123 0.7386954217389343 0.3773908928889178 -1.1136080282906886
Ni 7.611254584014575 4.01528011798503 3.595650639139723 -0.09190279694858365 -0.9667872391479867 0.1837775688727093
Ni 7.981375036254092 4.056410693934457 12.550165615597654 -0.800512197935415 -0.794468048623864 0.016630152357513295
Ni 8.103088337405833 8.839534538049211 7.090649495604005 0.5912228579448463 0.23457742513339602 0.18964894005182176
Ni 6.874799261486975 0.7792032085492893 0.5950451367789208 0.35095429596394395 -0.5471826890054963 -1.8534866717044465
Ni 2.1589401916128663 6.5476702495778305 9.295000251242472 -0.6279618652370927 -0.3916823698109254 0.09199432822112544
Ni 0.30323332400559216 4.7915342213658905 1.6363675127759723 -1.1076163294836279 0.4194705956677872 0.9594256565765927
Ni 6.630615542793207 1.6530222489854338 6.965499068478047 -1.0427466253934363 1.0081766007280508 0.8481652810370037
Ni 3.445864739299945 4.146845054094718 0.5738449656624731 0.6863374769625082 -0.6805926040589311 -0.5831061423749829
Ni 6.1342208472917905 5.5193693633052865 4.75863888249057 -0.2764483543355691 0.5434980410650576 0.04675062589197755
Ni 5.342176762325556 2.9814148823380915 8.992978313461338 -0.03154974978182308 0.05954417811222003 1.1384644252127363
P 0.008249832088858133 5.961388506969373 12.912145698358959 0.536770749643553 -0.6878659977918927 -0.5866066993290737
P 4.128975282907109 6.005018479195167 12.973332561143604 -0.8880916849182963 0.9346535918382355 -0.6006858031299589
P 2.162315288774385 8.489007893114945 1.2982092306560378 1.6193267937244433 -0.45293478886350386 1.4626825907334164
P 6.538931484494763 7.573070376668312 6.113358185891495 -0.378504951888703 -0.021664886567943336 -1.968222407387146
P 4.931774069369102 1.118561930632618 12.569363533127742 -0.9881657048237628 -0.6258180794212126 1.082090931519014
P 4.103534347816634 6.196714876085208 8.337133993977135 -0.43560349667390785 0.34035595162280735 -0.12778922643254767
P 4.714974247104737 0.970048533641575 3.690988924256828 -0.8520756718350034 -0.6624269888934978 -0.10312052004127403
P 0.1680798386436311 5.562379047404099 3.8206118112160086 -0.06825404718139214 0.054856799938879715 0.23055519134788036
Ni 1.3162057960343088 1.0057789541325715 2.7573941765249206 0.6046663850442618 0.07523587781586398 -0.20549027795945257
Ni 1.9552576388573233 6.401118057694156 4.845205563741414 0.1269983551001361 0.26885434403839503 0.310389230057388
Ni 6.030951996033538 5.605562047303098 9.123882825153474 0.4565888406763233 0.6717184414977528 1.6555304973385103
Ni 8.730400315237294 2.4378874110702764 10.209823985625802 0.03451860260215991 -0.026547925691857502 0.8343787687758727
Ni 2.4061888634046618 5.352913220052873 7.031919156239891 0.07451519759975554 -0.07843278748660686 0.7661674019069579
Ni 0.8113377822806354 0.18288192016794563 9.140210997907849 0.046652666861532556 -0.37284081162439014 -0.34846752498634825
Ni 1.4245555368032792 1.1139462572171357 11.52196689442838 0.12047803748311509 0.45259103237083986 -0.38025998690659674
Ni 4.109080453422589 7.033264634162388 1.618984850205729 -0.016279453886313897 0.3031556884234263 -0.1545173864560113
Ni 5.560244526496545 7.980681773053346 7.887865688923161 -0.03637699596713735 -0.09886997229503618 1.3895437046558972
Ni 5.282629102135301 2.683430290512872 4.930917524440813 1.5756064700183572 -0.41445514473106687 0.8172374811098957
Ni 1.1523767554373472 7.653972367818337 7.178805209086029 -0.5291191466355661 0.20024342773821643 0.0621870150517058
Ni 5.202912955933918 4.626829479883778 7.184319388097212 -0.8542297420635286 -0.3178256317307752 -0.8416848155189827
Ni 8.143489162617634 7.355933044687796 9.00062883775692 -0.018718402345109696 -0.3843205301292155 0.38469925362487295
Ni 4.626966308147082 0.47057885096948743 10.512940549513376 -1.4633063403603446 -0.3744775758968648 0.6382707033622685
Ni 8.133245286638212 7.384584883023823 4.579471393577138 -0.5214595732077794 -1.3673841378397225 0.2808125448415357
Ni 7.321808075819576 5.823794005390052 7.005979254082564 0.31652156820737104 1.2610618230316992 0.38400685554353864
Ni 2.576768098324661 5.086143716029591 2.778888984501685 -0.4080968066132069 0.82846291751207 0.2980700463704028
Ni 2.4357072807416196 5.627819444800681 11.54784111901932 0.04193212145741165 -1.309252780914629 0.1715584010986981
Ni 0.8305192804191259 3.4263621508368995 3.8392095087643985 1.0770479697784676 -0.6701207579933297 0.5660694986076703
Ni 3.7420796855864227 3.013359720877655 3.262855112752915 -0.2898201476567847 -1.394386120349863 -2.177716921409985
Ni 1.1176314984421454 3.381975062220818 8.351125139994263 -0.32231734895354164 0.5062525264500378 -0.5960596172118574
Ni 3.606747411293743 2.8494485833227103 7.268269000765247 -0.245320522582513 -0.041483978176399525 -0.9951948437564022
Ni 4.267509338561121 6.735234432916067 5.9617597676571386 0.06216876021926067 0.9132033923842595 0.08945562095967174
Ni 0.7365766435877301 7.260135016605987 11.141389114118688 -0.8097036346266958 0.12313707237251696 0.49957125777512024
P 0.42923938387141564 5.825873794992286 8.050211511145898 -0.9706559780747736 -1.0748098244765683 0.007814868058728476
P 8.571798114298575 1.7284146220663854 8.13226559627295 0.10326244493577698 -0.7641557707935678 -0.3940680964342826
P 1.6490542293495944 3.43916927628223 10.820248619200184 -0.016102819099133556 -0.16474266372844532 -0.2666545081735988
P 4.266259640422938 6.124651990744674 3.6914961010194776 -0.8315595541595227 -0.5323577081775218 0.7044185028339353
P 6.951760598653822 3.900189304777243 10.391421544495527 -0.0474651354604989 1.3354710911812095 -0.07776275800277575
P 6.419681092082509 7.828382794110871 10.40461178907811 0.2981453796930285 0.3307945331866174 -0.37642595787248717
P 2.6350751822609513 8.566133424197757 5.976072003998822 -0.17047622377811286 0.016960024893106274 -1.0060659821429514
P 7.22782530269761 4.0068241313127935 1.3571083248782272 -0.21014757422580582 0.03202643230792549 0.29460188531614423
Ni 5.547537741777637 2.9402204531991227 0.2999713382084055 -0.04458035771353613 0.6093043980369055 0.20331486757468856
Ni 1.4664158634903315 1.2050100273885982 6.97921017264961 -0.26553504985717497 0.35955772136223885 0.3408825135502387
Ni 6.506101823185829 0.7294196132284665 9.301555237243193 2.155293559409462 -0.13970628958510778 -0.7131630817957847
Ni 2.7497919982157053 1.7908630414387017 9.15775420564037 0.41570752908092923 -0.7279908908372366 1.4308520764863808
Ni 6.28320858226229 1.9106881125568358 2.553260090500472 0.5162420335625819 1.0642675301843478 0.9741753040819416
Ni 4.303841803410659 7.100045948539356 10.669852465306068 -0.2894771624950692 -0.7800230768431277 -1.0027739416552406
Ni 8.045474516670286 7.7755123531698915 13.103983484454414 -1.022963015008606 -0.33979288003048574 0.17119176178789872
Ni 7.649584741508363 3.8597246263759 8.279778322565024 0.3024020980868534 -0.9941751442426363 -0.4904926925126198
Ni 2.8031094114834807 8.0225877091615 12.563021999217776 0.7184739524857368 0.4140345122538805 0.39643171157045276
Ni -0.04863697447432848 4.941178732000253 10.024194553930696 0.42631075851807226 0.5379161761019058 0.9259972017148181
Ni 8.486380790459492 2.343412056200414 5.77884044776389 1.2308760434769384 -0.1832908590442779 -0.04581808677537915
Ni 3.5965400228512046 2.6310706750882304 11.635341881214327 -0.16679748937494498 0.25297623935555785 -0.08202436149260713
Ni 1.070708526012815 3.623340118690507 13.189655308863246 1.4126116422189543 -0.570289964446921 -1.963857445550231
Ni 3.214488146051508 8.481746873275569 8.456289518793497 0.7780029610893053 0.862443902443205 -1.2635933312043013
Ni 5.607222230231197 7.842193326820437 3.6145156078957683 -0.16457837023643915 0.3101822562529045 0.0786821844932516
Ni 2.9116963212421796 8.329320187954007 3.632298721183284 0.9287953332852456 -0.0010112148733337422 -0.4939071175108074
Ni 3.2397648872260167 4.301825866997968 9.569826203409141 0.6685104760834164 -0.0039448435803609485 -0.34669217825348037
Ni 7.09699923920977 6.017323901008379 11.506026401753369 0.8693154327520577 0.874168904189617 -0.9274321343891317
Ni 0.4837617980446951 0.20913835170771702 0.42891738135843827 -0.9447120045155019 -0.09584969741147364 0.2500924900498596
Ni 4.584075208543134 0.47891260439317257 1.2707642176023586 -0.7938635822706457 -0.7551134580856415 0.6461755600316419
Ni 6.150092925835148 5.777883562109178 0.41445919486922983 0.3961776865781177 0.29875524536288545 -0.2202018731380143
Ni 8.32770561444701 -0.04465435982373642 10.854774038785678 -1.0401431263323182 -0.11861758723560861 0.3265804951052698
Ni 0.018832129972852295 4.6953804397994885 6.060141113350143 0.9218456414402897 0.06389114222700609 -0.5125828395434399
Ni 8.14995657852984 9.13693532928433 2.4753181507799407 -0.5466430144519424 -1.2042664113092099 0.48475347603599744
P 8.27906772778426 1.7344989188413396 3.735220028652741 0.4689507046757859 -0.2847576455322128 -0.20626083757688993
P 1.9978933257031024 3.153599568880867 1.8866282307373174 -0.8282924533724767 -0.8897009383869452 -0.18944376601955118
P 4.716871599022565 1.0973079403992705 8.036353544638386 -0.3269116531924434 -0.3890624156895751 0.7193203596464322
P 8.452629818844304 1.3929390860956474 12.433479384839735 -0.4049212370987027 1.233744880384301 -0.21313596743016844
P 6.325333443591732 7.888523376775446 1.5259699089995398 0.5954782907870906 0.1029567407699001 -0.9586982914922653
P 1.8931649729695994 3.4251215745829358 6.074093035265123 -0.7667199319763183 -1.1604506996758401 -0.8489198998148413
P 6.840072248260213 3.8265939428876945 6.018874621325834 0.8519216627556425 -0.046478603177513504 -0.19237713761626224
P 2.512650374140026 8.57873074630602 10.461245919448395 -0.6568908895666171 0.2561934607412749 0.32803599660487376
