# total energy = -340894.0763647736 ev
CRYSTAL
PRIMVEC
9.08675859619292 0.00000000000000 0.00000000000000

0.00000000000000 9.08675859619292 0.00000000000000

0.00000000000000 0.00000000000000 13.29938970916603

PRIMCOORD
 96 1
Ni 6.3517532295156585 2.036342578860533 11.30900252312716 0.3963412087391755 -0.5247788673889994 0.9360553572817686
Ni 4.864269037305433 0.14911552426424418 5.994154753032117 -0.4916396616328695 -0.21487968959415252 0.1080179573428914
Ni 3.069370718431081 1.6959616923744256 4.944500571442198 -0.9492805977227909 -1.0288932644501116 -0.5370599987491976
Ni 3.457965945494761 4.288986356949965 4.657991441373015 0.4229616395401813 0.38510883035846577 0.42101814266056525
Ni 5.003968862416552 4.834455382681419 2.517374674072248 -0.6489526085561469 -0.49858035461676065 0.014890801068903389
Ni 7.135159026453999 6.141958149369598 2.565519046609404 1.1431466611797538 -0.14777029754016485 -0.05100708717548635
Ni 5.190838050878252 4.668512999035051 11.729223304458875 0.004680693305120971 -0.2791829796579127 -0.22434880542685234
Ni 5.626439079639592 7.867824363952994 12.338907543802778 -0.6864020116518565 0.6036700825692636 0.6132160743864858
Ni 1.81297188152207 6.514606115273527 0.5315608331781125 1.2782054246905212 0.9882209835417304 -0.3875351804117713
Ni 2.9752500739338146 1.7847029758423059 -0.051666400130045094 -0.5738221459698956 -0.2945196100149831 1.213613913962381
Ni 0.30025376096960554 9.241687727934428 5.214225549894187 0.7833372288180251 -0.45546475437420914 -1.1732578787428376
Ni 8.524288144708017 2.4040836951768467 1.5294831899768182 1.3517217487121171 0.2824662783948748 -0.49723746743562103
Ni 6.9456274177530934 0.8140390771786553 4.77376310533771 -0.5129384231106456 -0.7479691337313763 0.3398237332684212
Ni 0.7192069394911845 7.56046475783984 2.541207424254467 0.3992452697598479 0.06004400056677402 -0.06267603887298238
Ni 7.839991622681018 3.724189795898402 3.761293756863423 -0.28012400341494337 0.971704731054262 -0.6109005388794317
Ni 7.543908683860885 3.9761474354639748 12.747784415828601 0.4878848225761275 -0.3487022667049737 0.009479914465977223
Ni 7.98089998667205 8.963887347207413 7.139365286961605 -0.9317446457215567 -0.16095697143376797 -0.025141018042001865
Ni 6.9256547225797975 0.5550301130205088 0.10686300593562485 -0.6881940705552729 0.35090313101103443 1.596382012002812
Ni 2.057378424777812 6.453225061635853 9.276018410206596 -0.2803893412611881 0.12784296248861854 -0.07687932695655793
Ni 9.275217866783136 4.88022538522368 1.293451003350607 -0.5782907232642105 -0.6715178954511726 1.0272408164483533
Ni 6.4880455201909335 1.9838392882730447 6.955873646632715 0.23889327889993048 0.09221647153426053 1.1699121021990562
Ni 3.319992604497803 4.147660002068136 0.2410062782266941 0.3723649004292361 0.5380588723273572 0.8356146980655028
Ni 6.04662896599242 5.44784792816737 4.652951016435513 -0.4557018100856797 1.0266227232483804 0.46035242148381367
Ni 5.390783084815098 2.800793397577084 9.12614777631137 0.013563597617047608 0.017902591312033683 0.04054269730905276
P 0.21941159666193705 5.678433511751328 12.542933440979992 -0.3985315315222749 -0.7041968737414324 -0.0745265104536652
P 3.9738121385306093 6.251653497928298 12.83574605541756 -0.3306310110255596 -0.1074577139640472 0.29230126220742564
P 2.3347062940630576 8.673738061684897 1.3597025595419154 0.6746063045685091 -0.13018960834392415 -0.28221302473348814
P 6.558649633701627 7.685071477089794 5.789782650356223 -1.1755546451968142 0.9513127976614714 0.0697519718831573
P 4.868830590070216 1.0236506048031042 12.510350142366521 -0.3879650688603383 -0.3334653951505612 0.20857997262836983
P 4.0556383987833495 5.989700424017581 8.231271078204294 0.09935359679967405 1.2129001757248077 0.5359366837780319
P 4.863105932217999 1.1100202443036369 3.8336152677297815 -0.4649886347042443 0.2944928705421057 -0.7507281845337522
P 0.4118836804120141 5.639905655730049 3.3624177712378382 -1.2179624207390638 -1.1092847183249863 0.8915647310685614
Ni 1.5199420935564543 0.9928555802615676 2.869290291792651 -0.5864303216522094 0.963778791338966 -0.539294030286039
Ni 1.877824076905058 6.422711726607679 4.750528263864499 0.1826938488902273 -0.3445864447643872 1.021705488452421
Ni 5.959078047887461 5.5176160598964685 9.346984176705416 -0.14637701673706405 0.48104568816710697 -0.06492472569784302
Ni 8.558263534723007 2.30506528785046 10.305058371473432 0.7522495062742851 1.435207011020967 -0.12001806712756104
Ni 2.4201672577140316 5.161442387145035 7.006291526145466 -1.073411658577461 0.05139763774568568 0.16920352771327635
Ni 0.42469055783569126 9.432509656341706 9.38603088663679 -0.544298939699798 -1.1955776252859602 -1.3121110762990307
Ni 1.4268936865616668 1.100742663879645 11.3622273023392 0.0777918114684983 0.7366537087185571 1.4101626664578295
Ni 4.064134517976721 7.12181966498248 1.7255027442435715 0.239020291396098 0.041397074889548066 -1.3701599008126468
Ni 5.5662211310893515 7.864898427717415 8.045013428589346 0.08422085492329366 -0.11023810492266176 0.2883127098733228
Ni 5.294481618278891 2.7205754935780617 5.126701892064716 0.18623734326711153 1.4148919536126987 -0.7243383816863138
Ni 0.6729389825833664 7.476384981480196 6.950168070973337 -0.026050417230148684 -1.1903150913354403 0.6196415182968554
Ni 5.3199699758590056 4.452784265591375 7.154632858585886 -0.165973707922069 -0.46298111735591235 -0.3719054442943143
Ni 8.109686614829972 7.24676259429677 9.031854483402688 0.5254807785520305 0.29636077698877994 0.5047594868442791
Ni 4.483370294687513 0.2573051969402244 10.405628797150866 -0.03330966989572328 -0.4509069598001976 -0.4809927234419845
Ni 8.1931848386459 7.155540625759595 4.545132992182002 0.4243245813259789 -0.12179624207390637 0.10004213822626641
Ni 7.157894096209952 6.064048282028455 7.060126935528407 0.9416775885645524 -0.563503794763023 -0.33433211402623064
Ni 2.5209848432225437 5.275081388890818 2.556036105443412 -0.9627809462020709 -0.7541055856464175 -0.3983055315543979
Ni 2.310753598668696 5.244395405451228 11.734517249958403 -0.18555342982620948 -0.014480710114678287 -1.4856931926959767
Ni 1.2028505690945301 3.222464425564692 3.865161767198903 0.15997018204046642 0.5627944274008243 -0.6776402062988265
Ni 3.6919045429635893 2.7034742140893715 2.5885003675205875 0.1695493410884693 -0.1586712607233848 0.03689044526844614
Ni 1.1804607961614095 3.1250816347675108 8.16453519778517 -1.092866939088595 1.3494946591538113 0.22610024090032027
Ni 3.7296418509957525 2.644819188000372 7.094146850660026 -0.2711804210684104 -0.0004707689888314472 0.6625105497462396
Ni 4.280926402164382 6.534024518178592 6.142628752146573 0.2673301940843848 1.1388788870423354 -0.9233628494157646
Ni 0.8788285739280238 7.3757309576246035 11.42440162999354 -0.21086542622843685 0.9003933851037847 -0.3789710928918441
P 0.23795312737217766 5.630073783037825 8.107361313330951 0.1352950478912896 -0.7436293687054418 -0.306188304602163
P 8.385615123306897 1.7719542536730006 8.076971558218318 0.5323335398078058 0.27169669858319656 0.028364410075305987
P 1.839423435502717 3.3575300038430633 10.48831103005389 -0.8954000456542515 -0.544187096712282 0.7376998905948843
P 3.9569107677288216 6.3980684375676535 3.8376715967222106 0.606888075285929 -1.3076903215235156 0.27421663679157293
P 6.978148926408791 3.932894465024991 10.566538025266528 -0.41356708569915873 1.099652594551861 -0.29339063861686243
P 6.321757839721733 7.56130982637993 10.20539298694216 -0.41410187515670616 1.1311990018995743 0.006300745407047214
P 2.255942271423329 8.307078269629558 5.827579930994456 0.9421229036320872 1.4447830847451761 -0.2820615867572884
P 6.809135218390915 4.015892917123662 1.6369550087316473 1.074739119139633 0.49549528793353376 0.005850031022873796
Ni 5.4274118083108 2.8569404783213015 0.3848669300529417 -0.7119631479504126 0.06523017275340377 -0.5620490645943675
Ni 1.5969796320820213 1.030765536705147 7.155523360918453 -0.6240566166454155 0.02055159889910654 -0.987142662875887
Ni 6.926372576500948 0.581065493462058 9.451158410802195 -0.8552173027877787 -0.19185288968167605 -1.3808482337644286
Ni 2.715605036680977 1.65989634790545 9.311873850554326 0.41734120802961033 -0.6862703711699988 -0.431594889735147
Ni 6.40361136024996 2.0398773279153155 2.4216729335967497 -0.771864195181419 -0.6906656720242169 1.5773185676134578
Ni 4.2370191851137164 6.723110875713214 10.688094319689514 -0.6809885539457691 0.41951173331836783 -0.9090623736326924
Ni 8.313975119327708 7.2977393094570004 0.4095283926099586 -0.504003325404545 -0.4251930999738613 0.04072447430255567
Ni 7.581527864032607 3.934393780176763 8.480595375157845 1.205524709196343 -0.20070108410092533 -1.071684391473709
Ni 3.0562494391634565 8.555110429525039 12.453468851535861 0.06661265492322722 -0.8439594704857724 0.22026075140040774
Ni 0.09423059427506299 5.0284485898036575 10.34951806344063 -0.0433696252348866 -0.7802511336935336 -0.2480556621254889
Ni 8.752602038668076 2.418776983664207 5.824986570119816 0.34299390346628666 0.35289830706419223 0.8100335071622887
Ni 3.956374648977582 2.7588034865689868 11.142733924850804 -0.7622567539986421 -0.5065299484811405 0.7465869086718689
Ni 0.8753683362929052 3.397202791434786 12.73511020507896 0.5077561075787578 -0.5735012722953671 -0.6101376925714783
Ni 3.0498069273900867 8.42510617572871 7.941198121453141 0.7076776332011813 -0.6104696219896002 0.24058892143479857
Ni 5.423522675674689 8.190013559930941 3.581618555102678 1.1495862461575106 -1.4811518531821974 0.26268035401719925
Ni 2.852288057971562 8.281171921158647 3.626238174019397 0.9632116059815863 0.7896297466949562 0.4083755141958902
Ni 3.3351311441514473 4.283070877169339 9.307471316063214 0.9309650872430548 -0.2565246188284485 -0.26477426043175045
Ni 7.289970130943275 6.264574868509019 11.633920472681332 0.7563933532393295 -0.9147625093412634 -0.6797611092965713
Ni 0.3600846136079335 9.290756223810586 0.6753360694745015 0.6817668268726904 0.8828276083058795 -0.9049861466807898
Ni 4.600934776103387 0.5047503522368898 1.6142262997066412 -0.21562248129744804 -0.29339680926444955 -0.5894505965357719
Ni 6.059713898226062 5.742095341771393 0.39866153812508887 -0.6960364494178272 0.24037911941683762 0.21493239720895888
Ni 7.92938715276058 8.852156564745703 11.418363478973223 0.6798948066609581 -0.8472178295220699 -0.18102468871792052
Ni 0.1792099597257712 4.832728898567258 5.69507772728769 -0.32313984485483704 0.5481270551966367 0.3637316502342704
Ni 7.89201331506824 -0.18789054011660325 2.597729788124553 -0.7243047002349009 0.12238990979384727 -0.21803777560715998
P 8.584351618363831 1.633226711720909 3.721355635923629 0.6064255338272138 -0.19368711467693742 -1.0130164453188555
P 1.8351617457682878 3.104836336839348 1.571176872657959 -0.5799439425969174 -0.009027400309590905 -0.3387860360325262
P 4.656809254092739 0.9441232944497467 8.188327966230009 0.6980933319468557 -0.0759565580319724 -0.2447044862650689
P 8.53601006316732 1.6308823280290479 12.394645720414694 0.18419974401179245 0.30317574302808437 1.121596960033436
P 6.282957380945587 7.73831988187392 1.2912301995742863 0.16965964141408846 1.07096242570602 0.677051166564576
P 1.9271560887775874 3.302455160601324 5.9660130619712906 -0.6026694092188911 -0.4161034789677672 0.2735885162892708
P 7.081483544020579 4.02565209574792 5.8557343435171765 0.10592662203150145 -0.5247827240437414 0.8036517720056612
P 2.265347066466259 8.547541159698216 10.07388850931821 1.0284572053539578 -0.29131498703475633 0.8151399751509187
