# total energy = -340893.42887996277 ev
CRYSTAL
PRIMVEC
9.08536464359186 0.00000000000000 0.00000000000000

0.00000000000000 9.08536464359186 0.00000000000000

0.00000000000000 0.00000000000000 13.29734951863179

PRIMCOORD
 96 1
Ni 6.431011764866155 2.102962097779132 11.578800267825459 -1.3399262987390859 -0.3370654537969937 -0.24594530065070544
Ni 4.947880499113989 0.1955470288167626 5.92729371004733 -0.6883478225243177 -0.24815979180352102 0.3590823243877171
Ni 2.6742225704255937 1.5081069331552726 4.8866433243484675 0.5465550827238265 -0.0794602003098567 0.36986244572235655
Ni 3.186782502114809 4.425208556577317 4.888464939959353 0.37675274508428663 -0.5283485870181288 0.43660237025206744
Ni 4.699095959099706 4.490132572314894 2.8567893387771623 0.8600931428228412 -0.1384780736049615 -1.0642544175582251
Ni 7.511261620897204 6.0696958983859295 2.6071716708251333 -0.662950979717768 1.0472077464885836 -0.6973891067909795
Ni 4.9798064704688505 4.688956692158321 11.681243205392017 0.8919316274896767 0.5248025215380833 -0.09703137642440064
Ni 5.700902776804665 7.93513022294323 12.183430376268527 -0.0056327728057451384 0.5330081972773272 0.9084998162610032
Ni 1.8769727376536796 6.650196186874137 0.5725197041859561 0.5085791177006854 -0.5788530235255838 -1.9685126849340546
Ni 2.705249090680817 1.480541936828963 0.19646465064568724 0.6845022235259824 0.3916995962021061 0.8654238110071354
Ni 0.7677996232822198 0.06541462542828892 4.340361244714505 0.014207144738317466 -0.1267654131537236 0.9116776997683526
Ni 8.600197085526787 2.3534910278048358 1.3788558101371522 0.14456541744962198 0.5637243954142614 -1.3022143860106088
Ni 7.235538974716966 0.6686782950290764 4.838307367375747 -1.0501894548247268 -0.17271025531495418 -0.693115162005974
Ni 0.8092670445849693 7.268891348320751 2.5082656657140245 -0.5044915778948731 1.0216059867600795 0.29822276989818314
Ni 7.728874274821978 4.038762571495058 3.6533405070080436 0.7368198019827762 -1.4033613272652798 0.3507375519674476
Ni 7.535755763974241 3.7668103516415896 12.90962538924189 -0.6218884053495031 0.5540151385462975 -0.2259151214727077
Ni 8.315661635643016 8.988378375255826 6.910073957117301 -0.5124224027061756 -0.5888101347382956 -0.5000885637311709
Ni 6.6510592965152044 0.8644906164934094 0.4021582146955489 0.6674162145779731 -0.9064205651344712 0.18466099991892715
Ni 1.8330086581470837 6.518867240962203 9.348861113798304 0.1764445255464058 0.23051945301393847 -0.5922623549529542
Ni 0.0834872327757823 4.770043571595471 1.099785207086036 0.25581705123846266 0.5711273727465519 1.287870458584111
Ni 6.447274567576798 2.1705481253570547 6.6993380156906746 0.8553828818313656 -0.8858031459944358 1.7141123115374608
Ni 3.282260599146182 4.583602803760204 0.4856708864923311 0.7290789816950928 0.11320695774299859 -0.7153721736319615
Ni 6.222239170738843 5.898809274819167 4.835248325100511 -0.3401024408511045 -1.1489491267941438 -0.4974066460236336
Ni 5.3365614838983815 3.0178492319462524 9.219384673737043 -0.1800777514236189 -0.4182079269052798 0.011751226998657181
P 0.09041028063360955 5.513426277400118 12.388182696541392 1.242252660744996 0.24663101386382041 0.14611630687650964
P 4.02974080440474 6.460421090214957 12.651816356527897 -0.6193921212902107 -1.0073924142638586 0.8287727354430049
P 2.494732106542083 8.543640690625246 1.5377324901825733 0.33704128542727757 0.085847077672807 -0.07956844375294685
P 6.646244053254511 7.7708850009303685 5.935631349180045 -0.5012332188585755 0.5748485303518809 -0.5002171188892353
P 4.785434179300405 0.9589238965908586 12.62417140899273 -1.2083616644245059 0.7001322167537555 -0.28320495633311227
P 4.115561158820798 5.934142257915086 8.211418887340715 0.059728269098568106 0.9792272646835524 0.3595163266013421
P 4.803514054939612 1.1249861915322843 3.944392888950108 0.4058743450405914 0.3592270774956975 -0.41322872852313347
P 0.34646765504446797 5.494419694567343 3.6065072693472455 -0.6185007198241929 -0.37238366948231355 0.7496676044797219
Ni 1.2987619610554624 1.1156918635026816 2.2167081374978195 0.7763445995502758 0.0018326823333645855 0.6833387993455006
Ni 1.7397019632653437 6.695205083314656 4.828294387002898 0.5044383560594344 -0.45234420646735646 0.4030412464671703
Ni 5.9989935907355205 5.395861658922054 9.144095165478474 -0.11356022731735926 1.3453436130999152 0.7540343660888498
Ni 8.51702965758643 2.3250265803788874 10.375682665974335 0.35929238351599413 0.09013979151088991 -0.7428089296866756
Ni 2.408375715612099 5.214217963618196 7.205341948253633 -0.8667384160535008 -0.6689365078772415 -0.4441243896607255
Ni 0.5614991568742179 -0.15692060103782232 9.247402121222564 -0.16423744195725265 0.861868232445393 -0.17424083302686766
Ni 1.278083671128409 1.0528847377268815 11.410708302422826 0.6253138860912844 -0.11004090131019112 -0.19303816823902883
Ni 4.084352931272718 6.876757924972088 1.8232264460361618 0.47072142342296347 0.4690679469799406 -0.22554693950001156
Ni 5.719854847449583 7.78207817017032 7.904329928267614 -0.3793881258246047 0.4149413403388661 1.3423765600517914
Ni 5.596384741953688 3.144671836995348 4.675826523176521 -1.7713494387830588 -0.835375071250871 -1.1383955196480136
Ni 0.8534591667440999 7.359972128865 7.147670779110417 0.4062263290633714 -0.5217462512102627 -0.10846095841758095
Ni 5.233424424473112 4.554175307682117 6.770079390409048 -0.017143344548505957 0.1949263864006772 0.640249424355194
Ni 8.218657197351648 7.157377582694804 9.114069852406889 -0.004684292849546771 -0.14371438230323635 0.035983360073144476
Ni 4.439826908287611 0.24960676551445773 10.414537136405809 0.2227768329540421 -0.08530637467798857 0.6311240650151583
Ni 8.302996637330928 7.456068030692085 4.619326457535765 0.21520390570279066 -1.128118820312354 -0.04815984753467835
Ni 7.259142752059007 6.029029806244677 7.101396291375153 0.9008746956155775 -0.8373933872324805 -0.5897917819252746
Ni 2.2466380542406545 5.231243936958836 2.5546864278200387 0.11937452000629119 -0.3546021771291764 0.5978660742929768
Ni 2.2172832410797096 5.321770510259874 11.422516550849098 -0.4517335694665511 -0.5704946242585595 1.3784059428715227
Ni 1.2211093494532979 3.286794196102948 3.859941698985723 -0.6225707761285084 -0.21011106456091555 -0.39591234873187303
Ni 3.3519907727798093 2.415943824359566 2.707845687895734 0.5562609971576807 0.585765691485017 -0.233099812146605
Ni 0.9537815802030238 3.4338226521176702 8.414523122467374 0.6868601822351976 -0.351532279954601 -0.7999249579733773
Ni 4.051845496580715 2.5565852690303874 6.745120076662298 -1.075985332841908 -0.3508277976884087 0.20742683286053307
Ni 4.184846149586927 6.694541851695731 6.143760699490646 -0.4026941475403968 1.0315641264140556 -0.6473880922825044
Ni 0.8347287789964665 7.394614624248065 11.450706620262833 0.11181727648432355 -0.5249693861332507 0.062461865979647264
P 0.032891745616393665 5.466091527611036 8.11166249209904 1.534042787643958 0.062028892207286725 -1.1723428231277357
P 8.288242005150991 1.5426040627040523 8.15358872431625 0.4917875000646434 1.3942537085370568 0.8039039972257832
P 1.678875446981678 3.083145747634185 10.473777348022839 0.3168182735121834 0.68124617848253 0.00982675628243469
P 3.9738930679453377 6.193620272113966 3.937611572780709 0.08671713898258614 0.9910242573184804 0.15122997395399115
P 6.894665178683081 4.065836958130655 10.713887181876158 -0.4490837905485298 -0.5406723986908043 -1.08117536168328
P 6.475602734533106 7.691860499267138 10.124482327501527 -1.2946252608094413 0.686716714678798 0.26992597983601896
P 2.3512196866441317 8.591584159845395 5.9814533857560965 -0.20162025348108503 0.1824691344739309 0.41907438867063307
P 6.59478454791759 4.035837084080071 1.6777933800527183 0.7353961821623721 0.7894441130467114 0.11147069177818221
Ni 5.133667120694972 3.0240636213619396 0.4416541118708069 -0.4033459221917828 -0.6588500701755169 0.07321447651046101
Ni 1.3873533516875798 1.1839047812409587 7.421357395074199 0.3981751766241207 0.053820902475197635 -1.184667920351992
Ni 6.538164555463549 0.8392623759532326 9.505211153936557 1.4123434761592322 -0.7710692100839495 -0.9493559310454166
Ni 3.0664468474206856 1.835952316291357 9.32541814741044 -0.5773036767605929 -0.19756048158941458 -0.7551720792377188
Ni 6.59836418158686 2.0071569276206174 2.574752364170166 -1.4368170358205643 -0.4031824000307249 0.8352025502287487
Ni 4.1986195623854385 6.819120371678051 10.51042407484611 -0.17081638072635097 0.1321243634727918 -1.3324456740913246
Ni 8.102437212840723 7.079207105307998 0.4299630646484288 1.1860964252684025 0.3634765968006708 -0.7410667501845882
Ni 7.603614352491448 3.7512743781023707 8.461821530797884 -0.30409928328361824 -0.6905828825024235 -1.0802183970866492
Ni 2.937507352409814 8.443583569813892 12.396892835624461 1.1377987666042793 -0.47955007745818695 -0.06034224853348318
Ni -0.12098798387547749 4.83387734357591 10.138471063442072 0.8082694732833307 -0.03362180181950339 1.7196468682024448
Ni 8.745635602729015 2.317721947206062 5.724189474920672 0.7684425710943799 0.2654147222292268 0.1578611061172636
Ni 3.6578404881156317 2.8936432119142887 11.610075727071894 -0.8313399819495488 -1.3406855455026137 -0.09212956824740907
Ni 0.846846838357057 3.1809496980141194 12.538762621594993 0.5073192771516553 0.7615921238314497 0.1574101346227741
Ni 3.216664266425037 8.465324847404155 8.08864472077646 0.17556469404461378 -0.06937144861528698 0.02216316636060054
Ni 5.771523316173289 7.9691367428012985 3.75414717040243 -0.5670516600152815 0.5442097224201015 -0.7082684727076448
Ni 3.109538731921571 8.456221312032051 3.888238067165779 1.2530600357731452 -0.5354839125113293 -1.0978934457689091
Ni 3.3971632057839005 4.432013494694788 9.585088771339748 0.08111881895920223 -0.3477226764005237 -0.32487482526807276
Ni 7.3036792095381005 6.116658148224656 11.465280453686377 -0.45713442876714816 0.07375980749096973 0.11639795387647049
Ni 0.6655574722742685 8.790217487031324 0.23785666342190134 -0.2490529930417517 0.8951303369326324 0.05736902483777216
Ni 4.633490541013917 0.3880768080356455 1.8375204502287072 -0.25006755034919514 -0.3360907485885502 -0.3896527409754063
Ni 6.048199925641022 5.882292081898525 0.40665456165727953 -1.0544824257731258 -0.44881948114354964 0.3876061428590228
Ni 8.122897454016348 8.776680293713525 11.430574360750814 -1.3129068327274485 0.028658544276957097 -0.5253488809598565
Ni 9.39899143028798 4.784761862316836 5.82334805316885 -0.4202295853209989 -0.04431913363234948 0.2680133361943384
Ni 8.069148436789439 8.828721262387585 2.4049986855743635 0.07984843688721087 0.3469729427186927 -0.006608763565769263
P 8.631659703284864 1.6488574022018077 3.4353299141119136 -0.31646243283466147 0.7049088122067925 1.3032117169268718
P 1.7585268388052626 3.270849381154803 1.3660363606261363 0.0592130200250464 -0.7037808692499363 0.35370151969177793
P 4.882929227282483 1.056255408009367 8.086490580819648 -0.2789888613692357 -0.24685495694916837 0.5072660553162167
P 8.434770766110358 1.507398274713133 12.456650913026133 -0.22968975802379152 0.20348481749364958 1.2949240229967827
P 6.384422014977784 7.915233274375459 1.4354485464972648 -1.357554296233494 -0.39662582985912986 0.4164665187341408
P 1.9796191873882363 3.0480398986543364 6.21339911094138 -1.32688257818125 0.9295242410314702 0.6697579753372723
P 7.13363752488312 3.993299406822397 5.801580428021123 1.322925136195399 1.3591558363926592 0.9730450471322404
P 2.384499377330773 8.589321904049333 10.250394579013411 0.4096716072994945 -0.6101700884713104 -0.4793916975034519
