# total energy = -381166.7161449781 ev
CRYSTAL
PRIMVEC
9.27953970979767 0.00000000000000 0.00000000000000
0.00000000000000 9.27953970979767 0.00000000000000
0.00000000000000 0.00000000000000 13.58154435554511
PRIMCOORD
 96 1
Ni 2.4036977714236727 6.395588791477483 4.603437752198112 -0.3323441370619244 2.0584218484913777 0.7261240128318269
Ni 3.1268430338980986 1.133505074574466 8.471149041767006 0.7688637177921984 0.4321649033060041 -0.08488882752459574
Ni 8.114966895239867 4.115912070406961 6.815436005139892 0.007638490381864264 -1.6567725972757275 -0.6151377168892309
Ni 6.996207009517715 3.3840904381547428 9.328076502583095 0.9816230186092384 1.720033819228218 0.5183824769443524
Ni 0.9765787758447888 4.993069856092105 2.61773407032495 -1.1152756458010986 -1.6083366132615269 -0.457635793883599
Ni 2.778387032266137 6.209997994091548 10.380931240245529 0.5866771475556929 0.909205584078776 -1.355246474035924
Ni 1.8800718956789966 5.422833186058844 8.309609883768301 -0.4411609361570273 -1.4457338786942198 -0.4662865275800615
Ni 0.5496624087099492 7.234978849894588 8.63802579109853 -1.3287502275176086 0.4150889216603239 1.0118656195438638
Ni 0.8171952549577218 2.8105220788335115 12.155183903025002 0.22606116013226876 -0.4575465766039023 0.17357234620493334
Ni 6.814012523723942 0.7716716882669259 12.967617826075788 1.0785163267938782 -1.077682260928357 1.103079875065855
Ni 4.6075142540626945 8.57096348441711 13.030744679898639 -0.05333162154360493 0.9754639409863781 -0.5167577968567358
Ni 0.6515953703122132 1.0392063904226725 10.232485513002404 1.4391356566514117 -0.010397798294556287 -0.06019646698423826
Ni 3.7912766476194837 4.427305589800951 12.423296720514605 0.4061101152004813 0.05434695018199673 -0.4213127910828485
Ni 6.43376481849977 7.336803240880382 3.1655053088095366 -0.036833366778265604 0.3942372750222952 1.1891056444083714
Ni 1.1666051932882475 0.1294616445785196 7.990429902469984 -1.43326891345799 1.0048909879982435 -0.5470109393143225
Ni 6.243961110013174 0.04321481717131491 7.999964629685687 0.5573691426201949 0.12225852642230557 -0.6858078297112834
Ni 5.028721848269943 6.485776639467178 10.91889678895023 0.771136315876459 -0.38985302991167053 0.6051788059043062
Ni 3.7580280562677935 8.171618486141924 3.762576886711723 1.0549393108048863 0.055153248133375986 -2.5039464609337396
Ni 2.129181143470267 0.785802571579891 12.295860799489553 -0.6795042560907588 2.390165375854825 2.5870427153342863
Ni 5.31904153262076 1.7745728069049618 9.827035505447206 1.0086859362643015 -1.7168965591508176 -1.495521234529992
Ni 1.0895942919129538 8.310264091329087 5.7435535709754655 -3.4828873047251236 0.17272516771328963 0.1509175849198949
Ni 6.461547760868444 3.3095942920840287 0.2992178351314864 0.131376943783806 -1.2024064752823356 0.5084824442218211
Ni 5.231767460150024 5.8967856848831754 8.51872524267689 -1.1059780225492564 -1.7258720231765503 -0.0002126302314383435
Ni 9.131661121939628 7.134110251515334 11.41272142240466 -1.1718892805300851 -0.7018165464347139 -1.3372541512235616
P 3.462446872811084 2.493208213002909 10.499797506201286 -0.6839178117774222 0.4648045437178963 0.3420199695887916
Ni 4.916959070084133 6.636921784858283 5.0074475751655925 0.8096743240506572 -1.7306856425151098 0.4530443178581746
P 8.490639787308478 7.940604341095782 7.081335652370669 -0.38763262522158404 1.0745737972063623 -0.2122481655085764
Ni 0.9824527245820536 0.7600453527646841 0.8268079303083264 -0.013212642035532084 -0.10995065558922998 0.8322547804543344
P 3.6629034930676325 6.654627146928902 12.769096917835974 0.1828080058705884 -0.023102904566050533 -0.6479141399893035
P 7.274147787682891 5.64562565878079 4.448444381623209 -0.16020569509004023 -0.6524022576676441 -0.10399520933674347
P 4.664100888185666 7.599219348844224 7.166261073300486 0.5150482703647968 -0.16837717515723905 -0.3784653569000192
Ni 7.588185975939631 1.0594729054972165 10.025597243662446 -0.2412358109901781 -1.5076774102765518 -1.8031925514355849
Ni 6.023868983393194 9.015008026242697 1.5469243509694137 -1.4768383134085081 1.1605939101219238 -0.5212222603859926
Ni 4.673176278177839 7.131354228174152 1.552235031636612 -0.24484512560799127 -2.8978885733131188 0.045621397383540783
Ni 9.042438346096338 4.4326691638454045 10.951220210176952 -1.4102847938579905 0.8447490562666031 -1.3247701598239379
Ni 3.0004185827187997 2.259744269431273 2.610413441322062 -0.239242177598917 -0.3793562441454047 -0.7349084438926762
Ni 5.196031952113363 2.0139106992138633 12.13161943948091 -1.7189845520280977 0.8223681174682417 0.5013021244232979
Ni 3.3110233412239003 8.809828120192677 1.526701449732255 -1.764705193993664 2.492056908585005 -0.5532409793844343
Ni 8.712383672025192 2.793865304768124 0.8019387634586111 0.36082578944138505 0.3556825546775487 -0.6454327683283464
Ni 3.1013057401777937 8.862786454226754 5.67790082640019 2.237616683089411 1.9720317538309071 1.399062699889926
Ni 2.4978851010970344 7.626055778146231 7.46965934114309 1.3342608729231924 -0.7420777079476059 1.2687350233062407
Ni 1.3466282667526042 7.093150362532257 2.4964235735676206 2.1230622101795826 2.5566707879106483 -0.5095142279204451
Ni 6.906028441067889 7.193434349899747 9.088294120314455 2.6877985917981255 0.6448234168791218 0.2443244772178308
Ni 1.4760778479292935 5.505421090895585 11.994594969908912 0.008485154652875708 -1.0572347917072824 2.2940544543621653
Ni 5.784911552218934 2.129969904359158 2.2927682959181257 -1.1888215375090494 1.0234404688656569 0.42356662011403173
Ni 0.4006153672832919 2.5560956546971334 3.036792523098469 2.852276431900959 -0.3883905864335311 -0.5268254655053831
Ni 1.5265028675790522 9.195383722222088 3.5549147037466655 -0.23156743466247862 0.8838195399055037 -0.24848760745658496
Ni 4.816350298821217 8.241409905498905 9.296173444512455 -2.5119076247623453 -0.2757572418058154 0.06948534848533194
Ni 3.8306126171254324 3.1454021136366923 5.669018450837299 0.6134924679763241 1.0512004125877445 1.7268793813951422
Ni 4.169287983735155 1.3026061296126605 4.407156924882747 1.7836094870973347 -0.9067936322031738 -0.5970219811251265
Ni 7.031942517554375 6.1954476755764905 6.735956746159366 0.8783688012035775 2.051340001943932 -0.38265368394975385
Ni 5.376500443491446 3.930441907039327 3.8865357641477494 -0.5089239026346138 0.9477813874694451 0.05627887709738695
Ni 2.4050711433243293 4.259550068043805 4.1432542346318435 2.3917049524278036 -2.6272997630821204 -0.5139498950942955
Ni 2.639518718122111 5.45917186418701 0.6495288167833206 1.0722487486176113 1.3817013257933428 1.528720089879464
Ni 6.52586425170254 5.243283369127822 1.6046050428429752 -0.4076221809696335 -0.20016989418780362 0.8181363387750813
Ni 0.2543104298880118 4.236406895609779 4.849004999621273 -2.0383307341684573 0.6914413738479769 -0.4322098976113266
P 2.00076159121907 8.257741895668866 9.827266565989953 0.6966424584329421 0.922515928034437 0.14802895051819023
Ni 8.36497625839846 6.449437961339012 2.2822425138443827 0.1451886528559177 -1.4608208549343293 -1.2141286488152703
P 7.680331806841748 7.775855390256288 12.818777718388215 -0.49108507468098006 0.5429514245329682 0.7195257907890189
Ni 8.135251969394151 9.2177752519267 4.385793568195653 0.6295793462358577 -0.8053566705119097 0.6899712170603537
P 6.136012222713645 0.4552393787239072 3.627711766067312 -0.15426747522873432 -0.8112995183589059 0.44833482819764725
P 4.509086174669063 1.260467739066184 6.747120960576117 0.24478856133844293 0.5787908028290807 -0.2071874631562174
P 1.6054160746275516 5.055047902879138 6.13995788306607 0.9026292164128391 -0.28207829892783676 1.4083096724094908
Ni 0.7319701048901268 7.110605177026405 0.3705505860607574 -1.1403369596451005 -0.18479598283489465 -0.998935284635441
Ni 6.710573492800891 2.0996629271460345 5.2876757599085495 -0.6301475600345019 -0.08346880724861754 -1.7688374709944827
Ni 5.710415406148219 4.472116487829785 6.39575303933317 -0.30875477977775856 -1.2996864773824326 -0.38889915063883346
Ni 1.9351923625026193 3.8922194823176937 10.105239822544672 -0.05373168519550101 -0.6435466070492272 -0.15094098195866262
Ni 6.3897334018199565 2.3067915365686074 7.478922177840622 -1.29453835752259 0.2750738425855456 0.2355037936024073
Ni 3.635677323091116 5.599756893206856 6.855909646233817 0.14041719960920335 -0.9627783750989096 -1.111801314099253
Ni 6.348940544554528 4.306244712666106 11.929485078415992 0.4531196511808003 0.5066194228711534 0.23599564563716127
Ni 1.9062680367300213 7.91436180234541 12.098480346699677 1.1992018523021089 -0.7164756911087854 -0.3901345657078313
Ni 8.155379291370656 8.47593171661564 1.3185687940958248 1.3722075273702947 0.24968317042658292 -0.8838678766449359
Ni 3.5186716048791538 0.4093437024843524 10.79110731745616 1.3803041883355 -1.7156971395260774 -1.4484021695550024
Ni 5.935286495800887 6.368112073924495 13.234698758731923 0.48994607598053036 0.4733380351102041 -0.42925518585837685
Ni 8.68549156548397 5.318893059982851 8.610685482781621 -0.8002648578112992 -0.5095031721768516 1.118719381375325
Ni 7.903940879072191 2.467772994221167 11.591862011627446 -0.49527982948861804 0.5336345180074163 1.9672086214106506
Ni 7.701220051087534 3.626147235645348 3.196565784660047 -0.5668523995202818 1.278050901390528 0.2848916000069158
Ni 9.13925178555271 0.23929613437948968 12.23557255691272 -0.9910018887209773 -0.28872691459260597 0.8549061993052631
Ni 9.046539902718568 2.0190144461419766 5.161285643026768 -0.31086488414222585 -0.33801547641508883 0.09885068902132653
Ni 2.4333366217662067 2.861986406948631 0.12708144260204499 0.7744828637511888 -0.42748138178740575 1.3064721328456985
Ni 7.863110903647285 1.3097142571525417 2.4899046968094396 1.039386450671952 -0.6287630209821494 -0.3993650831671638
Ni 6.327551205155799 8.560950860898139 11.046237130714628 0.6817015208523938 0.5316164591361232 1.142601330199245
Ni 4.392405240352526 4.0307351739466855 1.2973659734484686 0.1470431895661532 -0.1366901284666033 0.908235506856023
Ni 4.925978782837088 4.076770971238267 10.35322531805777 -1.2466001390804144 0.9510711139643104 -0.5612764480944011
Ni 2.043039174863586 1.8575875705756906 5.12475116660736 -0.6671213090453736 -0.740294390794938 -1.0440059517218343
Ni -0.019229990471143633 6.922583140194714 4.239737322468869 -1.0691839936493586 -0.3636336912038254 2.0445972839034594
Ni 8.17180407693931 5.149597134607402 13.14280625926824 0.8615468445502323 0.6538215066126739 1.1197575928318522
Ni 8.248415958100225 1.0359492719285495 7.070864619582155 0.8843021359688771 -1.1917037441528509 0.24717583062369686
P 4.097093163552027 5.670346352992596 3.139210804635897 -0.22898758975044434 -0.39769360900201184 -0.2320675142273487
Ni 5.888731044276625 8.712773412699702 5.578687697933618 -0.13400769653843375 0.8113923351830284 0.5138586209320699
P 7.209719942370363 5.581847381259113 10.483498922374853 0.1378376118074852 0.33004634216668316 -0.8410140147042032
Ni 1.2313114247968537 2.8507860023263896 7.053779130774806 -0.6156370251231525 0.565695145987387 1.1098871277956757
P 0.8543922905237978 4.5113967800965185 0.5520314752385806 -2.112086685004685 -1.1528181228312468 -1.237803623834707
P 9.114215586985347 2.798969051696237 9.324124346552761 0.3164331222586228 0.45394137575114724 -0.7350174586667149
P 4.492679948180147 1.4649609591658763 0.7322614824420227 -0.7514920592829702 -0.11843092514609926 -0.6552117020919813
Ni 4.307432493769376 3.4051271550384383 8.324142571157607 -0.89442919710055 0.13876063784238682 -1.798649926370225
