# total energy = -340863.96706471866 ev
CRYSTAL
PRIMVEC
9.27148678629849 0.00000000000000 0.00000000000000
0.00000000000000 9.27148678629849 0.00000000000000
0.00000000000000 0.00000000000000 13.56975808799492
PRIMCOORD
 96 1
Ni 4.937687937531544 7.938645715366934 7.567446904926603 -0.004594304238901765 -2.3390495310156165 -1.6467712630886413
Ni 5.205865694683414 1.5422747516399293 1.5003676310754883 0.29063595868986075 -0.05663266089237989 -0.733840150529162
Ni 2.381464840942858 1.0093589589577399 9.445135309209833 -0.303533126367503 0.7837604323983727 0.24461064099968197
Ni 8.535136093383276 1.9622638344825414 13.091858636226132 0.2623412255102256 0.4773553837997134 -0.04417823717911101
Ni 0.8641980707848899 3.3283988789359116 11.17913328313471 0.36253557304364015 -1.563742885811552 0.2908442180459249
Ni 8.09807820324882 2.1395717490122688 7.3084136152554215 1.4555891742217448 0.7118402492193031 -0.21152825662341637
Ni 1.0544369280250654 5.908217909559222 2.5402724306110174 -0.7430143608292623 0.09511898989303617 0.8539258376698649
Ni 7.651962070461386 7.698708907161809 7.871802930917966 -1.1012813884045356 -1.774140114154319 0.25926747168090836
Ni 6.938298641627919 4.073724435363973 8.631655052943453 0.41776389738932573 1.7262240071993302 -0.5825466703270871
Ni 3.665881000295568 4.06973769601824 12.58166262207119 -0.6323080580209304 -0.5183349115358686 -0.7011747990856569
Ni 0.7206800900819558 1.1044195136363266 5.12509435553888 -0.8128493793445292 0.7943610907323545 0.21199619739877038
Ni 8.971869481477963 1.102212899765898 10.070660275447327 1.6434751088358728 1.2130055909544206 1.5478773795342051
Ni 0.6896372978089776 5.918462902529069 11.881463246442078 -0.41102195067980185 0.6391952720590669 1.064358033015625
Ni 3.123443390617874 7.740263711225929 3.341146246206719 -0.6807916074436147 -0.12241819192862144 -1.402549629997262
Ni 0.73294255859048 7.268919862718176 0.7371323434982391 -0.1092644281554828 0.7539546618908498 -1.1713200382901765
Ni 2.0020663275319097 4.417520439268848 4.181032624172123 0.049497849619811525 0.6219028035272063 2.882711351352048
Ni 7.618992663220865 0.3867851069847732 4.234293607533735 -0.11508617704358244 -1.7592269444879123 -0.5361287451841799
Ni 4.891636462344912 1.7583282097180635 4.423958559737862 2.5393551794503364 -1.024211028483094 0.674747972352696
Ni 8.521785152318499 3.433018336557405 1.546802945817733 3.108444695831253 -1.6634818909751028 1.9147774001941282
Ni 8.828022362991836 3.8361147703583334 4.1935027739861 -0.27057929714930173 0.8070011480938682 -1.7435815246411712
Ni 5.174565155075991 7.81803294292826 9.840883162533023 0.8541081288840001 -0.34915015287566964 1.1679066417332533
Ni 5.513141311884011 7.6423104526499746 12.2452680461191 0.16735644720220857 1.3957184660080415 -0.8738714275538564
Ni 3.9599725631946976 5.778278021348903 11.092124087637133 0.8564612024972088 1.4780667864989705 -0.16648304345831974
Ni 8.852573260172065 5.4501879161688445 9.726599107018528 -0.5768653036715936 -0.06475143334477235 0.8544948227994575
P 2.744999840352532 5.132593134103597 6.228735991428446 0.21029926931232168 0.12168439908639044 0.4209952598424298
P 6.824787828116758 7.325939506848997 1.3432159289588352 -0.8387151913676977 3.2148557136983404 -0.10215944167958536
P 6.0825867627573285 6.097309883875986 8.675987594467994 0.534349284686254 0.4773530698068682 -0.6317709545705378
P 7.081645099824118 5.809133529587501 4.10973674458884 0.22124059881517383 -1.826654124892635 1.8478343585146757
P 2.566885306466807 6.955552878656774 12.520774913626322 0.5882000119581225 -0.4462524917473218 -0.010260758496059749
P 7.911331915105243 0.401219884862379 8.496730813402284 -0.5606714675205505 -0.9592937589844187 -0.46777031121443957
P 5.680287676825547 4.686718059974276 12.64934818467487 0.6179026812288777 -0.35700847257782387 -1.096635147881776
P 8.103316593319375 3.2790189399699354 10.529250266643476 -0.643170454656731 0.33182220312018335 -0.47446649228769255
Ni 2.7945652090555186 2.40382766722636 5.675253259465703 -0.7932547450420532 0.2722595130652021 1.641635998744605
Ni 8.051424081416902 7.484342859690473 3.1525400978009235 -0.9201489704641573 -0.7197618180592249 -0.05756237179550086
Ni 0.6457599862887972 8.655433635269032 2.7863868305046573 2.2208345785350656 0.9717283852033458 -0.044183893606065845
Ni 1.1523160147062161 1.3268981121018848 1.1945698888788674 -0.5551646787697083 0.012704592050861989 0.4048155647587738
Ni 8.078914039928755 0.42004193031766024 1.441555808536458 -0.8105631544135137 -0.39240587824051126 -0.034556397818630805
Ni 3.2655938270103535 2.2782917352700482 3.039557759040243 1.0399405234032089 1.03731516996522 -1.6722611798296296
Ni 4.025067672372339 5.5182406296518085 8.282383308904649 -0.5353941810110006 0.8439378732192174 0.04910292817423802
Ni 5.313507657018183 6.991146116675997 3.3615546430621275 0.9168430460193758 -2.531309940548357 -0.8653016836069742
Ni 0.8596142476859829 3.698664977799077 6.255563965779168 0.5533535937028986 -0.009247743850513105 -0.3384721043365332
Ni 1.051442237772341 7.1838076134302185 9.571062497911239 -0.990203304079082 1.7283631650295204 2.189533454428939
Ni 5.734294087729942 3.576893269504085 3.0907298764144286 0.638315697667591 0.8469645758606833 0.42226024259778244
Ni 3.724513883138383 8.111067556326425 0.45322458175574293 -0.32202604296536796 0.8469051833776576 0.1342874325623816
Ni 7.776468867377288 6.917725212306571 12.965225887375402 0.49001960953094315 -0.31122226748164467 -0.12464810970040467
Ni 2.0714912210687535 3.782627562717568 2.129258147039728 -1.2896213798369467 1.2455590994104098 -3.5708162046276244
Ni 1.8978919012792421 8.466935036110703 11.240618075332751 0.3378614673357278 1.5312919643716982 0.15211006256609932
Ni 0.2567840269612413 8.944119921334297 7.03771123223415 0.30209819369318935 -0.15652824623845302 0.1144032920439449
Ni 7.011042727457256 9.064816137154628 10.529888144938795 0.48097498283017165 0.5633569847725137 0.5256178183505271
Ni 6.754927174697939 5.5078658358660535 10.757453081090558 -1.5852504208660245 0.8243342400556771 0.20502696516978883
Ni 1.9966054217769418 5.005944623725219 10.121221401838062 0.31328146400351853 1.6625619502639946 -0.9639127458136689
Ni 6.476662039852681 2.44434406476322 11.935973099082457 -0.33818979720942405 -0.15345474951945184 -0.04899391340019949
Ni 4.6436798180140695 0.7449482069132443 8.21878183625863 0.5173103269260962 2.590408803593042 0.006296374531673027
Ni 7.291384675357034 5.440573384304834 1.9268374832266282 0.07060043592638163 -1.4423665048838836 0.5659687113637479
Ni 1.694160249225476 6.633044208560739 7.66145792729371 1.0446530983875297 -1.0476533186664345 -3.1306883377208017
Ni 5.19293197052691 6.290917072288963 0.4248733021154766 1.0981999212657345 1.7782510509988987 0.0711046292563098
P -0.053202572994453766 5.1942763361202395 0.5754255598919155 -0.056433657507696355 2.0787903848454006 0.2502665537338787
P 3.2487475354029223 7.5382658272132135 9.220569699054218 -2.4444045968143646 0.02381252903856544 -0.8205562610704836
P 4.74275492649894 9.140313854578574 5.446263295785011 -0.8526695966652605 -1.6673220906567994 0.09859280737424955
P 7.107531091110825 1.940726170528737 2.838753115385192 -0.2034483078287593 0.3113323106969477 -0.6552620957139424
P 2.8185505455378657 3.232309189216915 9.625803210574198 0.8299022210617577 -1.1194344051644785 -0.1535928177592129
P 8.862206335009777 5.778278021348903 7.58739450888554 0.6231220206462882 0.13060407017352346 -0.4706067522219702
P 1.1369068035606187 1.747267325905369 7.515990152906107 1.0291807137835436 -0.13463041772409717 -0.6523282098965991
P 3.771047475641243 5.006760514568067 3.049545004675645 0.15482180507030754 0.9724480369781897 0.4932386306888731
Ni 6.599843014148956 3.3355193808371264 0.7135132307464884 -2.061114307721876 -0.6944099695579976 -1.0635630479181555
Ni 0.42329436790482966 3.727740360562371 8.504764556758277 0.22168154300733434 -1.434236933798214 0.821552820655798
Ni 5.772131025566996 5.2891792755223666 6.247082409608294 0.15193728443366092 0.08771035613379087 1.2502881294549628
Ni 6.386988219034258 2.0792050981284027 9.473821289525405 4.550170481807344 -1.5609874345536021 -1.3022030731566991
Ni 4.2756296045081825 6.8292288703181665 5.431526267436078 -0.40847398744696745 0.12104162329606895 -0.1045978759177489
Ni 7.86681023524895 4.481039395681897 6.157739580870436 -0.07677236906504842 0.16228263222372696 0.8223848296387901
Ni 4.370625258778816 3.882231145952919 5.0385190656259065 -0.36000303642977355 1.9610343742791385 0.08203078925051033
Ni 0.08879673816236193 9.115614613608736 12.760702450344597 0.4221954507981181 -0.8240046246304004 -0.5842384562072132
Ni 2.24637927753049 7.807389276023839 5.598244289685119 -2.0115647789285225 -0.004349535217947348 -1.0089643867366689
Ni 2.7964195064256265 5.872207454631725 0.7355144690428199 -0.6723511899857453 -0.3271525655586559 0.6851853656359361
Ni 7.880819451880116 4.3685948031585475 12.534033139822595 1.2843315921929173 0.0033475763159942344 -0.12279614409333044
Ni 7.326977913376258 2.331945829674124 5.056607736471311 -1.568425635999202 1.8497763127323952 0.8697957148225858
Ni 6.661257343046932 7.552553188449896 5.541156036551603 0.29518372596154324 -0.4168622115106627 -0.8575894025643812
Ni 4.605490563676695 4.434236930060371 1.1930261863182525 -1.1673811082470862 -3.279579379128971 0.992057583679001
Ni 5.002189671550751 3.4593400877260883 10.344416686237167 -2.7705456903893704 2.0535879174378437 0.654009454253764
Ni 3.2072576317467556 2.2590441285683274 0.45013161374240274 0.4833987617803158 0.11428913506358382 0.5500610389945558
Ni 2.8562947685064137 0.6953921096971079 4.332254283299171 -0.445423053867491 -4.799051210937289 0.7238326456944889
Ni 4.558141080330987 0.8757049131150952 12.559557543122132 -0.20770476911226807 -0.41576974977743236 -0.940353213326174
Ni 6.488288484363258 0.3627821546774101 6.632762355360483 0.7857630646506983 0.9905727716033585 0.08736608542049469
Ni 1.4252500446124132 3.914319761942638 13.473643630352408 -0.203159830054063 -1.2775652200033611 -0.6184996913829284
Ni 3.908441639279396 3.251445538076429 7.679180374408516 0.2394805188619682 -0.42625779379294976 -0.16000437771251155
Ni 5.635172621810819 9.144244965003203 2.979878125332002 0.21783877222247644 -0.04139321823480613 0.19761421764548548
Ni 2.80592278044743 9.155750880184723 7.343858509485036 -1.175609923914782 0.16076131048319411 -0.18828265583191445
Ni 0.14915968045148778 6.02251679945268 5.067721467759053 0.10881551354352227 1.2818129395361213 0.17688906928299214
P 1.9221924683145075 1.666160358936845 12.460281243372606 -1.534190883186048 -0.6017006175477185 -0.44136276775518823
P 6.589329148060443 0.6206592899383301 13.290112693848599 0.1544965605204049 0.28584316528690773 0.08760494090417816
P 5.064011945870152 0.8741880978663469 10.232805600381683 -3.0135447639275585 -2.005511116535275 3.7926988079021715
P 3.078337607089997 0.29530520052786496 1.9431488100427832 -0.09442633470138577 0.013151449780293478 0.45978549323675005
P 0.8889946623666592 2.4281467772353267 3.4040820260968694 0.8350194876836652 -0.47513677888183975 -0.795557682143617
P 9.171521679317493 8.397843916100479 4.835813767166495 1.4050999072229413 -1.7668296965358345 1.1442157258742165
P 5.987238791986375 2.488077668237217 7.3528824476366665 -1.3208949931392477 0.6769922883021824 -1.4164428430395863
P 8.394988298150514 7.461674074340903 10.841259905029961 0.5958233328313352 -0.8178704867082043 0.8472543391869602
