# total energy = -340865.0090721458 ev
CRYSTAL
PRIMVEC
9.33562848103309 0.00000000000000 0.00000000000000
0.00000000000000 9.33562848103309 0.00000000000000
0.00000000000000 0.00000000000000 13.66363594177677
PRIMCOORD
 96 1
Ni 2.606470112340422 9.297959159289992 12.571446852357093 -1.900713465901894 -1.459040880215771 0.4009234287932192
Ni 1.9680718340979864 0.36863129160493013 1.034410968003122 -0.34996056459210695 0.2967811523556501 1.7651165704994698
Ni 9.29309529688319 1.9052523904600447 0.25660001631398754 -1.4713502937107434 -0.12388732027498019 0.13701434457524145
Ni 9.271417967692031 7.236101602085041 6.633995579325218 -0.3416846977365599 -0.3143595275590457 -0.38930281383515536
Ni 1.1940175392850458 2.7021789749018983 9.8610319860631 0.9398032543599749 1.64235822162261 1.6699608138312274
Ni 0.5065343939361204 3.510569711043469 12.216233659480176 -0.5216783740868047 0.32912588723494285 -0.6478681172427165
Ni 1.7081025894872335 6.360363642521847 0.18047916930328065 -0.4520053350706989 3.0781812689610213 -0.2965379259965925
Ni 0.5676902285896243 5.521473408332253 8.451860886397343 0.49140569124519234 -1.3955685706937384 0.15134695914782967
Ni 8.655509218313291 9.326834257992942 7.7320195193819785 -0.42218233817199546 -0.3298367972590384 -0.4750956412312592
Ni 4.635858353900735 8.540354241753029 13.060386387410105 1.7204040580834437 -0.26203680689592934 -0.6020636573140922
Ni 7.228726455633269 8.787897764936808 9.638765610389216 1.002498319396351 -0.07220814673313371 -1.7656395328824752
Ni 9.258208053477782 3.3158378378314284 7.440846870340335 -0.10233324825328828 0.3465687653017386 0.22528057321250236
Ni 6.506783638660571 1.4708469288222545 13.31187888141553 0.3818877523180068 -0.16330361728907358 1.519796562137589
Ni 7.715140703198682 0.8244200101386493 11.465361597159692 0.904276779318591 0.9134293923521366 -0.08263499849341252
Ni 6.94960983713317 7.530313931740224 0.14764202989889733 0.6986720872684613 1.3148477585039033 0.5161631006955304
Ni 0.23960450477544212 8.221467846183879 12.244325498958693 0.35852928009772445 -1.6788995110817537 1.379997455728359
Ni 2.669382912262563 5.447983341410292 7.644462527556815 1.8376463622380803 -0.39410074944443096 -1.6789661026536309
Ni 7.690289260344736 1.2015047132778574 4.060341134443814 -0.7439900944789704 1.64618890822261 3.0049498231696963
Ni 1.8498454357875551 8.335810623071605 7.5827988347172655 -0.3999538657910983 -0.750073838779205 1.468122016581433
Ni 5.189778530570912 9.20351060656521 10.4890126365517 -0.04578980464060501 -0.23074133921675746 -0.7892278832708473
Ni 4.380566259128385 1.4056375643088022 11.886051153522871 -0.6192337413354755 2.233561796293747 -0.15059773968663095
Ni 1.0420615154932829 5.1007072998160305 6.064509175827593 -0.565569161932484 0.5843616120486388 -0.8910767356885492
Ni 5.026778458358331 3.858910014277606 11.43650423615074 -0.5027085178525214 0.44293602577957913 0.13498831528414817
Ni 4.866952499808538 9.09010139251948 6.1274163743726815 0.8021121954326832 -0.2997214659308967 -0.03952942555318999
P 5.80116883579439 8.754877647215393 4.0371673040169345 -3.027947055395817 1.5443644812849402 -0.8206156535535093
P 5.847809635380533 2.064779608900399 10.143363794991037 1.0191143306864772 -0.0825205844027353 -0.18256683639405977
P 6.684123236126217 8.398443354141147 11.789231351179419 -0.49715776323762123 -0.5778569781609015 0.8681496945787307
P 2.8904039151052237 6.895845953062593 11.91710892215041 0.4134051061999977 0.747370580915429 0.013828164132343926
P 6.679296716233095 8.305787242072999 7.540632601832811 -0.2279943725992396 0.5758497179228856 -1.1559026752938415
P 4.52160893329721 1.2577612101365638 0.3566826207902175 -1.4098752171243978 -0.6794849728170491 1.776550009147392
P 0.5200215763144432 0.8783099251928946 11.978103250432248 1.0232697476157473 2.4231688273640395 0.2246462820626131
P 3.2664990416319153 0.6091749605994207 8.077176373324908 1.5593465565160691 -0.31473927949596764 0.17208290614360042
Ni 3.385780365953803 8.390862823864136 4.273834820091456 -0.7004749448051549 0.9656734372585175 -0.8521564044742678
Ni 3.2074791987608995 4.711878376124506 12.947552248075047 -1.0310061970280566 -0.8046730141813239 -1.4793633938232071
Ni 1.2163483624656009 1.3741111471345817 8.058607808397598 0.37338948503900854 0.04708589774420923 -1.2608137115766351
Ni 6.458201028363074 1.4243461636624113 7.541315969833152 0.28458718139261957 -0.47701265574831403 0.35821766239457664
Ni 4.697426823330401 3.4503455721062775 0.6908402373287446 -0.9919076883646982 -1.1013176409591097 -0.47475599850365335
Ni 6.412624490416809 5.902525753549945 5.570541471307586 -0.29120185849565977 -1.894564929801995 0.5123866643722337
Ni 6.766668862615544 3.1043671828623913 5.658234763307681 0.05541164400108521 0.30351667130727084 -0.1675045427442986
Ni 4.641665114777953 1.9022649893656562 5.201035431319705 0.13326619038671886 0.11921768271345275 0.3587740491186789
Ni 2.95452101109354 4.965779462262282 1.7398586631205848 -0.11717159881770142 -0.657418737045629 0.140204569377765
Ni 6.34351283322381 6.799810343506418 3.2062132875471523 1.029301555632124 0.3892645043980522 0.5647986023150467
Ni 1.2359438465191066 5.110145620148614 3.4471714584434894 1.1835597748894777 -0.4617994383429853 -0.44164533199261363
Ni 2.630014567215573 3.2780752208726716 5.840152552950479 0.9463911919901378 -0.19418950823465267 1.7126745506496697
Ni 8.489316361181082 5.577972631529878 12.926988659354391 0.44592236210141273 -0.06666793364119486 -0.6517849357986194
Ni 2.1566141856675904 2.1615620687301713 13.188893179736603 1.7108508671773694 0.7479202827713118 -0.026081527578400245
Ni 4.253676397644227 0.9908182510960974 2.9479160539864155 -1.4508434320066432 0.7866094718113936 0.13508113210827058
Ni 8.654118209678716 5.993734843213 4.4387412276273945 -1.9168556228793956 0.11541502113791093 -0.25493336308192865
Ni 7.019477680228183 3.588447523322813 0.8733181646767396 0.3649547240080941 -1.643267620810757 -0.9514488090187032
Ni 4.62155617116135 7.880362654975214 8.180254780961103 -0.46515369952719887 0.5822062562685328 1.1344151948440269
Ni 0.6022684626943309 2.9159835369759266 4.932941389295057 -0.865317110225942 -0.40021380432070425 -0.6510909950553884
Ni 5.753109020688413 6.3963898325944895 11.876719259354275 -0.718034293845157 0.09725094863437445 0.28015331399098203
Ni 4.327922650468205 6.324766891356521 0.46637718828764296 0.13206111433502418 1.9548156470629368 -0.11518567873592421
Ni 5.70888614886304 2.7798140608423236 3.13162348359732 1.9601306315179468 0.632073316302305 -0.20351721339348178
Ni 7.277309065930765 7.969247173161697 5.1171548099663235 1.9991540639689958 0.7973001187560204 2.2218560778210446
Ni 3.9609764397930785 6.384925680894773 3.323037474468905 -0.8086008884808205 -0.1360409249183786 0.5415848832027447
P 6.301735896044469 5.562578180265357 0.09338709177343137 0.11429324882864188 -2.4171136223088956 0.7447629680892529
P 0.42323538223330276 7.431879065680118 9.275914006339088 0.34783066273329777 0.33621981796724676 -0.41853137168296944
P 1.120732856188324 4.427963244616545 0.4753533950134388 -1.0250191262066861 -1.3668565474710268 -0.3965561529634589
P 7.566013374818168 1.7097083175754675 1.862340240864836 -0.25212674687106895 0.023060995584521574 -0.44802295338418324
P 2.9269622359978054 3.141028195667592 11.34786804568023 -0.3369808645029874 0.13793737061014308 -0.18767536126521872
P 9.11386990247671 7.585412810674855 0.7583349636794042 -0.7261358399063688 -0.2813771590957541 -0.381808048120007
P 5.674166946769192 5.982139992715402 9.82023248917933 -0.9955244591816791 -0.31251090438608115 -0.7413148616396523
P 3.946487544485293 5.046392613668677 5.385836063018587 0.6993416025316601 1.3130446438568935 0.9872354797000095
Ni 5.455069083381044 5.085536903633588 2.183859283648415 0.4047129777426385 -1.9232021339227139 -0.17522402287574337
Ni 2.4024026107084167 0.5972953734350158 5.9902470524353 1.375550732810915 1.3751396134154252 -0.6353710132169703
Ni 2.724145708574075 6.69130233438117 9.36806226022119 0.025747541277749204 2.3639640348691096 2.105422128500316
Ni 5.109520133044477 5.61165557886911 7.718368963506306 0.4934389196251372 -1.1124870273123677 -0.2346339894029443
Ni 5.031987739016671 8.538505787325875 1.7960852859683474 -0.2100449872096705 -1.0173078736053578 -0.19012073748191774
Ni 1.6560377897890912 2.9610372797306757 1.872573956738801 0.42489768022062957 -0.5134215333946512 0.9327481472854064
Ni 3.253438497472385 7.06539030079757 6.2388847112698995 0.4331866597022991 -0.01277606871874574 -1.7127879362990825
Ni 0.4417320628217785 0.09775336518544878 9.905589073385908 0.73074479943329 -0.3944468199299401 1.378940218108438
Ni 0.5752483533584275 9.244316638388876 4.827649504160488 -1.1488308560487246 -0.4994637856629785 -0.4508514239719138
Ni 8.009315690340184 5.425363113748718 1.567055247504199 1.1431299490092055 2.4223969821950218 1.6482966985942324
Ni 4.45811732441303 2.8892369615527285 7.6417439925609205 -0.2274948072550018 -0.293537705717688 0.02457666089809961
Ni 2.9639033176556047 9.198441360333169 10.480732867706031 -0.9717373840644103 -0.5151104910613 -3.1091946866234004
Ni 8.750331196174871 3.6041220434399333 3.015264210970882 -0.4547759558373007 -0.5842304857874131 -0.8565267656278216
Ni 3.564707020250843 4.404306762200355 9.621768231724987 0.14391544257044891 -0.23937998872836194 0.013685982127524816
Ni 6.734955732872924 4.091208456251584 9.571089772847209 0.3977694565452698 -0.8040940017494023 -1.2482245620577148
Ni 8.431528821261502 1.8783937874958068 9.41112938124817 -1.908157323774449 0.6901360247729921 -0.5930288008053335
Ni 7.414580146217924 8.968383469179983 2.6122143245072262 0.9005124271801522 -1.627955158823403 -2.332876569435686
Ni 1.4390217715385953 5.318311462656984 10.835331776232914 1.5440263812192312 0.5353414733961942 1.0392663801543198
Ni 7.781059575472051 6.138717152575048 8.794421502076679 -2.0400292049168027 0.3339832153272442 -1.8436450030236764
Ni 8.151049201012087 7.000386320109357 10.840168565317297 0.2912532805588855 -0.567148847714778 0.8514146412122369
Ni 0.9929374387474293 7.710818307240238 2.621286688205748 -1.5629697550909534 0.08053055055590001 0.4350895331519668
Ni 3.638197087172804 3.696162004032364 3.7965638870005565 -0.5002274033018804 -0.15995784074529226 -1.7519592071819055
Ni 7.170014688500112 3.215545181715749 11.81654459924771 1.6169616359263763 0.3048179066171976 0.30404580433786343
Ni 0.19383378575803994 1.241918648707884 2.6578636803551685 1.1569064339680075 -1.0483290045772204 0.18974587064100223
P 8.82427870888941 4.793163692777138 10.593280403248599 -2.5019271165108656 -1.177194237682766 0.26320871571684346
P 9.043264544736518 1.5219501587931406 6.290095300967616 -1.03433191896718 -0.7492688263794064 -0.7691352262860303
P 2.107966225971155 1.7458185283038903 3.7939135020921286 1.1096001926828762 -0.3085971711539717 0.34977930181923633
P 1.1750475423356779 6.912005925857552 4.667634965916611 1.6341710578261275 1.1549395400496238 1.6131654021087378
P 7.09177278671239 4.570154201081025 3.8582005065176888 -1.6006287030943078 0.2430381543062395 -0.2273089164964408
P 2.2105367754213057 3.5369615325867088 8.091004306140558 -0.6645075255716104 -1.939761838053608 -0.12472807100872067
P 2.822020436928984 7.898333739683646 1.7412253991212678 3.050298940728456 -0.9554882691953996 -0.3842588236533447
P 7.453621744270214 4.4927431702226786 7.202962921882693 -0.6894973627477287 0.8145697044697454 0.4412452683407175
