# total energy = -381165.78162142873 ev
CRYSTAL
PRIMVEC
9.23724227702323 0.00000000000000 0.00000000000000
0.00000000000000 9.23724227702323 0.00000000000000
0.00000000000000 0.00000000000000 13.51963778718732
PRIMCOORD
 96 1
Ni 7.3316730367254195 0.2992081309109791 3.2770659344721933 1.4077550854576013 0.6750984137135793 1.2572974708932605
Ni 2.3057911621835268 8.233458807072095 4.6226614726687565 0.492010671819043 0.31095410142192254 -1.7973111529541435
Ni 4.027733193503729 0.13441203506162877 7.1811179971848365 -1.1417631505686658 -0.5098392153600316 0.5775803274607473
Ni 8.300696693088518 6.903905587414442 8.823402670342842 2.09794844583109 0.9186618443956696 0.9970923178894311
Ni -0.08089514861778244 4.095645398201182 7.87229556896222 0.7792255206424967 -0.022623393826470713 0.05509848363604059
Ni 1.2601353444806467 7.483745755160424 0.309606494462111 0.07149158028208333 1.6034638585502579 -0.6162391774835257
Ni 8.621062727272012 4.349734219557658 5.51870260208761 2.511349952486662 -1.4381198137923876 1.0500107631550175
Ni 2.460108530474554 5.646292010055994 0.9729032980895594 0.759063443872325 0.11135062126055016 -0.5620544639110062
Ni 6.753726503631638 5.045021440392426 4.883171101082524 -3.0214506490381963 0.32012548350854547 -1.5778081056553666
Ni 2.950412109519176 7.687500843737192 2.0608933968218768 0.8065689456524562 1.1848229578726177 0.885469931024733
Ni 6.449719625394716 2.9354293026612774 0.4158144578966002 -0.5393354250469357 -0.289232907694747 -0.6622889206537369
Ni 6.235655774516213 2.2114327330507093 11.513012330870326 -0.2916230051934784 2.3293325608381688 -0.4958385302055654
Ni 6.906104051059436 8.498576895622364 9.903918916406402 -0.4771864623220169 0.7062606982489966 -0.8433552612428702
Ni 5.8812689772885545 8.850626670571941 1.7511585046931042 -0.25198147954245637 0.03229254148511858 -2.75151849855459
Ni 1.1210317141026636 7.296414483225668 11.336635504467495 -1.7550540440571452 -2.12057389654009 -0.9247918685528074
Ni 2.8597485772687006 1.4808038235363365 3.378043771369727 0.07678856701496453 0.12578119486358338 -1.364771897027856
Ni 3.406879670363747 4.354435975840438 8.909508547288949 -2.473664779231062 2.0644888806210635 -0.8742519508217265
Ni 7.678586905008541 5.053843006699019 12.513681855306467 -0.5829922425049379 -0.21361444972848373 0.6471368955036468
Ni 4.894343545530506 8.0946507684447 9.07037881520081 0.044944940141806465 0.342448572485778 0.20011307280793922
Ni 2.8748237565486576 5.409735474406232 3.332942012575416 0.17953524865658757 0.7307527698530899 0.20680976810182444
Ni 0.8067705732930217 7.014493851102948 2.6373841405440155 -0.10920760677561839 -0.6247155903856532 1.1051961500779095
Ni 2.9282150164985037 1.667922638900358 5.762272052020058 -0.8200880631848133 -0.1776871397042553 -0.3616066334714676
Ni 9.007899956368842 4.631839596524494 3.0902242363743477 1.4672077322972796 0.7472703078921389 -0.025876610656445757
Ni 7.606832007553453 6.78856014398992 3.6106495385280444 1.9906599104550555 -0.8039466775382607 -1.093552138081078
P 4.228560076301241 6.011347822031417 12.691384225965837 -2.052574131461349 -2.2215326330433545 1.6183474605303096
Ni 5.081619394012027 3.2999863035575836 9.30937952513824 4.262526772976588 -0.5579643530020326 1.626737741476534
P 1.8635120053671494 3.906688371638195 2.134899410202532 -0.46852415866132857 -1.032992117109834 0.03582446589777701
Ni 5.474488542269281 6.467325809039077 6.386379855589163 1.055454559878408 0.7368061751360214 -0.040943275181581106
P 8.961889252941473 1.5236369156448901 12.47751712834632 -0.7997876610645644 -3.7001342089998728 3.434837243295433
P 3.890781840559711 0.46464159647253356 1.427782053274724 -0.7755053914784321 1.1802415091495222 0.8395515712260637
P 7.276970088382341 3.083862547667175 8.191980818395141 -0.5664752186865212 0.06254491261175679 1.180949076739508
Ni 4.020500432856545 8.147977367699104 13.419632698163763 0.3736036579323436 -0.16930148674372134 -0.018880124733954583
Ni 8.90416572639708 9.11699178682 10.94539026339003 1.4254807848721385 0.6322476370966402 0.5119220660309893
Ni 7.732033588411622 2.775089252452032 2.9332742540546515 -2.7351778524130377 0.5625167482594055 -1.1063706300019849
Ni 7.737529747524107 1.0791870069101366 0.9666312106317834 0.18866472176168153 0.8646761342078335 -0.9516578397057159
Ni 0.6574450106900387 1.9601797450514307 6.685515012286715 -0.07336385760413171 0.8307095474544015 0.25316392988633174
Ni 7.127853287453211 5.357748275271675 7.86860529070098 -1.4474354347663587 -2.180230688970774 -1.0435590939924027
Ni 8.065211677534636 8.281418568604899 13.10175887192741 1.0921519152994417 1.1429219467634575 1.882956141918473
Ni 2.311093339209688 4.080764201007548 6.647673725866206 0.09363392070707745 0.3541213808380159 0.5902296407936416
Ni 8.007284931661715 6.783830675980522 6.142728194201083 0.863251743056481 -1.425873649435183 -0.26370211041349423
Ni 5.376610723856032 1.162405321942692 5.440356008594423 0.052743867360934976 -0.15086050642971438 -0.03618801988478284
Ni 1.02514914000588 6.0272635903521055 4.7785427060652355 -0.9233919028814871 -0.6695471448780469 -1.2974023093339462
Ni 2.381296379974192 3.642918920449981 13.242066114964818 -0.9368757963005349 0.3944599325560626 0.009297109031209796
Ni 7.7244775242872326 7.090571777910377 11.381696619396099 -0.2190389631781647 -2.1659173576718955 -1.3199717099940298
Ni 5.590406694710566 4.446189502671205 11.810457995968427 -0.9769304982295756 0.3204373583220094 0.23412388253574518
Ni 3.8910312460992693 2.9322978775534922 1.324685193015167 -1.2748244240334303 -1.4653742786329667 1.465091457285225
Ni 8.96972243433204 3.4410667037676195 0.39811313065751863 0.6684963350160293 -1.32587444863171 0.20671900816023106
Ni 6.394758034269874 2.998565853138302 6.186059173664533 2.685086335073285 1.2462527830433245 -0.34055341234559416
Ni 3.7057044557231835 6.681925419965521 7.989943856868662 -0.9204454186586535 -1.442934975792844 0.7519011217959309
Ni 7.292470180803768 4.856517038697527 1.4034871825491024 -1.8555461253366365 -0.15759499694007054 1.8274851054343624
Ni 8.129235003263423 0.4128335998367705 6.168591548653259 -1.1186926419024477 0.8641395449780731 -0.06335840965198765
Ni 5.812811775300957 5.848633800575266 9.881138029678318 0.4905448859067939 -1.239071434803537 -1.6573480101632232
Ni 1.6332922178706044 3.417604108564746 4.6045186052522356 -0.8150394450173124 0.21971542041989903 -1.2410465562520367
Ni 1.2109285552500524 3.8153320462222804 10.015307125269933 0.7741833302328989 0.5370000920455396 -0.5075941280795967
Ni 1.829306497478865 1.2777045791561843 0.8712677695469689 0.6747050349299025 -0.03565657286134504 -0.8345865139113047
Ni 2.2113957840818856 9.230942406671437 9.467748347860756 0.8681098424797307 -0.41460118339062796 0.8570906085510916
P 4.10329383474763 -0.06551791151769423 11.418955959557639 -0.3824937613331219 0.7417627478103483 -0.6970425220848382
Ni 8.675968894943619 0.30328822079330564 8.374712867435601 1.5080612759785317 -1.1480896070073259 -0.33371942014289624
P 1.7884778869289826 7.349879641113161 8.643469505690756 -0.7035049898807303 -0.34827983445557437 0.874324713041191
Ni 4.400280408908101 1.6175150081830028 12.94571598679233 -1.0199694795979208 -0.44733569750917146 -0.10371855863658912
P 8.103694028564233 2.2326599156397657 4.882265851346349 0.5980874462751634 -0.3751203516871862 1.197894703454911
P 4.418819554015253 8.136125985948992 5.424998169702968 -1.6354254990585186 -0.365362500969474 0.49122468558263793
P 0.8606393986649112 1.6696130542240295 9.475630486635014 -1.6755979575123463 0.3326431563595819 0.41861364698413067
Ni 4.735213574050228 1.0916480466458363 9.670488263519102 -1.3658820993728993 0.19771526199972403 1.3055149111387516
Ni 5.047358462670507 7.244806011021551 11.33459407394 0.8583275662819863 1.6078817851122953 -0.17625452102278677
Ni 8.654242901275445 3.1093203871865134 11.396783807090925 -0.6422654263439583 1.028479831061777 0.46787084134804585
Ni 6.214539438833627 0.18078945700456914 12.064276166128272 0.3350995883198745 -2.1157445934722467 0.6009917644061521
Ni 2.512964030376461 2.075405104327276 8.299976188196464 0.6240360478201252 0.6067114404987487 -0.45544598532113173
Ni 0.17226625362122594 9.116271281927942 1.9234386141776392 0.3511329876336533 -0.6552484688671876 0.5262030014300357
Ni 6.520643171051277 8.2378834460887 5.07596158316094 -0.32351599724733315 0.3827665553785343 0.36463359322324945
Ni 9.165967644995447 5.769535295566523 0.9030577385984218 1.058811649276099 0.37705819213984737 -1.2263277619846233
Ni 1.5897016719011707 2.1009737907530854 11.627564295189364 -0.1519848498421447 -2.1886757344143337 0.3642016478921534
Ni 2.7230096808954167 5.718536481347993 10.864096989633174 0.7286614345417 -0.5510887089281219 0.43687053631178957
Ni 7.728976061241484 1.5441805423107133 9.917776627163626 -1.1590255371935394 1.8565578544306027 -0.702026862673307
Ni 8.977417057089518 8.238271410261346 4.689069854335096 1.8992844467648515 -0.7497835612322958 -0.9841272730883309
Ni 0.5182333045782473 2.147317034899864 2.6810116354822724 1.5175391335619801 0.7951270223641016 -1.6048406842931264
Ni 0.8542481507826796 0.9955345414939062 4.517816926183851 -0.31735434852131156 -0.43519391994031503 1.1429723403854188
Ni 1.0088915937235738 6.553971140930005 6.887498397808401 -1.426777649306691 -1.339434960924964 1.6955702868692155
Ni 4.68915668441183 -0.028161580312992672 3.6392702097786684 -1.4692185920797214 -0.16279839551788092 -0.5610741022756079
Ni 3.386797905808217 3.2543912760294793 11.21409332564039 2.11726720076436 0.6333652956408512 -1.3474254353296087
Ni 5.013171429266635 4.751036969948858 1.0438758011298117 -0.8426093842157812 1.6365709255168717 -2.3447021013157037
Ni 2.9914347021553813 6.36124531954703 5.858518573459752 2.0013929806018433 -0.8020713148924187 -1.279866871553344
Ni 8.175532061199172 4.683688237025964 10.080715113605379 -1.4635207703639954 2.202188681299104 -1.6608899618782105
Ni 2.0980825339426525 8.96031892176648 12.221090360987542 0.7214430624163898 2.3273350707921656 0.21872374593059107
Ni 5.4574273559150654 7.066527236448533 3.2233522947693625 -1.7319367413133913 -2.156788913008066 -0.1561901461727439
Ni 4.003069756814095 3.490070273669685 4.158789338471971 1.0573790305946307 -0.32089167225060866 0.9649951802445703
Ni 1.5348786394094165 8.77624839633039 6.718191756589931 -0.18538142302471944 1.595104430841969 1.0434688482714416
Ni 6.117456023250082 0.792114764809211 7.947032248201358 2.1145312898904356 0.31277418534979684 -0.9867852795364683
P 4.520364557584227 4.671873804244674 6.748584130895638 -1.277502999306858 0.24658010602122699 0.0404226267914207
Ni 6.116135097614644 6.650195492988406 0.15616296928375747 0.7461824741445988 0.900591874267836 -0.4090830817858761
P 5.448596552366268 4.658849292734417 2.9994664842533734 0.6027989928182199 0.11592589933605843 2.1192037556654406
Ni 4.507912755090733 2.6534347726009107 7.173168426542477 -1.2422313205887574 -0.93583809906464 0.7193249876321224
P 6.939071768492135 7.935613169386479 7.506143296336963 -0.8933303076094165 1.4254211352787967 1.023988885169959
P 0.4895987774643148 5.079928978688355 12.112378181191046 1.6467969741202542 0.339703405640473 -0.563863749205603
P 7.658024803858306 7.542725546644813 1.5662095175232382 0.7493217911045289 -0.19875630166972866 0.276692094915259
Ni 5.5145596989582835 2.023223923106397 2.8395568895309204 -0.15583816214996388 0.03815619935474719 -0.3339271652783281
