# total energy = -340869.14965373155 ev
CRYSTAL
PRIMVEC
9.26367038200353 0.00000000000000 0.00000000000000
0.00000000000000 9.26367038200353 0.00000000000000
0.00000000000000 0.00000000000000 13.55831799021312
PRIMCOORD
 96 1
Ni 4.628667011729806 6.003145576130629 13.11001208533798 0.647079045682518 3.665609949970758 -0.11074744045891251
Ni 5.22733170964926 6.162767880344944 10.610780350643315 0.2785186066010364 0.016731710932384087 0.06953908454140281
Ni 1.1100193025640017 0.14676618246928433 3.8979894527786922 1.6079599466483985 0.5128826301720457 -0.35053597747960274
Ni 8.607385646349718 8.085553830512183 2.8178797627512098 -0.19736302086662783 0.20303230333726324 -0.7491708673489613
Ni 6.632510077669504 6.8003585211759265 0.5330454888252577 0.7162913430121213 -0.5028632982628307 1.0968727178138789
Ni 1.4786948561082716 1.2647596524912215 12.18984985435494 -0.368487676862017 0.00892069952839754 0.6835488584737776
Ni 5.008310750996886 7.854981074903436 4.155638064156553 -0.8498010168682139 -2.039784178785532 -0.5515437941876695
Ni 8.80669351444623 0.9302763062973685 5.908456969402835 0.22850576501801936 -1.016549141062462 1.08991325577691
Ni 8.953133615718349 5.023447588387995 13.126418045570325 -0.4474755655211455 0.5294073672999463 -2.7489751633074464
Ni 5.204385598132873 8.560409573883188 9.614460559148622 -0.42273024025566547 -1.1405824999970036 -1.5080329938437578
Ni 5.344693149617409 0.844889350992103 0.3566188865525149 0.403690192905079 -0.6967386176911743 -1.1089129368078643
Ni 4.793143479220094 5.973789004715438 7.952848046936548 -0.03887019470263628 1.1968014703907324 0.6202099892058157
Ni 3.589236877415649 5.816445563413125 1.8101304547490797 2.347344166924241 0.11888626751596298 0.026206740302354866
Ni 6.111613892539741 9.297575407564247 11.508856138720676 0.542861435922323 0.7909602925809216 1.4857451289798347
Ni 5.412845972558892 2.022574207435917 6.409721584276027 0.8400408521576566 -0.5249794134355799 2.067985580920413
Ni 3.8311205745510435 4.585155551983149 11.582531961939136 -0.15228772579454417 -1.5797935115165116 -1.5128317007839818
Ni 7.029940064054656 3.757177957625812 5.488949803782377 -0.8592022555774557 0.2085321501095699 0.5953358516719554
Ni 7.15401766504395 2.334046596420765 1.622713433944629 0.6027740531175554 -1.3740759480376012 -0.894139433774273
Ni 6.543337986649424 3.86296907329684 10.018281551724792 -1.1001968970911051 -0.5506914734897032 1.3627396970891759
Ni 3.645708212015525 2.4974855328291663 12.964056474026421 1.217385208079355 0.31827120390862607 -1.4010699601279417
Ni 6.938164881659483 6.265742840222277 9.04414361894063 0.6537063211910483 1.0779455418920725 -1.5711522909017457
Ni 1.6447461475621397 3.7247921659983243 12.43456360278959 -1.298229690331248 -0.08967853560375523 -0.13502585339030293
Ni 7.105865106439921 8.904128799439913 7.796046530351115 -2.4717320809847236 0.9575487512688541 0.19956645627584987
Ni 6.2723848918804315 2.0436861122182526 3.7211756290843163 -0.5470909006226384 -1.6375757126323023 1.165790880941831
P 8.554073223347375 1.0652757746576038 3.7720998778642443 -2.231992394924098 0.9470337106701431 -0.9176043496654326
P 0.8179505975445244 5.034119336658837 9.505465139895227 -0.19903912301747012 -0.4517371690109768 0.8233888454232723
P 4.944104251634724 2.1996677939755873 1.8338574936779946 -0.7735387546703646 1.3542398871482804 1.2294225988598633
P 0.8500770064015405 8.339230180033672 12.324375022792026 1.0883631376809708 -1.2144605782333924 0.23016489788799716
P 7.638980072792985 8.818856713647286 0.49916824626755646 -0.4059103404848493 -0.010955213459923068 -0.06887573992579106
P 5.391400575643093 5.510309048563698 5.532824399407694 -1.0406750875763884 -1.9564984340819982 -0.5299362432202228
P 6.592546603676087 5.256049087808646 12.162963903828492 -0.10186170793350843 -0.12725520830594858 0.46634746272498395
P 1.7471097051947888 0.7361718418499302 6.761601177065205 -1.3819558650063102 -1.8385896999879563 -0.6591614307683487
Ni 1.2068339216426278 4.327106750045132 4.279845356531083 0.2816702648561407 0.08421005629001627 -0.9862579462780885
Ni 3.3183856830207707 5.483110912345648 4.0180206825486255 0.591541931847162 0.5363866268312568 1.8907000475299502
Ni 8.721208364235 5.438867622639446 5.904470812040905 0.6269010280727462 0.03686010625114297 1.7025194644935389
Ni 0.7880669232850526 2.710373941693955 2.214832422377818 1.2696819606005423 -1.1275560058303482 0.7867156583719548
Ni 9.37400068814971 3.0968727970377925 6.06452758239576 0.25872805423767054 0.44553283997247783 0.8442644033207007
Ni 1.4905430905166117 4.701183023417442 7.494834582672503 0.11659772859210242 -0.07391201679811786 -0.5097338001304189
Ni 8.542336152983522 4.156497732767258 1.4723112608535514 -1.4889906325003262 1.097356856539149 1.5386242363670535
Ni 3.6583068037241593 4.558290907898563 6.51984253947986 -0.7635600461910979 1.556980370276738 0.4258746994219182
Ni 5.549049718067747 3.974549982951615 0.15361851944492874 0.2006946563430221 -0.48391349663320526 1.0146151572645428
Ni 1.0653591476909696 6.391728757308615 11.161926125012323 0.7319254500049523 0.5322072986425866 0.8010639566738268
Ni 7.685798662863158 1.3815004265443118 9.561230582812605 -0.012029163250392185 0.12430281054584398 -0.31477347516801274
Ni 1.72422843937102 7.039175943417529 2.792213837613018 -0.5903563961794929 -0.8228525133038279 0.7954047015055205
Ni 0.011348922575181794 7.1616231384210005 0.5930472082046634 0.014404605461104225 0.18014022923043815 0.5282817383359354
Ni 6.4640687592591455 8.91684781886341 2.4698371822309397 1.0884186735092545 1.283761321511744 0.0861386407712968
Ni 9.31304573708882 9.026409248376654 8.134299264020147 1.1955007493014378 1.5920648726846969 0.4721910659899545
Ni 2.4629227786637897 7.4261750369615624 13.859583826383894 0.06904826094791335 0.41487783409078227 -0.6946920195747907
Ni 2.5749020261446462 1.5038364575032952 1.0605763146768759 0.20833031851140896 -0.8011755425510267 1.037811135765032
Ni 2.9300155662613867 0.9199019218455311 8.564287346301741 -0.1759616723727163 -0.6784539604493734 1.104327631430027
Ni 2.9074307378895856 2.7506060621282176 10.238930137261876 -0.2135494008185032 0.5534327836802663 -0.09867611111667522
Ni 7.00066686567283 2.23085857212483 12.849231427006671 0.5801547730561428 0.06142571140564904 -1.8784037466611005
Ni 2.9527486133591716 5.519202172122734 9.635788307450671 -0.1216219212795712 0.19661971494270009 -1.1887791143068882
Ni 0.175729047893581 7.418828946354983 4.818084058968002 -0.523998280469233 0.12766941302523174 1.1266355508986081
Ni 6.372228731171354 7.116648018755253 6.238941189096233 -0.19168499664524408 0.536544749675676 1.9155034797268753
Ni 6.453758294132888 4.175664266771055 7.730343021856515 -3.404345502464479 0.7872098243995539 -1.4392647260301081
P 3.1840254079163413 4.616726140617725 0.009064501460954522 -0.787192083787741 -1.0426967459921075 1.8018872023605998
P 5.2587540795578525 2.1573328203664284 11.22684314789217 0.2657780191059164 0.22259351329864246 0.6332413684684771
P 2.367951629989588 8.827647936832207 2.0188881929941043 0.4165274538790633 1.1456437165699946 -0.4185691668994404
P 9.088494367223172 2.527212651059318 13.694986004811707 0.7111025997223301 -0.05889985966000179 -1.111331059331054
P 1.652045919816848 6.0091762255441 5.650550827988578 1.0683406718124568 -0.751011520102126 0.075031989335174
P 7.460330189630484 2.2965102040653353 7.488408374534064 0.8555998829381781 -1.1598014961276155 -0.6547794996505691
P 2.4929463343459086 2.4665170827689 4.513157379469419 -0.11924313663474946 1.187007367118446 -0.034208527560908836
P 3.337385470957835 7.755063126249522 8.86681473517346 -0.05983291299723244 -1.4594890234967832 0.25665728775157093
Ni 8.230558062876332 5.5481974603933395 10.761467844781912 0.03512204051411371 -1.5623424059195996 -1.3265136248776057
Ni 3.1381146575428196 3.476590645667865 2.5229050443354097 0.8263780099585832 -0.5360618965019864 0.10786291982226584
Ni 7.1060225888362805 8.801672605103525 4.925641756579351 1.7170091734692818 0.387536723073668 -1.1619463103847603
Ni 3.590079871419683 0.6479270442342872 11.254678624631952 0.7307975070480963 -0.4670429461301118 -0.022145425748787664
Ni 0.284639241379533 0.54171535792828 1.2130600345009903 0.005863657869628611 -0.5530733434583185 -0.31427159583092973
Ni 1.366150524734601 7.130867752779335 7.56841591645315 0.6002890819121726 -0.15617317689187943 0.25457803662503903
Ni 4.1570813440008205 8.81582749343499 7.181326038939451 1.229725989032895 -0.15910989092270017 -1.2914232089323758
Ni 8.476073118798334 0.40447130223642563 11.723606545330638 0.12314427146136855 -0.10339768496206063 -0.011328794749257909
Ni 8.453988528626727 4.188698250987267 8.383107554760102 2.2935456330465467 -0.36817863026203046 0.46427232536351015
Ni 2.919001062186706 2.457809232617344 6.696697123323881 1.0930088639830982 0.18480189637216562 -0.9108192084227991
Ni 1.2459544016320105 2.455882389179553 8.225031357131208 -2.1314167527918646 0.14766848185497794 1.3464363319434618
Ni 8.408559489112655 3.297533161008907 3.8164904599293923 0.1819032346681319 -0.6665546379086262 -0.4882473481218688
Ni 4.750743659918317 8.023996740876983 1.4175361042991537 -2.518197828646431 -0.9993317487429112 -0.16996765957281051
Ni 1.6240696352873818 8.673833953942388 9.831462037659465 0.6606264453496493 -2.483689767567232 1.556738429469261
Ni 4.6938184054701155 3.44592789672994 4.882404501475764 -0.9202826678285441 0.4946373108086127 -2.560437196931616
Ni 7.239669561321912 6.018578850973705 4.262057256678937 0.04429599370389791 0.4957642253242042 -1.1473285604715853
Ni 8.774539314578092 3.3152916171158564 10.762321955190394 1.5427290025640463 -1.3398208835094731 0.39220738907645997
Ni 3.269306757379343 7.441376720045288 11.329832003275065 -0.1687073048031482 0.04264663102593301 -0.48900813754729333
Ni 5.1117211033817975 1.5709702767036402 9.063600105827133 0.846118168699988 1.343455652048583 -0.24840661770700445
Ni 3.457942877205012 0.7852452092891336 3.5866087741305464 1.6322581570741308 -0.25306339975272546 -0.6150934939148568
Ni 7.8904053504135945 7.147783214882251 12.170895458402708 0.32108476209802117 2.460262132671911 -0.12291775727285928
Ni 1.4720620681204908 5.117937026202748 1.3026480643208624 -0.5570966056850987 -0.7628481077257377 -0.14889001296690485
Ni 2.5671390703712382 7.857120982759828 5.086551710975651 0.8293764304652748 0.5292556722134304 0.40373750120324664
Ni 6.551860563393499 4.286059426617959 2.6791776053424883 -1.3462720384514557 -0.1912085712294578 0.26632540696895424
P 0.7833906224802596 1.226750812946718 10.109162789928874 -1.1704486914288166 2.964400955213056 -0.3414592119893151
P 5.858521154251812 6.234533534732286 2.551051780399758 -1.8899487711862226 1.8035684467177648 -0.6493750408055461
P 4.608509264995991 8.296987843128253 12.765102478138195 -0.5747713972570424 -0.18419280203325697 0.4622092721868943
P 8.422445731003274 7.503730485332651 6.9123155358478865 0.6852838388870134 -0.6634921969332186 -1.1671569080514221
P 8.99816431740634 5.901059928609199 2.719310604503749 0.2877516951635302 0.05863169360027967 0.10951973869939849
P 5.211861380124688 0.35055859339384704 5.21991150967969 -1.2912602009919505 0.4377115441558462 -0.04075918419523303
P 7.4319092489230645 8.243193709266462 10.033453591063322 -0.35936077486008433 0.02960136780620063 -0.032543481153660084
P 4.557234849475927 3.849879507058384 8.90812699957333 -1.143209138986573 0.672578732615519 -0.006929894350613871
