# total energy = -340869.8727593863 ev
CRYSTAL
PRIMVEC
9.19748397336701 0.00000000000000 0.00000000000000
0.00000000000000 9.19748397336701 0.00000000000000
0.00000000000000 0.00000000000000 13.46144749094974
PRIMCOORD
 96 1
Ni 6.265408921642892 7.215131928590722 3.306414583089932 2.0395106134091714 -0.0038741382434255857 -1.148355716184519
Ni 2.7890358700341142 0.20583969334869026 4.799975625248426 -0.00728573502813584 0.9612146301562157 -1.5404026684237149
Ni 9.084391799788863 0.15933261517989433 0.9986508629222267 0.8287341688955856 2.530902677807609 0.06580841385437698
Ni 5.457695068640719 8.107977694087776 1.1424378905374224 0.8466835542851548 0.20652848941597982 0.8755231042246664
Ni 2.7777965445081043 6.816310624614586 8.719289392139164 -1.1045222639393364 0.7475716411826416 -1.0631434438822336
Ni 0.7670664919304481 5.035282218040841 8.989473764250057 -0.04383628045865998 -0.6702961072289294 1.1238536172780966
Ni 0.5195152886038469 3.952876305988087 6.578945634888685 -0.2350430519159049 -0.24571570113840266 0.956598985761075
Ni 4.119323175091361 6.543789171803072 3.511001579109127 -0.8399328658248825 -1.047528620163112 -0.5648052871832661
Ni 3.79077984684701 2.684451278744215 8.813008075756045 -1.4545108535559015 -0.9251327968319937 0.2700344803894253
Ni 0.7730724490241342 1.1652108610794847 12.186621316913188 0.30288932213591707 -0.9896541164438312 0.14348452568061743
Ni 2.4369653775544666 3.151940998740963 1.5616628931607754 -0.7718551963203546 1.2303278842829521 -0.23369682230065558
Ni 7.54760258253033 7.471953276105264 9.260345188420517 -0.8850719242553661 -0.6851036045554072 2.6643840695289276
Ni 6.213029249899336 4.601409302297419 10.758954729581653 0.760067202546491 1.2722134687731443 -0.8161933561160976
Ni 7.143115628370872 3.2187055355603618 7.202008958328437 1.1576942199766256 0.7714769870453294 -1.349932260911862
Ni 3.4587690671105924 1.5044508632900786 6.599946250251646 -0.5698886152434444 -0.6054261460284219 1.4080307077164913
Ni 4.866048511266224 9.132448654022415 3.3407138406607957 -0.4395295712011914 0.02935942699872363 0.012044075648727644
Ni 5.534310110892489 3.9831728184943693 8.477292549438713 -0.8436923328673148 1.8893144800363333 1.0731746028659905
Ni 5.54509875969937 5.551914095390674 1.2535370597897384 -1.5018137524069233 1.1693037791910958 2.330815316031283
Ni 4.542030345181282 5.705769608810553 11.922037292848767 -0.7906805565569739 0.48221374033327913 1.2549441401697354
Ni 4.435431504881402 1.7532428072168917 1.3186156977802357 -0.244632752486869 -1.4786902790155823 -0.35649348061461833
Ni 5.269514544694599 9.014040244184567 8.897343486131 -2.0031066208588406 -0.6907379200230491 -2.263403819355844
Ni 6.030238451614624 1.8946265322462064 3.1059866893644035 1.552544188882255 0.5027614825776437 0.48184761524311204
Ni 8.532607138347041 2.22876193080137 3.855398610634315 -0.5688390909330074 0.7168413019783203 1.6001589625467407
Ni 6.365330388512427 0.9405991027565016 7.174560906636727 -0.3575324634020939 1.5131371478395426 -1.4967764470933318
P 4.1897942979884855 8.15318332826154 7.198253625585172 -1.3097158365939767 0.3237152577423328 0.5506125406226517
P 5.061816959565012 1.2699150196622144 5.159288216679941 0.7579786954485784 -0.20937624327742005 -0.6337437620261924
P 3.732955264537661 4.317630128991768 2.8378754301614997 0.9272272174671774 0.9317757560698081 -0.36946649583551855
P 8.684586365017898 5.949171827075957 13.044667481706307 0.7548296082966355 -0.328574385606847 0.0737189269507053
P 1.8186921038151613 2.193903466199425 7.927567204678786 -0.6577200703361319 -0.028551072164815342 -1.6015838679187255
P 6.385583248420997 3.4775503295689494 1.63081417709474 0.4327680841076418 0.3163932701596229 -0.06651392456183383
P 0.5275778031342071 0.3403280645753459 4.463977736170335 0.3500058160077456 0.24821892717623056 1.5912804291101885
P 1.2714509995008754 6.108168734087521 7.271403055841687 1.5362505939285542 0.4425706720203604 -2.051087005392861
Ni 3.68259903928815 7.694697945163289 10.731034846957467 0.3696469872774408 0.5957282020143676 -0.750183881994508
Ni 5.877900523065278 5.505696737969888 6.513940576770699 0.7401177560077575 -0.08815644253227398 -0.4631515814955055
Ni 2.129300338135028 5.113368857742824 13.290675347206998 1.4296020061293637 1.3990678420962486 0.01570378388850199
Ni 4.897237179726699 3.2799055945211384 6.179531093190432 0.0815214537142596 0.5702601396502501 -1.0441203658125113
Ni 1.6469658788592456 2.1736690012589817 10.044406791404127 -0.1734623029896303 -0.031210878385165598 0.2607854509873315
Ni 6.7305532832033625 7.809022672076792 7.2810815683220635 0.4261310384070983 -0.1282168008882695 -2.3241723567934685
Ni 5.870855250272378 0.4048787669805788 10.780936716494226 0.5233840439240018 0.4406711410048023 3.0172756917249
Ni 5.98994427393095 4.41059829790904 3.6438390019463243 -0.44878605680245287 0.29023718058954534 0.7079452850402711
Ni 8.923812925518318 2.5947298217014767 8.548476477350787 0.5645381495648084 -0.5438572241766891 -0.8944518228083693
Ni 1.752985277663104 5.219066344604447 5.081750666776569 0.46445615923954203 -1.0791806998507543 -0.718014496350815
Ni 0.4896786503007571 7.44895956594567 5.43830401298893 -2.2283501701858204 0.011795964193663555 0.109888692003043
Ni 7.965600640779567 7.526135654725333 0.9567498847726008 -1.386260405918935 -0.3026990605019819 -0.515428536522351
Ni 8.740277131024435 7.775838149574466 11.703423213883811 -0.37765057430820764 1.0835999119643727 -0.040807006714032944
Ni 6.516518631553793 6.495649540212945 12.975126224448037 0.12449590039325656 2.299016940573763 -2.5043634938665
Ni 2.6926370395610304 7.271816022876154 5.345621885826043 2.374170028867834 -0.24646414926865293 1.07475326020702
Ni 7.706599489541894 5.566390935307155 2.127325638306522 0.09265021663756946 -1.8507793000756125 -0.9773279907783103
Ni 3.2080088615941182 0.9010959087023183 11.177470606183684 0.7573269207971924 -1.1530482365641819 -1.0663102716459893
Ni 1.6957401368497775 6.603710780478975 11.189047479374837 -0.6866076999047594 -1.369328663160603 -0.8067977738338106
Ni 1.4877390347460855 7.960882331454819 13.087690552911722 0.39062770329416596 0.46854575592788344 1.000257345880974
Ni 3.87731897440366 8.414419468126725 12.956966711912395 0.3460861692383652 3.5321028472178266 -1.8427299474085748
Ni 3.6722794621685235 2.387850812653573 3.709369236404356 0.5747413153500553 -0.4850792348065323 0.10607626023548829
Ni 7.531129888571997 0.22233538101718336 4.6933206802957566 -1.3805852099110287 -1.0947014211941728 0.4130816614223079
Ni 3.1789356144683274 4.838226121973116 7.457668663605718 0.08732494776991412 -0.5861881237344162 -0.7412657535692718
Ni 4.656529824292 3.0767883564553444 11.139711255108004 -0.21149251828947446 -0.9200890637604993 -0.34253573288294553
P 4.664660400204432 1.3642904036412542 12.62177636193511 1.8857339617739264 0.6015885174498865 0.624429426603802
P 2.013678765968523 6.967995531795399 3.111680851748326 -0.22389423438793699 0.768514819093212 1.2124353202732474
P 7.741154437169733 4.183153714494395 5.281611995483764 -0.07801524033321404 -1.2768417115737751 0.19735864999125366
P 5.771329275217589 7.261275706138996 10.687245625329535 0.6483286018189028 -0.1870647242644133 0.2980438211181577
P 7.222076029058918 0.08910522561046073 2.4242185843903936 -1.0655448542348744 -0.2857063825987273 -0.4118812133563035
P 8.100757669097664 9.42328229760503 8.163277567021602 1.3141849281089237 0.1626724114629779 -0.5557136092946429
P 4.023522181082425 5.352908132701415 5.428100324168509 -0.3380321885856372 -0.566004963918322 0.10686610312663532
P 1.7838244417291522 4.117814787704891 11.205900949173413 -0.22333167701624765 1.6767582963690348 -1.1865895628547372
Ni 0.6035508609983202 3.470863758654539 13.037250630557228 -2.034747644802889 0.3469603443132025 0.07934167245412142
Ni 5.35330362451616 8.00522340212658 5.415122674154434 -1.55634865023001 0.38442440269693146 -0.34080640889666464
Ni 2.4873951826764893 -0.03315141155969701 8.839782871614283 1.557553983392021 1.625848139782729 -0.6773442723249625
Ni 1.7532336097328278 2.5211315542226465 5.0927076295418185 -0.3174096272392791 0.0929381801916335 -0.0924409288402408
Ni 8.38478517447304 5.631665479708212 10.775202085180423 0.3239240313190292 1.1545009098503085 0.7612306267269728
Ni 0.479085907904435 7.788015618474987 8.445334971310503 -0.27728807662804505 -0.3331859162369294 1.441071183111228
Ni 8.92618587640679 3.4640576204472993 10.645245314352021 1.5409297445717784 0.07693511989515782 0.14608133987351615
Ni 8.381207353172206 5.913936265627394 7.142939956425252 -1.6281248516320477 0.02287381927437996 -0.43641313705939677
Ni 2.789587719077945 8.878046244816662 2.2140045676209423 0.3365743730931881 -0.9795108573622421 -0.49585935614117177
Ni 8.716685584400691 3.0431531572338892 1.822909150258431 -1.5153621805153192 -0.37385639737309806 -2.9436516384808464
Ni 3.4220159207914964 5.048802519614682 10.007644447600965 -0.18082928487766275 -1.2527440471946232 -0.0393911002031128
Ni 0.7991454768483016 6.267938229760448 1.550206507010859 -0.5207512342868451 -0.6105130736330261 -0.2753723476625709
Ni 7.008142549734051 4.290672303200659 12.932896896117331 1.2497273718554864 -1.1389755605211997 1.3988757806901007
Ni 8.86809456705959 7.9629425678851185 3.0849465248199683 1.001320497038166 0.2950978511159563 0.22500469384329636
Ni 7.202071501220071 2.5095151318500193 11.372553841919716 -2.394096078367799 -1.784123964839908 0.9600090398838887
Ni 2.748962431967973 2.7745958200538894 12.490769238426616 0.45076632045727527 -0.35733474556899103 1.4637747953563307
Ni 1.3097861130789514 -0.12424329372794671 6.831819422243029 0.7942407631044063 2.179454215816066 -1.4894729714533832
Ni 6.818490428337715 0.1852686004915106 12.810263162100558 0.6898884275385603 0.20821770419294466 1.278926876237578
Ni 1.3444698254836838 1.501581248262161 2.8784878407937815 0.32987587802708995 -0.3285713002830535 -0.7377816516754132
Ni 8.928448457486493 1.733642968676853 6.2188117081302705 -0.7288622376985963 -1.0005918464022574 0.7169482598698298
Ni 8.68440241533662 5.823276665210145 4.1073839210280925 0.5285823002954897 -1.1137363263384368 0.799178823835972
Ni 5.062929855136737 6.63449475964064 8.51268262861955 0.6424220065264807 -1.5530722934715833 1.3392932931407773
Ni 4.648288878570801 3.827919287496787 0.20122715509067557 -0.6620382380955115 -1.0221405191073107 -1.325636364478975
Ni 8.468463884485836 0.8838864962704712 10.18295217285134 0.4182896879858086 -1.0787744655512712 0.6015046994868286
P 2.163395411559675 1.1067148624334764 0.6658960067250449 -0.7343410014249805 -0.2571496540069571 0.03920315256202281
P 7.140393173087975 6.858803000989517 5.195499631187675 1.063244231126156 0.6234590922707327 1.3318010985287903
P 5.888771949228734 1.9878614282013303 9.249172084779769 0.13870638756568368 0.025607673265775253 0.2640260694118162
P 1.5342047242365942 8.789649225479117 10.62657442170243 -1.7220976437357827 -0.9054013798413374 1.3098469628552023
P 7.406789101512973 5.044286554939338 8.891421226142295 0.5066230224155791 0.15682906530832344 0.023082592851076375
P 8.231867804427672 1.9335778772565595 13.325298356216907 -0.6735228416963432 -0.02231280456458738 -0.6002206905680824
P 0.6557327868345041 4.170939455657618 3.067433595414015 1.6318123277859635 0.44807797499183477 1.0812820624644732
P 3.601725561914823 6.795928999929122 0.4898791554533487 -0.24969114084638291 -3.612352376198198 1.31413736270044
