# total energy = -381166.84823923965 ev
CRYSTAL
PRIMVEC
9.25061260736322 0.00000000000000 0.00000000000000
0.00000000000000 9.25061260736322 0.00000000000000
0.00000000000000 0.00000000000000 13.53920661712739
PRIMCOORD
 96 1
Ni 7.575261737782013 7.397233702197859 3.043451478679488 -1.4243464141573792 0.5770162274271611 -0.3440125745387882
Ni 3.9814080720813974 1.2426070114789654 2.2380848378279166 -0.3091805544612675 -0.9006386683453715 0.4701061584364678
Ni 3.041360840277721 2.2982221439608876 0.0243152346860457 -0.644336192830058 1.4017847268067793 -0.6413701682231987
Ni 5.096615649626096 8.083148110225599 6.162762604322232 0.760809222918838 0.4192710780624715 -1.3621257176542605
Ni 2.3441329332882015 8.122407709239326 1.3966232324637022 0.23937638918393614 1.2866802949307519 0.056917539122650365
Ni 5.894841742768266 6.273543313084926 4.6616435291584954 1.6457798457096495 0.7466689268627141 1.3503022426567712
Ni 2.3309785624593804 2.9708989256482323 2.2695498708357595 -1.8404316382927015 -0.12995126708087298 -1.1549331122917208
Ni 8.842771397834246 0.5639386081419531 7.037286823455287 1.1177606170064813 0.514784732290765 -1.4616492643728956
Ni 6.893778373092532 4.873176357784076 6.397599575698845 -1.475420092904743 -1.1402387435043395 1.054191119784952
Ni 8.161815318051405 6.565751657487745 5.615426070249538 1.2363203544209613 0.1497346203553873 -2.2765431849512794
Ni 7.266818568622103 8.82510272815559 5.2226950211712815 -0.42567183938249276 -0.03169038912474542 -0.7552592396348864
Ni 0.8026673121540681 5.081814669790572 2.7804787696967863 3.738844481085877 -0.2323912161153546 0.9180620060281415
Ni 1.097067126633785 1.1066045080153002 0.7431470218679903 -0.7671706463604917 -1.7927091354057576 2.1335399697824546
Ni 2.08373744491936 9.297975532675768 12.51405823966688 1.152634803175847 1.595774203215484 0.7333135886017306
Ni 4.129075597777934 0.6485576599841195 7.441432203170451 0.4072290592962728 1.3342030231020634 -0.16257368110158454
Ni 7.877812266844904 0.9605003358138905 2.7819144647408316 1.3806410028496285 -0.4196552008747676 -0.7672745189282076
Ni 4.539913795562474 3.3796742368681953 2.8828358708105877 -2.682934321727289 -0.46939550552268844 -2.717832933376687
Ni 2.7193840251807044 8.982945927489048 5.763383140114107 -0.04707407066966732 -0.5115993925842479 0.6170678440324082
Ni 4.162858834252516 7.190676777980733 10.289647657084508 -0.4637259659417369 -1.385370290004498 0.49213408477078474
Ni 8.147902397006014 7.471442114848213 12.409968498851084 0.38096266940057616 -0.3697562591617955 2.9578430994898803
Ni 6.1047566392855765 7.975655994170111 8.957471591069634 -2.5779206984283602 1.2233910479538026 2.5392037414741364
Ni 5.364596640160643 3.484030395321032 8.09131362578861 -0.49225646928126193 -0.6391788169988347 -1.4726083344875607
Ni 1.962249152306905 6.5625971986603 9.197115180647833 -1.596797759383992 0.8446901780042099 1.5964378049414119
Ni 2.955505906619288 7.213054009369565 12.957480794559325 0.5460948552579563 -1.6540207455622027 -1.270328850155922
P 8.811578332830882 8.355097613478547 1.080700943180655 -0.8562678555394803 0.39060867713077246 0.1322691165807722
Ni 7.2774105198169 2.318453233273569 5.680197933193507 -1.567277895548004 -1.0648002627593662 -1.2013281546164924
P 6.85159558056129 1.5696346609448537 10.154282520815011 -0.7343764826486062 1.2792801458119387 -0.14027141805995844
Ni 6.957006308827409 8.926184169819818 11.177860007381703 -0.4756342873435485 0.9098542734063686 -0.6880853128915505
P 5.998346844880561 0.47576732113926107 3.447731917335651 0.3165166831113646 0.8327944550078882 0.251194979085419
P 5.060797278424129 2.4349554458039315 6.185250843059831 0.10050930767067205 0.08444505511895779 1.0528466899419158
P 0.6799514632765042 4.89663591082338 5.373060950504083 0.48792570311639194 0.5647096421456661 -0.6740023524359231
Ni 2.1028122076823905 6.742281093863554 4.6564715117672195 -0.3358135836677636 -0.7080686979920128 0.23254522519471563
Ni 7.580062805616161 3.4435774673080672 8.606521857944582 0.2896864502923978 -1.6649229942970036 0.6483723105726447
Ni 4.605010355001585 7.074914614442146 1.2300354292311677 -0.9252405260544516 -0.09696684173505235 0.07018494565551783
Ni 4.412338599992659 0.0715997399543442 10.046050355767745 0.256719508448074 2.0611150790528248 -0.5566122098495123
Ni 2.6496714101553898 3.5783773911600965 4.383101114450063 0.4842551962433402 1.2582606061374781 1.6330569988263424
Ni 5.5690629259760005 2.5334374653845457 0.5886192420176882 1.5819843485202432 -4.536977637266154 -0.43035741778362013
Ni 0.31383812630995755 9.08183497401514 11.020142616376846 -0.9488321973314626 -0.21881219187933926 0.6915249347007187
Ni 2.35389232936725 8.884463907908437 3.491883240185017 0.9000923089235983 0.7494207785762383 0.8206799311325416
Ni 0.18234899663488735 0.2723047267689997 4.663484401025539 0.591578184401736 1.0871950855147985 -0.45013460041054737
Ni 5.18054645590591 8.348622184800504 12.50357914594333 -0.532365935707638 -0.3704838813564394 0.592039954529503
Ni 0.2423845460314892 3.1511286069829207 4.029227262746254 1.5207406712184133 -3.5229970282618166 -0.40372978789376274
Ni 8.437317056464877 7.091648972268684 10.283420144818711 -0.6073143641900702 -0.23492323850858898 -2.7962556935609646
Ni 6.909384156206611 2.643316239438512 12.019241132418061 0.36710416625092906 0.6802372776020414 -0.008402108020766174
Ni 0.7727526817839959 6.601264758480604 0.5826683230625682 -1.2232041287539772 1.017438485645951 0.10007299146420184
Ni 8.53835224506712 4.599182469191347 13.016823473087376 -1.451344797123094 -0.12081742310040483 -0.6901717631069341
Ni 2.9455244958427067 3.755175095295423 6.930299790836685 1.6939474065538118 -0.746316685729618 -0.5335113621659909
Ni 3.8292262475350256 5.241924269161346 8.619938946165483 0.8217816488371524 0.0024554035190280294 -1.2594150314568955
Ni 9.050151626554722 2.9350713038338685 1.3743644089135547 -0.49766735588418803 0.46820739875185813 0.3399602588462855
Ni 4.464327041664935 4.22834391941231 0.6138123598202284 -2.7089500290647606 4.477046765238477 0.05029926247518435
Ni 4.2917291155579385 1.0678999457454068 4.686271434543567 0.12344791874471642 0.8079187748121311 0.13487647229663222
Ni 4.443698176019175 1.9341457918442049 11.63357662615003 0.13058890066487186 -0.6555893971463742 0.16269786538427464
Ni 8.839709445130772 4.707710653835322 10.269325911770336 -0.44142627400327206 -0.6343605696745849 -0.408079066001394
Ni 8.089114755221795 4.731845501579622 4.207497664375214 -2.795416742599437 1.4094224458576954 -0.4386142584757736
Ni 6.563966289295085 5.588415207110947 9.044284888172417 0.0038383999094837125 -0.28737554277103416 0.5970250664489202
Ni 0.6192304435012697 2.2191664104143984 12.421585417899491 -0.4655149395213596 -0.14695731472056625 1.7680903084158133
P 0.8436345742163173 1.8529254149967707 8.333936837619946 0.22813295505963288 -1.5600564380989004 0.1615113012753412
Ni 6.506843757742363 0.46953333344478654 7.280951654242549 -0.4493226460322133 1.2644780478020996 0.40270726016651937
P 5.320323209227634 6.329583522987177 7.364651195212433 0.6063257750245558 -0.8849060881014632 -0.12545286498988717
Ni 5.880401536816235 5.442486796545085 2.488113164883214 0.738818834690676 -0.3692682637817834 0.19957262692343694
P 2.8188928627374077 5.886987972843042 1.425177097750146 -0.44025307963077726 -0.6966036347752068 0.3261086976751738
P 3.9899741391612062 0.4739893534365188 0.24548720142951078 -0.10617910436193971 -1.4685387924038773 -1.0902798950877095
P 1.8802424734057084 3.5709121469555543 11.577212644813876 -0.018757483113161246 0.29437459979668656 0.1300188870940148
Ni 3.222968862859592 2.5734926170644306 8.964376248162905 0.6213728991656654 0.08025672806922307 0.17222534525873565
Ni 6.720551405342525 3.0544412062073643 2.746685357548567 1.9174019823011688 -0.47494060371063357 0.7012797000946374
Ni 4.814027942116366 5.825526904076032 12.281617176901145 1.462507498608133 -0.21060703036072762 -0.29561824239580053
Ni 8.734853753608487 5.315568394455472 7.780197029645909 -0.2870328147196347 2.1756705804039176 0.6614479128096802
Ni 0.5699977592621205 7.43171073460223 3.154973161495198 -0.611458982486063 0.28542638946446325 -0.9458738860340872
Ni 3.9670326204161452 5.951242726554008 3.5648862980400167 -2.0612210085030696 -1.3091396523755323 -2.2027232136463355
Ni 5.757007618049955 -0.11877416293511597 1.309199394942704 1.349249890132857 -0.098615690192385 0.28731460762611166
Ni 3.214476800678961 4.907995662847145 10.727789962420628 -1.3324299903620407 0.37167018835505666 1.0165817940726107
Ni 8.225755550940866 5.385651033976675 1.808553927572351 -0.42228646785002755 0.6928593372414261 0.12526080358373912
Ni 7.393921982959659 7.443024233564009 7.471340358111845 1.79717719847944 -0.09602838908118301 -1.48578729507168
Ni 2.1064199465172995 1.1178255008531064 10.34135395507867 0.10613102473282367 1.876675451116084 2.104027305035318
Ni 3.510801667598535 7.498629664683591 7.60555471819913 -0.9008070756024358 -0.6405453583290581 0.5513892708876762
Ni 9.100326948197146 2.3453077610626463 10.437564024254531 -0.9360394164421685 -0.1980327932401428 -2.63588159121386
Ni 0.7368714064177285 7.84899660922762 6.0886485479183285 -0.20139193952036283 -0.42189900260362173 1.490004161366505
Ni 5.449767028501682 3.9316120255472584 4.593162170643248 1.1092628639481155 0.6035009039812509 3.5150551477069207
Ni 8.222776853748966 0.26081916641663355 9.165189467142609 -0.2239824232263691 -0.20960121480403257 0.1540944399859798
Ni 2.258675775962849 9.126607938017598 8.611733652969164 -1.3076874933100382 -0.709872583969971 -1.2209906660424261
Ni 4.796109505902986 8.090668858104523 3.5877140342525924 -0.7927050431861702 -0.1407730402867253 -0.17621724002694816
Ni 3.763472894615713 5.667868716990516 5.775419111904107 1.2001752719589718 -0.24669169189842674 1.685176088119085
Ni 1.7205584022052058 5.6157692679694735 7.153886167415821 0.30275485344058184 1.5137128178373542 -1.9363021616397813
Ni 5.09554257858802 3.783185949634151 10.382648688819781 1.615648830652224 0.2873295200244471 0.4359878765965201
Ni 6.635020243117995 6.502967751147935 0.5470858424767303 0.8103667221319913 0.33049062879295343 -1.7733052769578495
Ni 1.1383526097624979 3.8584396814853896 8.483707027514368 0.500294766204706 0.31722450781166656 1.8049594135280203
Ni 8.95146609350137 3.339239810080025 6.592022471634559 1.55109408669929 -0.31767779329900125 0.12971472559003466
Ni 1.8814265517925504 1.9930259397523964 6.05898460914422 -0.9591752311286835 -1.3430522459625773 -0.031516068330410235
P 2.111350522925008 7.823945950855996 11.02115740855682 0.01710657777329957 -0.8336102660409643 -0.8735806357863148
Ni 7.574123912457157 0.9925259559330041 0.0875709222581136 1.1137185857266239 -0.830612102644589 0.17882793817691783
P 6.810162087634222 4.173450785447312 0.9410314969627388 0.028062305453854897 -0.14664903945152807 -1.4824831703991115
Ni 1.4650934902440729 4.531643748079375 0.21881953601085663 1.8762252509525428 -2.168606217357968 -0.1619599587769856
P 1.0505087944386666 1.2100078533912253 2.9176450002000194 -0.25557999552699207 1.4035790997030408 0.06928377399748713
P 7.047255283374512 5.174589061522112 11.384103335838564 -0.9856663354406766 0.3486552155171221 0.09608392490946678
P 0.17096426795765074 7.766545900931357 8.218068292038792 0.7022857727616486 -0.6277536058810285 0.2270147822947897
Ni 0.819218507855142 5.972186113021274 11.634713526413645 1.6746057688024063 0.6707331947663481 0.6809515300602466
