# total energy = -340886.7857150229 ev
CRYSTAL
PRIMVEC
9.08812894468829 0.00000000000000 0.00000000000000

0.00000000000000 9.08812894468829 0.00000000000000

0.00000000000000 0.00000000000000 13.30139535270574

PRIMCOORD
 96 1
Ni 6.3635897641625325 2.121514672571437 11.366162222314257 -0.8360510142719729 0.6108596583391673 0.07766042809695659
Ni 4.364855715253225 0.6722879858600626 6.156032346147521 1.5015430152440399 -1.3721879869862692 2.3945825310859146
Ni 2.995956274904727 1.9336085160327114 4.881758505619163 -1.4816390772312613 1.33118480510103 -0.21070473228085648
Ni 3.7247606089785337 4.689247394083427 5.1131095543380845 -0.23023611744556477 0.710066445148332 -0.14253347462125773
Ni 3.9165928372731464 2.9970014097471505 2.772981754744605 -1.351231696449576 0.8443983577954038 0.45460831991118483
Ni 5.204498871398337 4.945441752413215 2.68612377883594 0.01591667123025646 -0.8346158244873433 0.6077067145324824
Ni 5.1799790991821695 3.2177611528542402 0.6193941658914497 0.8805642661929997 -0.5687215915185366 -0.053882608951068486
Ni 5.5933072090381 8.304441519059694 12.564817376148083 0.6482725517699867 -0.6268346936111849 0.719357897752587
Ni 2.431410785543676 5.717096615026395 11.617066380715567 -0.5089994930675557 -0.16586520736866273 0.812735222364168
Ni 0.4857523191842716 7.370736227096446 11.264805954108908 0.14494825471033745 0.47589422587315455 1.0564107531440905
Ni 0.8669620721131617 9.719663153250226 4.954756175891476 -0.44579303561239997 -1.8779576602626176 0.9522216826289858
Ni 8.744743195979222 2.785684232738133 1.3826134271069106 0.3432348158324992 0.505446999829607 1.5100585089142189
Ni 1.4298444338553995 1.3839493820794002 2.9759878377240883 1.1662678205782495 0.9825216191641079 -2.703172503151035
Ni 1.8990190968130176 6.902688492142832 0.6829174616139652 0.17260304031312856 -0.20311612130032114 0.09533984765459064
Ni 7.760753285901796 3.885911313551211 4.091629294243557 0.7259018695186917 0.05420296840496471 -1.326154184655658
Ni 7.7410865746061 3.9963593460727402 12.606650034232228 -0.5699307813352895 0.44638516067044415 0.9354452345015953
Ni 8.268125355317736 -0.005524673658342586 7.107892993543031 -1.3213603628114403 -0.32944856068168427 0.14867609718388589
Ni 6.803936881727385 1.2264975460359961 0.1917931493396355 -1.129684365027261 -0.3377874195646827 1.7485190711521048
Ni 2.006422606097921 6.846596559556403 9.464315808549255 0.5292793263625143 -0.504195643921009 0.026732016678205572
Ni 0.3886283926842858 5.585655004365745 1.86423064756681 -0.09823105315945663 -2.149362795747324 0.9481048322471349
Ni 6.625364233737956 2.5585264467695974 7.141572691043363 -0.7359685097260744 0.5606634971007506 1.7745237227459827
Ni 3.5278844690530926 4.978222633949063 0.7187692219607257 -0.4862678557979948 -1.3700079486158148 0.5707728176206105
Ni 6.3385701448478144 5.912718593140927 4.928619625514725 -0.6661795139573947 1.74838126002266 -1.193313768952448
Ni 5.674964048683122 3.332144345260721 9.290067292368741 -0.5100302483249152 -0.07715314944323487 -0.04000867918245368
P 0.14232010115092103 5.809113921805008 13.073103711347917 -0.04439112452086548 0.2335070748873527 -2.8795548080009374
P 4.18102104053542 6.380130159060022 12.686830961717163 0.46902038157145676 1.3229855571196891 0.09192850798019653
P 2.447987532957423 8.904439799901573 1.7189796247925702 -0.4367761768257703 0.0342064706783798 -0.3672214085550837
P 6.4513810909261275 8.116471745617517 5.987503898400239 -1.4117860609938653 0.14771424749124884 0.4186671259298854
P 4.654966971251929 1.1231746067010777 12.921534621248 0.5229317868779316 1.450815149871869 -0.4411069429906403
P 4.254553092796729 6.304662335307963 8.54361926452901 -0.18028266834557338 1.2566441535799777 -1.4702789150234357
P 4.954511705219639 1.41168635198442 4.249490096094866 0.7039937565916908 0.16613723008312678 -1.5500988126655564
P -0.1537284295656561 6.114874936052875 4.015810668709606 0.8609786307515882 -0.7871105798175283 1.1489979777542083
Ni 0.41854196950026645 7.815491087257606 2.813631138424544 1.8763766889287428 0.1590859796633002 0.11254155624485779
Ni 1.9638538095595484 6.712728418435518 4.945871620917968 -0.5948679108966013 -0.6456975919539589 -0.7259453211621175
Ni 6.347712802686757 6.178328253181593 9.081354773149625 -0.9656322996079371 -3.0021036119701523 1.5758643516654345
Ni 8.634131577134532 2.608356658430549 10.59408294407376 0.6512917982122849 -0.2001495824728295 -0.3785355480163223
Ni 2.6051758132579548 5.589635604896021 7.418627032015021 0.3878534829831385 0.0199396763467205 -1.1357537111497924
Ni 0.49267111184111684 0.3724133528073079 9.631952710835305 0.4476899955247967 0.16724768953848615 -0.8244088020473543
Ni 1.5889048687432297 1.417784486586736 11.604722883820088 -0.42987790704404033 0.2786448477662556 -0.6730209623592602
Ni 4.114650433976979 7.36372019145861 1.9759492005315638 0.3622180418032213 -0.013121882093938692 -1.5804406581822072
Ni 5.656887759973722 8.056899059599363 7.969437631920812 -0.20087514778494436 1.5179921619389987 0.21317324842600707
Ni 6.9997951511975955 1.3624559568417292 5.394128137207702 -0.42511596687902276 -2.3421623656129857 -2.9765517316429766
Ni 0.9078377502068078 7.691619888107731 6.862735259149239 0.343222474537325 -0.728927800829209 0.9450004822901984
Ni 5.368448719722896 4.945650779381699 6.988819417726333 -0.7252896898559896 0.5301380748183837 1.10941995835127
Ni 7.939716723440999 7.701371450593997 9.212652791371054 2.2353402283504082 1.0556216815838917 -0.4321859863519266
Ni 4.5808896312467455 0.4695845375784294 10.47421052171229 0.2054923348419816 0.4800303595287152 0.11919711388816247
Ni 8.146180839529544 8.112372999409404 4.872115091868765 1.004366225843025 -1.0109729325262653 -1.378106666463549
Ni 7.681486624200752 6.389736311481256 6.9410140412209635 -0.7402206001342091 1.6771084806196022 1.1393455422661087
Ni 2.6724915852391087 5.428094110773568 2.973260490191816 0.12415497211407006 0.37035943996343307 -0.8012884139798071
Ni 3.901224811024985 4.793279207485381 9.945506795756028 -0.3696801545082214 -0.788427755967055 -0.7155038141138194
Ni 1.2830529732047178 3.8334091919452806 3.9960848845749903 -0.43140848475595384 -0.15812618685319219 0.25833441834367765
Ni 1.0033476249849287 0.04092020992606239 0.10810602166159329 -1.0679696616262833 0.25344752256502157 0.3391164227887514
Ni 1.3914652648157866 3.868698397102945 8.538684410446956 -0.5272399273349823 -0.4443107946399187 -0.19607078441776557
Ni 5.5871000168870095 3.3304993939000367 5.060649238125851 -0.4742546333872026 -0.18931161131706106 -0.6862446601383859
Ni 4.168470334297271 7.201515263914444 6.020184810516376 0.6824923921848053 -0.14530666649102073 -0.02857549764484756
Ni 8.203790489669755 7.507867006551506 0.4993527043293772 -0.10206096842850809 -0.06228960206784111 -0.7355519910139461
P 0.2939673491607942 6.165623048749345 8.419198233570729 -0.1582064052718243 -1.4758628368691162 -0.11082688754659624
P 8.634913156234083 1.8576408451821016 7.881436369375825 0.8690670641866775 1.218905244268307 2.4319159774290506
P 2.1143259624813746 3.697868835076517 10.596663063915187 -1.3799447481135523 0.22179492865674708 0.7330832177584794
P 4.4241921099157 6.4776276076645605 3.8891684990079476 -0.8859525270881065 0.9010276762536742 1.345697139784592
P 7.138543617626146 4.346170521896502 10.508341899227128 -0.7357335108971329 0.2806523651145877 0.8624017363513599
P 6.370833003026983 8.017356610039487 10.537991011487332 0.4805993446583079 1.9539579270483316 -1.081535573236176
P 2.4656730321170457 8.693140799150683 5.824282009213749 1.12584776488999 0.056602836095708965 1.5142954298137017
P 6.992333797235596 4.061566672110917 1.8118757536517254 -0.4534071005142321 0.3967276455443168 -0.6979629770165786
Ni 2.773533404178824 1.9251383797445467 0.40673012815506515 -0.7480439528333698 0.09794283249507647 1.7200991252485152
Ni 1.7055510052867848 1.2952583305384144 7.378909181564199 -0.32366409278942326 0.37068879827839385 -0.7668867965714857
Ni 7.119803895495035 1.0520781730290691 9.276220618925988 -1.0756927413021538 -0.3435340922404729 0.001526206836539307
Ni 2.821500549381542 2.0448472157828568 9.401533195345502 0.14474333778838297 -0.9672821765065343 -0.030169838715160945
Ni 6.447554988589951 1.8840327719855674 2.6600526629884533 1.8153623540288994 1.3933926460883423 0.7583720742322553
Ni 4.370981114242735 7.2333418918985135 10.670060611866342 -1.0695701733441836 -1.3116225666983863 -0.5884812906439671
Ni 6.980737344549225 6.382983831586293 11.679103767336025 1.2612310016197117 -1.1896239788056866 0.2656556345954393
Ni 7.899774396202283 4.081987698118971 8.50878264819876 1.1837613493773225 0.580769009601374 -0.6864518910531855
Ni 3.2088820507581706 8.475389226763962 12.82600384377303 0.3250997967946853 0.28785351084871713 -0.8530611756767245
Ni 0.21762070332819253 5.0330149640792605 10.698485553141548 -0.07310186219199669 0.0613902301820233 -0.7702878518332347
Ni 9.064445400212115 2.454530985883902 5.869387302574038 0.10920734966530223 2.180740795837973 0.12811987029908903
Ni 3.704530433680836 2.561389207424932 11.614020039853127 1.3065682921039306 1.4235398590956838 -0.26325756667690786
Ni 1.1612811318687541 3.8827759090239398 12.832241935562939 0.4143772403052799 -0.9493261062487458 0.29906069241844624
Ni 3.2075642720438102 8.654043667914971 8.356641914780681 0.637741827441992 0.22831138961902614 -0.38725595860845563
Ni 5.8253180559271085 8.490630019205218 3.6651733819538763 0.22785964679358822 -0.384225399312248 0.12696004566303296
Ni 3.204965067131348 8.746115503467971 3.7625126971126925 0.26901786619945284 -0.08681021291702469 0.4694474418065463
Ni 4.013254178003747 2.9940205034139766 7.383458698973915 -0.8650340317678845 0.31058103435322 -0.8647992900492589
Ni 5.219239816741044 4.621295453067755 11.857781837622605 0.6233310513333006 -0.3534868325778106 0.1833021718981875
Ni 8.358025128024307 9.435568238692257 1.8177285087692985 -1.0564531763462515 1.0707130286993751 0.33999059786358865
Ni 4.52799672009104 0.9931053035291759 1.9367766378246152 -0.9217212000472835 -2.3864138792321934 -1.043881253218512
Ni 6.006871610249711 5.9195346899393435 0.6970186026705277 -0.21845943652561084 -0.2995522873428841 -1.710757279022299
Ni 8.01920150023959 0.0651037213668415 11.781737826487852 0.038158256237276214 -0.23225674742001937 -0.8490623389299764
Ni 0.4000458092280854 5.02140033513476 6.439631048858566 0.5616572284725875 -0.7009122894528896 -1.0738047802508217
Ni 7.269530821833568 6.426425088514861 2.617542030476094 0.105303900845838 -0.08988268119476134 1.0441553328155049
P 8.502608173312302 1.6485866123101582 3.6201480641293546 -0.9364343378877421 0.4563767246655172 0.42587958451792457
P 1.8432634250019766 3.6601712757167455 1.7314957961402744 0.6434990416407433 -0.3118480739911016 0.5442295199144435
P 4.83939237435893 1.392964806111438 8.518772319666517 0.5804085409381617 -0.8721266769486077 -0.5816125885485919
P 8.659187548965509 1.9439508069081743 12.747206129531719 1.1572681881828004 -0.5585981299312897 -1.3681716667380244
P 6.269927506023237 7.996871967127981 1.376082697561122 0.46896021775748264 1.1206006575584377 1.1451639487200989
P 2.2224110814461193 3.5518953060416454 6.112815566006846 -1.7218230499181573 0.38856567855881463 1.3038426656426514
P 7.256007685785511 4.455109924993314 6.142664617106469 1.2314846235952148 -1.635045747121597 0.8194465729460726
P 2.4298112748283143 8.700229539821036 10.504152271728369 -0.46393551084938167 0.6909191827959198 0.6067944871308582
