# total energy = -340896.7511624456 ev
CRYSTAL
PRIMVEC
9.01346499407430 0.00000000000000 0.00000000000000
0.00000000000000 9.01346499407430 0.00000000000000
0.00000000000000 0.00000000000000 13.19211711383823
PRIMCOORD
 96 1
Ni 6.395395791762079 1.8663099958715 11.4045720730582 0.406785544000951 0.7659149195765196 0.5385088153805823
Ni 4.639473699373846 0.4644692495496717 5.893063680600407 -0.3574496738803005 -1.151452609942288 1.8218027103376042
Ni 2.8270732365090745 1.7541824936806094 4.742051435602416 -0.5194106610985506 -0.3621751043804279 1.3957274648691058
Ni 3.4534910136202104 4.442682722256987 4.858128638071447 -0.4441966376595576 -0.4371322746136085 -0.10851418025301957
Ni 4.753169544441039 4.698385705348095 2.6125140162194747 1.1278359989646125 0.12809724459126973 0.04622072153043652
Ni 7.274379866211715 6.089289513473908 2.526131673554938 -0.4688797422285344 -0.5376667790952611 -0.43026845761423965
Ni 5.1206034372715585 4.412145103493101 11.446114231004149 -0.05051497803041623 -0.9238289904189058 -0.5376500669247128
Ni 5.692976479403869 7.828067995800479 12.257323359535459 -1.3059532842277508 0.4173874878865135 0.8263124468279703
Ni 1.7523707872545347 6.664033096850287 0.34661639451379267 -0.32971492696919347 -0.7730625863648944 0.10848718366982607
Ni 2.7755252312816068 1.5087097931446996 0.4195263113322907 0.09583041413776398 0.6566782593351788 0.09719721257830358
Ni 0.6509749619760136 -0.008107611593304361 4.7614439051332615 -0.15194088397808672 -0.10183034047494076 -0.09707328540592959
Ni 8.625804698485751 2.4209445392649305 1.378351657036502 0.32174759249300067 -0.18391640844341875 0.4804671899558177
Ni 6.986814285030189 0.5820643194920894 4.816152031121833 0.11840958498986058 0.3438688498720723 0.21884715888233278
Ni 1.0920083016827162 7.52368328929032 2.7665712553429866 0.38094287190623427 -0.504409559704028 -0.3063857653249497
Ni 7.602506039021779 3.8125604111104447 3.599350506502354 0.667203841456851 0.5148317834786166 1.4641820580970784
Ni 7.5705803466777155 3.86677640192059 12.663073491257736 0.18690762986125875 -0.48289328289880706 -0.7278872753798369
Ni 7.907801105477378 8.767216947832447 7.070618776760112 -0.6983807812802876 -0.29182689367416836 -0.5418749036393377
Ni 7.048430330446341 0.5444673550918768 0.49190803911313713 -1.532499097305922 0.4711574825191176 -0.20596387516176143
Ni 1.6987947524456395 6.417478780537615 9.212952612128618 1.1964700551932426 0.6732094242209825 -0.3946656208089655
Ni 8.998628643270463 4.8581854228997265 1.186531605760341 0.6734531648006724 0.32322006327346914 0.5242276228712198
Ni 6.25970709256741 2.0466604131815913 7.005871453670237 0.908991411185441 0.19294252320142902 -0.40421984015630386
Ni 3.3677369094526757 4.148032557737676 0.4350150492555083 -0.07269614211314578 0.8390311799462196 -0.43908991256061153
Ni 5.9692211487886295 5.647819020724097 4.679217671090929 -0.0935704144589937 -0.27410607935563763 0.5460694013366595
Ni 5.42168020219779 2.982519450559244 9.325032342956034 -0.5502356168992072 -0.2977098348175066 -0.2725860431666854
P 0.19460971863372367 5.518061181372003 12.169252794912694 0.02814895163039023 -0.16570682741392753 2.3791574547800964
P 4.035445368841662 5.8965996628439346 12.436643537818185 -1.3812305568045116 1.5906952460306796 0.9222611317111536
P 2.549106995346303 8.507926605748414 1.412308083001433 -0.6020070930445439 -0.0027757629729242518 -0.1310820382512065
P 6.321485380350077 7.75306695514691 5.855308079219602 0.41638912852898613 -0.45537682264609314 -0.27278993164737536
P 4.775045223526031 1.0541247091016621 12.678838041204028 0.06072122913945671 -1.2306464439646354 -0.6183017164395094
P 4.017959247117359 6.142856534817997 8.211552165411652 -0.11677127805548923 -0.7850323571322609 0.11284520352820565
P 4.943308584530818 0.9939327911249121 3.935749237311678 -0.1969009936285448 1.308163147394876 -1.9121191366356747
P 0.2643009271698771 5.636552189716171 3.5057258448659216 0.2723844686788406 -0.9406769152141801 -0.5296017426989394
Ni 1.5868204791564566 1.168631766001427 2.6202448649838743 -0.7372759156835883 -0.22607015899333324 -0.13215290271788208
Ni 1.9623394499182645 6.46674637916908 4.934195070265125 -0.32375459562070047 0.9850119896861292 -0.8371115943260035
Ni 5.9916105953675824 5.563903663377056 9.298991541784032 -0.7345114655645737 0.419360038231852 -0.6520482167623352
Ni 8.593590575267886 2.3115300899807485 9.999373811096008 -0.06240118794504091 0.6065548603162264 1.1618910316667925
Ni 2.385079962800497 5.3195396190123265 6.974078259258828 -0.5120945870531116 -0.6982550543357007 0.7394464409723458
Ni 0.2738497917857155 -0.051799480895565124 9.067535680368465 1.3350512300349717 0.17081869471919614 0.9103479252133354
Ni 1.301364048739615 1.1048524890317533 11.225369971164435 0.2588527527409929 -0.7787084717967621 0.7143658438546342
Ni 4.065793704844615 6.732959062224381 1.4008312382635182 0.30662462080863323 1.2012222251662474 0.013309315514396434
Ni 5.661366258328029 7.7698590400811245 8.075712941354718 -0.7934383218077691 0.666154317146414 -0.5508403403627418
Ni 5.367157753584229 3.0268837243360576 4.90142571761519 -0.5593396360830044 -0.8631923505734553 -0.951234379015052
Ni 0.6576341097749389 7.304259502044737 6.753901847701917 0.38655096212163104 0.06046823258838618 0.5456366846746151
Ni 4.911653296130945 4.389025566264834 7.037611468639289 0.5661977966554185 0.6435265524445691 0.23362560274308797
Ni 8.179872540656802 6.939268258176736 9.186290783231458 -0.3936839736219865 0.42553659935620913 -0.12204975284560916
Ni 4.570646882112619 0.3711068797391037 10.414160842633125 -0.22599559700165595 -0.8523569505208481 -0.05840132275702845
Ni 8.113299089597163 7.135311117714669 4.51571432085037 -0.24022099657241855 0.624161517654396 1.2618737774100333
Ni 7.220578494782662 6.098077641660091 7.032295327096509 0.011473033636606046 -0.20666578632479246 -0.7950288062233404
Ni 2.272664029735803 5.341271082660416 2.445686500158338 -0.41197814394548404 -0.7366861046183893 0.5826852527874803
Ni 2.179942517272966 5.159821022643952 11.259854586167018 0.7365038134042542 -0.22122671485810286 0.8012578178521877
Ni 1.0156732682378085 3.282577693962359 3.7214694344310746 0.3007766466682884 0.8975715993842736 0.36603535866678255
Ni 3.6139847679619304 2.643216581389317 2.778351853844875 0.6724738316065386 0.2119648299402027 -0.8554808408618106
Ni 0.9625839605284557 3.2838936598240847 8.162807347738955 0.31971333567179133 0.2617750685941104 -0.7013717455878116
Ni 3.492357073865156 2.4394581959771564 7.100247838271518 -0.1517195119959 0.5546031498392836 -0.5280202571444326
Ni 4.250867177713229 6.852378457443602 6.050696561212595 -0.09073448767209535 0.6892947598186193 0.3273651957900942
Ni 0.8060876778283479 7.376826907200595 11.313519854277496 -0.5419952312672859 0.8525338424183446 0.1639646479118402
P 0.24209445392649304 5.483061897528978 7.944899625273799 -0.3010442985073783 -0.030030742034135374 -0.7314001736291017
P 8.419991243097746 1.61492446242263 7.947881279431738 -0.06251740180793103 0.9886552428656715 -0.5019667545904903
P 1.7331901341466394 3.1485114184328324 10.32114278717816 -0.4098513274104683 0.5291777677876435 0.5820437625487396
P 3.7954258145135893 6.399514945178577 3.8768597649994447 1.3564870313112445 -1.1721916422618521 -1.500227895977042
P 6.983299033755716 3.9658704340015105 10.44617757097173 0.5753866622435381 -0.24047630711633422 -0.0013284890034364217
P 6.312571063656605 7.770129444025315 10.099608046474932 -0.19590751936702389 0.06477560171448844 0.7086955329427344
P 2.5056530815149296 8.6440659781834 5.817749872718058 0.24187755833923508 -0.8986216379153428 0.14198274432411032
P 6.800145428890852 3.9803730988749146 1.6505051147456637 -0.24398817692433464 0.16710447909240253 -0.6918640632076923
Ni 5.284441187056432 2.856385024059298 0.4898051977738176 0.6072356884333349 0.03477519869765624 0.44100487019513723
Ni 1.341041320817131 0.9637016301644421 6.978445282957501 0.1511826656558235 0.7129087996931336 0.43802264763836174
Ni 6.80993405167054 0.9038702507799458 9.169128244893702 -0.49155327256665016 -1.438588011678058 0.433956190878472
Ni 2.6399356801998084 1.6014853863963745 9.192003517225718 0.5737072176585861 -1.4053007103798378 -0.38866440892020804
Ni 6.527812603232045 1.880470149082263 2.67726133930935 -0.19271086680659713 -0.1567169652104914 -0.38052763874568657
Ni 4.014768480575914 6.691253760565438 10.409358468584307 0.07887655989224479 0.9424661459041187 -0.3167030880905578
Ni 8.09098175073666 7.136176410336077 0.3303533999637103 0.2717632901550739 -0.07342530696968644 -0.29908306101594945
Ni 7.455983155129887 3.9597322644683923 8.149641379696332 0.919382781722094 -0.6983062192886103 -0.02425064501724856
Ni 3.031624806824193 8.392689458199335 12.477605228630605 1.0902048188753999 -0.3037832947050962 -1.3490377741220507
Ni 0.03624764871870315 4.84339432715252 10.111176828553871 -0.5895398138154686 -1.261557531721195 -0.1354544562872893
Ni 8.67378337164991 2.385007855082046 5.844873191013302 -0.4255862216472218 0.538810405781401 -0.3049436335617845
Ni 3.6279105710877286 2.4829121098085296 11.398542966449238 -0.2283047047508068 0.4697839992103587 0.11109891026106027
Ni 1.216403129475038 3.1852322740538686 12.568472671382777 -0.7845317633467586 0.3925966540950787 0.08593398095965846
Ni 3.048326757110345 8.25852403455694 8.043378939054929 0.3427889865443322 0.10538823302952817 -0.16975297245884313
Ni 5.658166478321778 7.82998786380423 3.6130699012840872 -0.7544272306518942 0.0862977920569804 0.1528806221835367
Ni 3.1704501917714683 8.531623004724286 3.5341678330623334 0.5831768477119182 -0.23537266734118173 1.1072810576313963
Ni 3.3763177279483125 4.1029472067763555 9.209179575760682 -0.1132064435223663 0.9260802483469278 -0.3200180113964037
Ni 7.2350000384728075 6.227547050138383 11.364137669936952 0.4278521348632632 -1.2680927617365514 0.29816749118021557
Ni 0.5652695305184329 0.11521912061946597 0.47687357981615913 0.5197081377343115 -0.39998086237429176 -0.5652508593611169
Ni 4.632668533445057 0.44146598601740705 1.7225082770046438 0.46351462126187915 -0.47801641442248005 -0.36439370929830145
Ni 5.913265559270861 5.557459036040522 0.26018988587170466 0.693617298453373 0.36856583839812007 1.1883957628255404
Ni 7.753112022470941 8.788389576662544 11.376776350288404 1.1652103258480127 0.2100421589961931 -0.33620979066491774
Ni 0.11896151120705906 4.978893743586254 5.652914332379122 -0.6311461765023452 -0.5773036767605929 0.14788805406495176
Ni 8.20309122599794 8.606804314673983 2.39698134173079 -1.3441683618448914 1.1447944811958222 0.9757441912309582
P 8.599945067956357 1.5523710166666185 3.6399426452577144 -0.41172309051188444 0.14625411800595456 -0.48494065234613903
P 1.8151225292362856 3.234022159050596 1.6093983071498619 -0.570193805188689 -0.009354187521390342 -0.1797512213221356
P 4.806799660038772 1.0997238275569448 8.31496454848129 -1.1386418313308648 -0.3521706848695483 -0.517142176779348
P 8.510540510542254 1.6167091284542856 12.460019958793431 -0.1104659046627517 0.573824717073057 -0.6733315516211436
P 6.262852791784824 7.75954763634267 1.5265916059740006 0.07902696942718003 -0.468850945873128 -1.2149143779413591
P 1.6853196225601588 3.3765701049628905 5.991173442324476 1.2823567278547334 -0.6976534161959598 -0.5066361350417017
P 6.921169220845603 4.0574472364339425 5.936755549902668 0.26317220605195324 0.20792434132224194 0.17477048027809255
P 2.3406075274460068 8.418684290700826 10.18997343923739 0.2080366985303901 0.5452001113578289 -0.2203779937045624
