# total energy = -381173.27699208044 ev
CRYSTAL
PRIMVEC
9.22295520195983 0.00000000000000 0.00000000000000

0.00000000000000 9.22295520195983 0.00000000000000

0.00000000000000 0.00000000000000 13.49872720867632

PRIMCOORD
 96 1
Ni 7.01521933210865 8.30442242098651 13.31738527043194 0.5619086823617613 1.8146864110077972 1.1679176974768468
Ni 8.272658564137306 5.887583968052028 2.6362608518641317 0.546672067917665 -0.2912939039888338 0.21560731178879644
Ni 0.14633693701613554 9.011564822944152 12.679083926519633 -1.1477306810060104 0.3770695049937571 0.4334761659182599
Ni 8.07926242178221 3.4678310613532175 6.961050150798422 -1.8001509363957837 0.5502584997173426 -1.2321525961965165
Ni 1.9679203436783477 5.061161089720765 5.433655949666832 -0.4247714390554104 -0.19139908997370908 -0.6125758696993258
Ni 2.2334584396555295 3.994138985598221 12.848344518065007 -1.1330267991369327 0.14107720179070543 1.473422859969056
Ni 5.63640601293263 4.051551880164507 6.904166653846288 -1.4152557647100206 -2.257089704212358 0.7805753498021717
Ni 5.072274750436005 8.349513447739053 7.433006279225179 -0.8196635740528851 0.3342572949242372 0.18081951468564988
Ni 1.719619950503477 0.7621683957827644 5.680574744190132 -0.8204562451575097 1.3371667337160777 -0.26945058286149726
Ni 4.127632035550419 0.28327660523330084 2.6971535673332068 -1.6009426347903009 -0.10195323920605023 0.2241857974864268
Ni 5.64815605753945 1.508718639652509 6.485436198438332 -0.48192654811016356 -0.4974508689980077 1.6814081364362201
Ni 5.377038073817271 2.7053601526480797 4.629927996582036 0.27619484356386625 0.19498269355990935 -0.2713907373070036
Ni 7.210828983651842 0.2943570633107204 11.191726572827763 -0.20231213734178705 -0.5669354461523913 0.37657431052489343
Ni 9.046722727215107 7.560766340380203 1.0995726790290168 0.27514943301848743 1.6041629414998113 0.7546542590610358
Ni 3.580646246306602 8.76413138753462 5.324829692729499 1.0183905651465752 -1.8043636889255505 0.17378394799510716
Ni 7.904321412282882 5.662719103406143 9.108590309022441 -0.5893755203234623 -0.7859101317515239 -0.1998896439432235
Ni 6.1043326323415545 0.7898824531132439 9.160789467155261 -0.48371037948346374 0.34666055368459653 -0.5200305540707367
Ni 6.040657351363941 0.2403511283031143 4.065667612716107 -1.380889885635641 -0.005755157316222346 1.096477539257989
Ni 8.975244826349448 8.577680130257182 5.831571118047213 0.054883796522073224 -0.17705644809879184 1.4239846599425863
Ni 3.279018727608475 4.799367513453447 1.6484777651980138 1.0243413834133712 -0.6637320808581666 1.791184214120799
Ni 3.4580086143310336 4.950762318964387 7.711755335873324 -0.07015434952789854 -1.2210827115356004 0.2887094310911092
Ni 4.6030384714241235 0.43090475594249344 11.452468732230733 -0.974284061745664 2.4863099787988987 -1.7695334686202426
Ni 4.371800544907507 2.1781668247278367 13.06163826343011 1.3853792888655625 -0.23014869993808104 -0.12498518132484926
Ni 5.405214201190766 7.746498207171509 11.74591733447884 -0.6558562776545156 -2.1937212672580415 0.09618136971927951
P 4.313972617368452 7.372710288941394 9.70045499705494 0.3601213071751927 0.23370839226488138 0.5984607704541822
Ni 3.013333064352086 7.493918362899649 1.806143257779735 -0.3437858032399628 0.9114658408678624 -0.6748641862155862
P 6.5963034953061905 3.286581550667809 8.81195517583897 0.7747618284441884 -0.7551607663838091 0.10487889749327745
Ni 2.941144995955247 2.016709775366003 10.226648556658558 -2.2143368866258637 -1.5277207020806722 0.39378733196907023
P 9.282074091639606 4.671205331462586 13.40156318026431 -0.7437401832516933 -2.094582871792967 1.1293215823712033
P 6.924031976513971 9.02099068290347 6.82781811047132 2.2930530096808446 1.23569017703613 0.944164102431832
P 1.5705677755499414 7.267347251587939 6.20440630503095 0.3220954627507227 -0.20893401353367885 -0.4583911839923847
Ni 2.389612289920879 8.94088009620423 9.834699717835596 1.093978169874903 -0.5820555896232814 -0.1280900455024181
Ni 5.3977989454106385 4.869203728337933 9.68509324328954 -0.023091591712140876 0.81590230723824 -0.8191632373776989
Ni 0.7292894836800567 1.6030233540204255 3.4615456175545147 -0.3400759584885434 -0.05787013284390678 0.24309394724483943
Ni 0.9816821019664231 3.2360028657197746 1.5060799522411972 -1.219736481920351 0.9816659560320321 0.6461187386517775
Ni 2.0498478525028174 1.5950086061685216 12.524901944022682 1.3349401583784042 -1.09361641566011 0.9596727395903922
Ni 0.7233665020109051 1.1095030346241206 10.767893978741242 -0.4602542053430525 -0.6115461428832306 -1.4533389447349874
Ni 5.585882665714299 5.370065519874763 11.92860931531849 -0.47610814165617354 0.6514440075194329 0.5002880813364867
Ni 4.459409393981428 2.6367413678170477 8.874629766204462 0.8851853099047786 0.8235245996701881 -2.5010472850090735
Ni 0.8146709891334541 3.9657599532158168 10.866408049748523 1.5252802109599797 -0.9451830306146495 0.7678710148616259
Ni 3.4147990703883746 0.6964834329214573 7.5113801835072564 0.04722910819029285 0.9658444156187431 0.7529334197151871
Ni 5.753362304658747 2.8122449775683522 10.96227513268504 1.4857911517264217 -1.0576531101916236 0.10941483769041803
Ni 7.461767141942529 6.007104241254359 0.17380566374493417 0.1369778349103512 -1.0515531679414727 0.297940462771074
Ni 6.64180033207655 7.55323118618572 5.3338598879214425 0.8341931351276278 -0.9991376304542342 0.48382967867014737
Ni 3.1523414413646282 6.242492497498659 13.32852106623906 0.5927061273585921 0.4114911770067365 -1.3028440491748077
Ni 6.497627100291781 7.460263800285613 9.612416358280331 -2.4961130809322496 0.11803188993546769 0.6938756943210824
Ni 8.293557780054929 1.2752487580378937 8.240756362963847 0.27646969449180775 -0.8842715398412576 -0.7298449133268399
Ni 6.578374070882599 3.7334982786997055 13.20646632501636 -0.04008478383602774 -1.6102747108245044 0.27525999045442273
Ni 7.813668988075327 3.5449534106485245 1.6927811515977913 0.018348420600200657 -0.3462512340613198 0.5623234013016767
Ni 8.4026376682534 1.0168400062373766 1.5943344081616464 0.5129016563354393 0.038200422329121304 -0.879085367654628
Ni 3.8913675985858305 6.408395011146588 6.06245396079824 0.41864681421491123 0.8657765663608638 -1.8401375040910501
Ni 0.9557010378711253 5.923876295781882 9.551847368530014 -0.338611715238191 1.3634025274841552 -0.05650461995494785
Ni 3.0487215424968004 5.82900898116199 10.72710084899559 0.1356971684257147 1.3321785364728669 0.07437841491157512
Ni 5.243904719108139 2.9372805778310265 2.3492102134651236 -0.3194138021535015 0.1940496402226787 -1.0898415219987103
Ni 4.628041902294679 4.8614748920894915 3.971662644384078 0.17943086186823937 0.22136118355343815 0.9986586339352864
Ni 8.29784645410687 8.706275791130714 3.5605595727201096 -0.17539731522881405 -0.289992668678907 -0.9891864327787931
P 2.384161523545188 4.1300392267924755 9.2970457144106 -0.5656972028699161 -1.1265843859456983 0.3325683372575885
Ni 8.842185255279919 3.4018408186830515 8.988397682404225 1.4169850886963016 1.4587266914094619 -0.12650033241779507
P 6.809971692642281 7.565110352161845 2.165762872615034 0.936436137659955 0.15890908776580373 0.7004343213752066
Ni 2.8465267011190165 7.263233813680058 8.133901051499416 0.12440771155482444 -0.1623530804503462 -0.34656593708826117
P 1.5649417730301929 9.180944390608387 0.9113044996263487 0.8153641753465828 0.07287740488601642 0.013092314407583903
P 4.431565292986147 4.276462859585145 0.010233790812972154 0.5819756283149655 0.5370018918177526 -0.6507117573390987
P 3.541522471406973 1.433330205887878 4.476569623962155 0.12228629433644746 0.9894571699416767 -0.5121341820417954
Ni 9.07782253130788 6.644539549696822 4.645681725932827 1.511872679304822 -1.164775038082807 -0.8487862024504543
Ni 1.2948475373075095 8.990610269296827 7.758771193324017 -1.577509600578341 0.16690856103151255 0.13411234043709808
Ni 3.151769618157703 3.0074672650036276 5.959026821688875 0.8098743558766053 -0.3020760822060023 0.7673477953683042
Ni 8.270140697435846 6.317272216236562 6.7267668045571805 -0.5910909603526724 -0.7960641894663902 0.9140924798574321
Ni 5.900671341126657 0.7838847655089939 1.3457591709292538 0.800190810040254 0.22602567890864297 -0.4719216143786517
Ni 8.02717117222231 4.817684301984957 11.50489754194182 -0.7755974369716062 -0.6850663235595685 0.011592589933605842
Ni 6.153297300173268 5.2476584617729545 2.2859416648008235 -1.2085550113822348 0.2017549792867364 -0.6590727277092843
Ni 2.654993595663904 3.2448476795172154 3.5186052729462007 0.029870819417503393 0.41868435232106604 0.2205749402067169
Ni 5.618153785085775 6.230733229936889 7.71391535192271 0.9933652467468311 -0.6918506934712536 -0.05831210547733184
Ni 0.866408999518755 4.806607533089518 7.400514731230388 0.16307736021088043 -0.053291769444604994 0.9687302218069703
Ni 8.247267769158835 7.989845873538011 8.520274614054856 1.8698118912270312 0.9917462230861693 -0.8011372331139235
Ni 3.9608810100470513 8.974470098133613 0.0506875158164495 -0.797267465745872 -0.13064649337568468 0.736209422092287
Ni 5.014769626320215 7.46020846255591 3.8561811031545306 -1.4751038472159046 -1.8421447643290663 -2.1015544180147936
Ni 3.7848885836833754 3.7491127414307455 11.244939333709635 0.21120506895604269 0.7491230448301615 0.2304153233359064
Ni 2.7556160341728497 6.276958680148331 3.684342695700518 -0.0549951252889569 -0.23965432543567114 0.14199097185422643
Ni 9.142134196177071 2.4009565245098803 12.855337362508404 -1.0761997628455595 0.8520088231528101 0.522812487691248
Ni 7.7709574836999895 7.100743793363779 11.512429929249818 0.7028514154571315 0.34679502237993176 -0.7661386055515514
Ni 1.210771079979595 5.725776446402079 1.5933623087098738 -0.0904668358330055 -0.06439096468156007 -0.05149713943802744
Ni 1.5941969861328855 8.333668411134251 3.6193051842767296 -0.47204502733039344 0.5779407961239594 0.16711090685030575
Ni 5.322511964150461 7.103962604641471 0.7873590526388125 -1.5656164486851811 -0.6702557409092973 0.03439159010599239
Ni 2.1548973093879584 8.106470138885914 12.058993307156905 1.85000642646533 0.666294442268704 0.015680643960050415
Ni 0.7723247137741532 6.333108029886412 12.466128663601209 0.07325998503641576 0.4376511232315559 -0.832241667828212
Ni 8.093493441270692 2.384456658103601 10.685079221650543 -1.4623527181978235 -0.08932372336749778 1.1117609477796206
Ni 0.6229921609901253 2.9523416632650417 5.654413832473301 0.9100103393682585 0.467801164452375 -0.7583209092793457
Ni 1.633090187158754 2.3327158808318154 7.83884581049895 -0.24647931877730453 0.21311616993582652 0.6971772478904896
P 7.308739873405369 1.6339110301493402 3.4285689421293326 1.3041563402283283 2.711927880746162 -1.6918344739758668
Ni 7.719142922788601 3.9538715642847415 4.413260494296074 -0.895517287958406 -0.542797158343291 -0.30394733108678623
P 0.49964067230139536 4.086147184183486 3.721193934500367 1.2537089822110539 0.5039035666018871 -0.8208786774069088
Ni 2.8778755249954515 2.194805035458372 1.3024085157758536 1.010692425171369 -1.6508292352080989 0.48409373096481145
P 6.489418670385919 5.340856421546822 5.6216529741939585 0.4524290528716789 1.5137853229465026 -0.9790143773417979
P 7.064257783579967 1.4460302148545892 13.054187038125676 0.07587891071650157 0.1218962579868804 -0.009369357030041929
P 0.4261715354619443 7.931824263944998 10.584931765321544 0.08457926670397692 0.3081868230894305 -0.16564229272457923
Ni 8.027641542924782 1.4385872902096104 5.470669512473807 -0.4292726693598736 0.27290820239279445 -0.021492879766453307
