# total energy = -340888.7728414319 ev
CRYSTAL
PRIMVEC
9.12282126875825 0.00000000000000 0.00000000000000

0.00000000000000 9.12282126875825 0.00000000000000

0.00000000000000 0.00000000000000 13.35217107573877

PRIMCOORD
 96 1
Ni 6.806263356792489 2.1433156581082575 11.494536919946265 -0.024057040949203728 -0.3144114638429037 -0.4413655959686657
Ni 4.851324837631527 0.4502933411448262 5.861616184020308 -0.19030457135794968 0.4153020661123944 -0.2732087643523488
Ni 3.2864690384205555 2.063828515309682 4.6961055053198 -1.1335649310285896 0.19456591773746493 0.6691062006858863
Ni 3.71618129450242 4.682069132324289 5.019855278638009 0.24952504758216384 -0.19228740611593334 0.17702610908148866
Ni 4.005274381630166 2.807575652208183 2.1789813283448036 -0.7020754565230554 -0.8298248308566032 0.08879844699164706
Ni 5.238424394985956 4.373097417380855 3.060171067788326 1.14760983915743 0.6369285875120773 -0.2474653368396577
Ni 5.628479746471768 2.9286081236311943 0.3395404648676241 -0.2524180528592427 0.36406975029997946 -0.7472566810453841
Ni 6.037802496739927 7.970526945808553 12.229907482241568 -0.3985251037643717 -0.4716989568448844 0.07321833316520293
Ni 2.2257221037526427 6.9329702231220445 0.1061203075737571 -0.29019141495327444 -0.7601340512286844 0.3965903486355041
Ni 1.0729350240491706 0.23128724165214692 -0.05309299594389391 -0.7014830743546951 -0.4625250036551002 0.6165744493357576
Ni 7.85613588835976 9.191060097177607 6.605078688891342 0.4027748801796612 0.057180048755417656 0.7051558952205921
Ni 9.083556769880648 2.738360806298302 1.1190344651130706 -1.8769521018162383 -0.2051650334095499 0.7140043467501574
Ni 7.18654816656623 0.9043690040392552 4.478358355179377 -0.9862296641433144 -0.12044641291423126 -0.013048348543525915
Ni 1.1175364978403142 7.677556659588715 2.3233308189665847 -0.3785280918171546 -0.3279429226704352 0.19398587686427882
Ni 8.09952364030779 4.125941940197451 3.552999563678746 -0.035888743476809155 -0.8465172039106196 0.6469412345530728
Ni 7.785461391026974 4.18665431656891 12.567330540263843 0.3947203853063008 -0.9911983210024993 0.6307000901038622
Ni 8.35340263685795 7.542885570182935 8.818869054543875 0.3715400905350956 0.14205987741894888 0.3978368194480955
Ni 7.06699359220891 0.6812412138411478 0.24971898999488096 1.027255985957005 0.4813799315780741 -0.6580805389993442
Ni 1.6618131449774416 7.282958143049112 9.20506727714466 1.0556473926155048 -1.0844465762353839 -0.6465391140186478
Ni 0.5589361088337912 5.086228365683922 1.1126110865701488 -0.33897321234266786 0.8811661614430566 0.47145547337551064
Ni 6.712873034190743 2.3112485543134875 7.174308989385172 0.3138548200084853 0.20285181189534096 0.5172491346708576
Ni 3.560035083537149 4.302185726691847 0.06062935869678074 1.4672992635698212 -0.4991706799025919 0.9345191231429002
Ni 6.344858419190799 5.905475972432187 4.5351716376874 0.12931363349687405 0.010431993966601388 0.7472402259851517
Ni 5.191624321239061 2.9498551746558563 9.396550736776325 -0.6211456136462077 -1.323103313644476 -0.8219120037674297
P 0.29676629220152984 5.75289678463164 12.363295902959472 0.6834429290235327 -0.2869052880028349 -0.6482848930651609
P 4.383050415520789 6.284821131602433 12.773514514288438 -1.109518174492031 0.5543113296304776 -1.2409156871011273
P 2.755986097229881 8.782257347728859 1.3383553019438137 -0.3295182375773551 0.5474691098976636 0.03573679127997716
P 6.406008690989129 8.008341040483188 5.373781520560502 0.7660288194465645 -0.22915034058055375 0.2679881393833578
P 5.278765511186495 1.011574927358798 12.538195897862655 -1.9213689373687166 0.15604667861634416 -0.66083958980172
P 4.025043535589137 6.65038170764762 8.268479204791193 0.24486260910948796 0.6255743388415227 -1.083472899468205
P 5.089530827028244 1.508814307392809 3.708018193919824 -0.24024876448656046 -1.0449654874216263 -0.4614461687686246
P 0.51782411422553 5.7856112221475 3.4935288032988963 0.3445573912986647 0.5386196299268338 -0.2526401961723778
Ni 0.5898424031495277 0.44288834702000085 4.829172802724663 0.33612520137091145 -0.21883327492526183 -0.36086358465785595
Ni 2.0315702188634797 6.804876687940729 4.896134311750434 0.5572781255682854 -0.5504459331378004 -1.0026273887750476
Ni 6.011556139591815 6.035530914213031 9.343235143990437 -1.2745493159951726 0.7698919019463967 -2.4097569248335082
Ni 8.72471971320222 2.488577956553669 10.042168245359333 0.14864344417373757 1.1083652918345104 0.6937111437187601
Ni 2.459932297379157 5.2305514001236615 7.0534443778757945 0.30699357411227773 1.7715319871075104 0.3517073720798846
Ni 0.7587404938581539 0.5437648568569714 9.227325136779685 0.17131260363647915 -1.9380474264656624 1.7190524291515556
Ni 1.8090189909774197 1.7201718334294658 11.43087422313626 0.02292498422728955 -1.638802128840236 -1.0335454185101427
Ni 4.433390143968228 7.276645150645047 1.3302514997002723 0.09434071696611494 -0.20416076051475163 -0.09090109515694668
Ni 5.7194890126899 8.256262834663618 7.882027367755678 0.5303494194982414 -0.3252934008627301 0.4019966072527399
Ni 5.65284680241289 2.9851240021618004 5.18078914627041 -0.6741324502558841 0.4817583979634155 -0.6267789006725851
Ni 0.954320100295346 7.911064395967957 6.916384933829285 -0.6156861331935333 -0.04632947919415892 0.11436832504095142
Ni 5.34726877702771 4.880280672733407 7.112874997841514 0.4008141569088645 0.36884094643637766 -0.12384643973471574
Ni 1.0445356810522735 7.636987472853348 11.46380031010844 -0.2512520575755996 -0.7738861107074542 0.2842136001032847
Ni 4.692925289782146 0.2566495974072621 10.094868959983323 1.0021499349179968 0.09091317934180472 0.8627742891994302
Ni 8.286404636546607 7.65583522185161 4.021153564547094 -0.06871581730915907 0.45734114546131555 0.9970290687516635
Ni 7.395725338289922 6.686955098612785 6.8240273146092445 0.3173016409065052 -1.151261062756772 -0.7258627887506403
Ni 2.817419176491399 5.368497582409586 1.9836115467996542 0.05539364627895622 1.3826382357853155 0.8372491483451322
Ni 2.6224188692126726 5.165113402270548 11.599084453111843 -0.03864239496254636 3.0691410131356243 -1.456495230975782
Ni 2.0153224739622675 3.73909782184203 3.485971458056805 -1.4500345629521028 0.6453705476318433 1.2076150160664685
Ni 1.6074228838314408 1.5957091811626274 2.3824412279014044 0.6326759828833103 -1.9044186826676233 0.7691689077374431
Ni 1.1995506621647938 3.5356132906676674 8.267117167557194 -0.3156404511539983 -0.2432055331220392 0.29644536628278617
Ni 3.9286153134634696 2.9631380026042926 7.038516705230172 -0.4574126221291993 -0.22433415013883304 0.18183278644151266
Ni 4.426712238708437 7.098914344263566 5.979222123728049 -0.5672804881966359 -0.4062841788845003 -0.1459944365866647
Ni 8.335622257962688 7.363676866735762 0.00620351854734662 0.5129695334588973 0.20593944968172917 0.1100036203143525
P 0.4611996741203452 5.933154612539026 7.892401840243976 -0.2930144862243663 -0.7269426520783804 -0.03403009300151559
P 8.694231244106287 1.7116419954268642 7.992302208191878 0.0458067739214695 1.1115619443949372 -1.4760474420760965
P 2.3513251086936253 3.5489782240086423 10.339855030239434 -0.8862821425133832 -1.1078973510591563 -1.175008542885357
P 4.0395853128898285 6.228204902036503 3.5312489329131815 0.5973215146434165 0.5417044394997445 0.4822541066529114
P 6.709661801060353 3.983735400320923 10.230740612684441 4.040840087762931 -0.19246558356501048 -0.12055414213668915
P 6.732249906829808 7.9267374031213995 10.125378411568455 -0.9635512487091921 0.2948309706078148 0.8976371625148862
P 2.476371621529626 8.795512807213115 5.635644810393953 0.755694527400092 0.7158995068903412 1.4229359069630978
P 7.059211825560547 4.104357344781242 1.5570503132269864 0.4988518631105925 -0.008422933956372591 -0.16366434306260202
Ni 3.146826011355505 1.6516776904096444 0.17174258641901255 -0.5962601632584377 0.6323003447114466 0.3729166591676481
Ni 1.7031942628168009 1.2772041178633442 7.237624106700098 -0.40904554367972135 0.8250086404148824 -2.8320387646978453
Ni 7.2225559426050205 0.7366121782869128 9.258208624041938 -1.2148444439353723 0.0036777059619033437 -0.30181794344860924
Ni 2.9809639956065213 1.7053837399511584 9.150817507448116 0.0005080499846700928 0.8686708571895233 0.8429492840537031
Ni 6.635849053168321 2.0262698596340556 2.300058501592641 0.9061297733669297 1.2029536060350572 0.8785102118774484
Ni 4.143275300844449 7.018943691931154 10.542326928239156 -0.5640810074227317 0.32985068121610933 0.15675553175791068
Ni 7.567882100800185 5.8734639921636 10.928551607021982 0.6152148499840695 1.8519748630456105 1.6086045222109326
Ni 7.711384081314541 4.681895798717819 8.353492040507604 0.6099510304819689 -0.7414375032604457 -0.5251894725638567
Ni 3.511775358367349 8.67105927776767 12.420911081467954 0.7337912995690975 0.023225803297159998 -0.2567807007033126
Ni 0.37875491262610855 4.878693301810998 10.174728313894738 1.3534446449404949 0.21011363566407684 0.0026361520712664273
Ni 8.896201386929386 2.670724208489438 5.75769630096658 -0.5553248584966565 -0.6579005617780541 0.2428116401177302
Ni 4.108946123941999 2.9062024742896013 11.658020616158051 -0.24686524136181354 -2.181897535150236 -0.9018640561120402
Ni 1.2455661732718766 3.6311930904037713 12.52572500101821 -1.0953279990345781 0.22121463067324482 0.8473291582889535
Ni 3.3075518786601408 8.756968886827027 7.899518553212777 -0.049879144218630225 -0.8584751476034441 -0.4333455538776666
Ni 5.410955193173337 7.967443432177666 3.3208319697621596 1.5419890390742281 0.29059250704643497 1.114214808636752
Ni 3.2099011984677905 8.907969826526559 3.653340563899938 -0.12759330837165767 0.12678958152343972 -0.9485738014637534
Ni 3.769540676830994 4.771244711442397 9.132898461667674 -0.7986535474601213 -0.5399542895778572 0.22861143735794823
Ni 5.158718304473945 4.815572500591745 11.20104298377846 -0.8070433141857132 1.4465843996199732 2.2144155623825994
Ni 8.441018213517827 0.3894359119132165 2.118455057529766 1.0548806896528091 -1.2298329469244045 0.15402039221493471
Ni 4.833827266199452 0.5939832517798816 1.492772738255082 0.3195215313759594 -0.7466856390332623 0.5311888846804014
Ni 6.223351561055343 5.682140181906316 0.3750674682189946 -0.03058301499317959 0.4985325320979608 -0.44610311065365105
Ni 8.291577276276527 8.98866118174903 11.41180661414242 -0.33954091192067976 0.8848358969851601 -0.08847680198617021
Ni 0.46956530133786994 4.979509601026773 5.620289277424992 -0.9715041850076818 0.9388198074007832 0.07112262697843881
Ni 7.7738297937507 6.1682953339476425 2.3074023728141326 -0.5130461523331036 -0.10819613479196849 -0.6013262649274353
P 8.818082667339786 1.9899975217748642 3.485651247025905 0.4527527547596848 0.29229894821458047 0.2545551538069035
P 2.0590390340782747 3.3889913052368517 1.319565939002468 0.03312352202684618 -0.03554215877066782 -0.7154158823857034
P 4.976836614358579 1.2423640629628785 8.056379993375273 -0.17459795925597027 -0.4714930114816654 -0.08271316002951562
P 8.912960009828614 1.8618948637721564 12.52428359523809 -0.9379129793157976 -0.3662083939095371 -1.293573165395843
P 6.86461292242312 8.02438808331375 1.4727308119364562 -1.226844296609726 -0.5982892778733244 0.6210980482377239
P 1.884501215184399 3.3988530751628545 6.11359854600283 1.1783039258071772 -1.4057120868856436 -1.0969660488586332
P 7.195452040245951 4.259344957429582 5.980571389012097 0.7824507124480137 1.138634375131697 0.07991965644477848
P 2.5111295710375527 8.869270818176789 10.456071564248996 0.8378510435951894 0.9827825861349785 -0.46914482296446297
