# total energy = -340886.2283687374 ev
CRYSTAL
PRIMVEC
9.07864429075152 0.00000000000000 0.00000000000000
0.00000000000000 9.07864429075152 0.00000000000000
0.00000000000000 0.00000000000000 13.28751360294695
PRIMCOORD
 96 1
Ni 6.888502912808072 2.2858482454844746 11.279650592985194 -1.6384156920350945 -0.8133687421831088 0.3231066776240564
Ni 4.676709167184257 0.6382940459241732 5.738836988962913 0.3064829530244464 -0.5751917726239126 1.1521074699174674
Ni 2.9846224026225445 1.7689011722264254 4.434574466328095 -0.5166963474911811 0.26484933664406 1.054808441653977
Ni 3.4868348365188373 4.71583812322195 5.059326806724235 0.37012932623049805 -1.5174180346030837 -0.531270388650614
Ni 4.087187413052588 2.5926337866505245 2.2710219118173858 -0.7222293057631111 0.30341974071809036 -0.28806356997699417
Ni 5.3563183066435425 4.524115317281353 2.509493379782317 -0.027386619543068966 1.3918787805469772 0.6044861507126558
Ni 6.0356278508477805 3.1817106872216736 0.49825959225851724 -0.78569055954155 -0.7072590576065239 -1.810130416205999
Ni 5.869643000908775 7.872591617833968 12.377823355403395 -0.4115914500300266 0.3190343073268957 0.43123596373383155
Ni 2.184013094701462 6.5756074441679235 0.24896456480677925 -0.23849835745435705 -0.15361055837102577 -0.7459952978344572
Ni 0.9777427328053979 0.28453650808911873 0.2627722746067155 -1.82093033503498 0.48906624447873837 -0.27321030701424565
Ni 8.183253740027418 0.15553079126675465 6.444855904086616 0.18028138279399275 -0.2995242623184261 1.1254070778081455
Ni 8.87796974325624 2.6494842559563305 1.3492671771290283 0.3297802329894901 -0.8591132954080754 -0.9517246883879092
Ni 6.985971235782703 1.245008936237788 4.722103295510027 -0.9735045032671623 -0.3956135865445316 0.084871344023099
Ni 1.1799967658930295 7.433530232243518 2.407431262896998 0.6545470719247889 0.14429236629389344 -0.9027264041123356
Ni 8.012048669735355 3.653709393578885 3.556974625046911 -0.6139110435709814 2.409916076119192 1.0318490046443263
Ni 8.066193703101664 3.8561268422601773 12.379975901917675 0.7536929235890311 1.0252309851071764 0.9492093781652233
Ni 8.471201094702003 7.528910467076926 8.887512306061629 -0.6071271878799286 -0.639763228747395 0.391293619012939
Ni 7.357532902547111 0.8228828533370621 0.3411473011908889 -0.6568173560162043 0.04854936966361316 -0.6083302070490942
Ni 1.9419401286251263 7.246428456145888 8.820782456254612 -0.8567666495527696 -1.5818635066716629 0.4721303879553481
Ni 0.44603832357536055 4.871854621947641 1.7122958263111105 0.46549334225480477 1.1089679584155159 -0.5217303103706628
Ni 6.637986807725923 2.0030666392983925 7.214070352872213 -0.3275839966691197 0.9271768238452162 -2.7726650507252186
Ni 4.02817622645282 4.454936049298242 0.3800583697703659 -0.8323547963673085 -0.27942774867886716 -0.0741048495352143
Ni 6.424366312234768 5.705310464194563 4.5973064380888395 -0.3550786025449627 0.8791259910845762 -0.23500577092006625
Ni 5.288419127477441 3.0720225092988453 9.163932506332255 0.9848816347558522 -0.22747398131939534 0.30174415278788036
P 0.3098532150048279 5.563438492964631 12.643082270626985 2.920086449566397 -0.4849041426812488 0.8184186459021905
P 4.239445353124078 6.256184430425432 12.608454506330242 -0.40155874838437294 0.6982841078014232 -1.2243976348414463
P 2.684500586220223 8.649333170436467 1.1172034161644222 1.6436568858293756 -0.2436634465950642 1.2343058950940935
P 6.27527681895148 8.227094512348998 5.73450556786649 1.2429085491614402 -0.7011655431142764 0.14072676042982216
P 5.048733844797373 1.610832899935881 12.668766662628432 0.4381895122335292 -1.1675726554326022 -0.2030189336008245
P 3.924616133292276 6.500272855490252 8.10623324714181 0.6959896553402917 -0.45896299733545476 0.962528720981949
P 4.942413843832777 1.18763190557463 3.646399269355788 1.2482847258716887 -0.7104153438473185 -1.4466412209998376
P 0.4452920590309758 6.0373891078016815 3.8295146128325013 0.09253348855404708 -0.027940949384642203 -2.469275134803799
Ni 0.7936387249870362 0.45891093303379277 4.596629171239557 -0.5157157287454667 -0.9549323966919296 0.10237232902133982
Ni 2.2830883376804243 6.921467469507111 4.466703787770645 -1.2641391764054422 -1.2545577033645943 0.00015760862378682533
Ni 6.175248318342828 5.919666329857193 9.131604362584085 0.38164144063515565 0.3829208215682115 0.30141402314197124
Ni 9.050591082026697 2.7364395090721096 10.291272228625699 -0.7480835478220537 -0.2235777315887827 -0.9678449909885395
Ni 2.2875096373533608 5.548749246823336 6.831044174348084 -1.058917321616028 -0.8450555317634286 0.7931794117194274
Ni 0.617717299089039 0.36157606612731885 9.52015761963159 -0.7715140109308519 -0.1738770219295457 -1.6075395712815281
Ni 1.7832272726040306 1.3958233718986073 11.215498170235975 0.8726635232886841 0.2676991473880293 1.695755149186512
Ni 4.07556674861448 7.005735443971578 1.7073125585688627 1.0640387020029933 -0.0007785300372373689 -0.5306954899837506
Ni 5.624646711434727 8.113257394076001 8.187553385869517 0.06707031128593609 0.959719790778244 -0.8533527387752142
Ni 5.212412719136941 3.123561971810672 4.489624640510404 0.8679509483043633 0.48898036963315145 1.0058469241536094
Ni 0.6810835112598687 7.443017415319942 6.6985141278891 0.7714371349463295 1.6777993360390395 -1.31837248382771
Ni 5.269063458272718 4.984992684625532 7.0790028253894395 0.20937058685046522 -0.49768869604042676 -0.26271120725513464
Ni 1.1481398037732475 8.186485737324267 11.544577229835005 0.3543918608905832 -1.9703713354093486 -0.6176728246062588
Ni 5.257869490106946 0.5042696546476012 10.768838867404702 0.03920443811360345 0.952198028479902 -0.8502648438785099
Ni 8.047900235255737 7.782912771490507 4.424622456674147 0.7050455948949729 -0.6364771017969554 1.1849373719632947
Ni 7.346229990652232 6.640846580614989 6.89421337994211 -0.5298789076197261 -0.29021918286741627 -0.3476355160033562
Ni 2.8144976909774626 5.191640781453824 2.395911371408314 -0.22493013185161906 -0.09273891969663384 1.204039125789752
Ni 2.298966886197808 6.054293543101491 10.953242470478108 0.5959495739965543 -0.7831721639950705 1.4740077859382483
Ni 1.609834249085731 3.613772438216982 3.8906238740819923 -1.2264123512786298 0.38532634568591057 -0.4823739200602274
Ni 1.629580299986422 1.0734225628938505 2.4696308693019704 0.20572681945029084 0.953519318394487 -0.5520274186923073
Ni 1.075574201543719 3.5179836643994213 8.046865269829217 -0.49094417822774156 -0.07751876031276972 -1.0542988490074099
Ni 3.9067312044305007 2.8896688640614734 6.85590513333036 0.4152848397212138 -0.3861601544411156 0.07562771393764395
Ni 3.967894029680136 6.843708882856802 5.977547225267472 2.5441659705754187 2.0880723243679586 0.24039865980086342
Ni 8.625311078168316 7.344559520139254 0.21938361876093002 0.23362894517719762 0.42006991981468306 0.33217495847391176
P 0.30018445904655844 5.6781380824263925 7.717467549822547 -1.1634285513572415 -0.012399916326249613 1.515213827862913
P 8.691013225464088 1.8355384198637006 7.813190957402642 0.646037491791881 -0.4015875447397793 1.158696950209527
P 2.0080508149050496 3.5709757099660124 10.241922535068927 0.9118635905269133 -0.10375943917685357 0.5706869427750236
P 4.35426296495904 6.176900631567622 3.850947475805537 0.9246638276153752 0.9329875169897222 -1.9735551324539686
P 6.896682771135209 4.427836296682811 10.512190138238223 0.024772321848673465 -0.909847074317517 0.038862481393152425
P 6.677170235628169 7.857185158809382 10.246386504369099 -0.45564807402960883 0.33335843725905173 -0.9142007233005223
P 2.6019303182010107 8.748862345620044 5.4951443927805155 -0.3083295193148819 0.4094052410119852 -0.0991589642903647
P 7.261489926694967 4.367100167705512 1.6118551552606706 1.409248382173676 0.2420588211121057 -0.5633248459829976
Ni 2.9981858968963984 1.8165912896431293 0.25217749695103425 -0.4667809507179767 -0.6565013674376822 1.1171484373437794
Ni 1.568353924228141 1.1900559035472666 6.777030781321113 -0.8465154041384066 1.272286488102925 0.2284448298730969
Ni 7.214172033686046 1.0296998129454695 9.269715051566589 0.06088963639652093 -1.0901868211532708 0.14438724000054487
Ni 2.4737489422622247 1.810363339795831 9.026606212199324 2.0765013317009076 -0.6213520732300589 -0.7878765114492754
Ni 6.725459543554963 1.9766477849898814 2.3913003280738487 -1.4689388560557735 -0.732664385053506 0.3357138248651057
Ni 4.286381943081123 7.424814733914937 10.180162335038021 0.9081606877540295 -1.4777723951870032 0.2834373840588925
Ni 8.066593163441723 6.3657909005514295 11.351190308432296 -1.4819244696821638 0.06187128358349989 -2.1913124007062326
Ni 7.599360745232955 3.969491871040376 8.083484888639806 0.5467039495968649 0.9808709709345622 0.24951039229414448
Ni 3.443175637079102 8.822063452936032 12.26323180180633 0.39508548195520343 -0.5994727566584644 0.24624766238247264
Ni 0.5481422022235047 5.048543193271435 9.778573052938423 -1.3421451607672756 1.5598276099175459 0.19966801485072067
Ni 8.980767230313035 2.7086588581497577 5.586894077841424 -0.5436373948563993 -0.36050003067085007 0.9298692830757148
Ni 3.61212920363628 3.031068745798607 11.68034835223493 1.1542790236474894 -0.2529276455058096 -1.2957202936458332
Ni 1.5022704738804946 3.4903755077148233 12.488894210821476 -1.2246197781545813 1.349925833153959 0.9459587324384097
Ni 3.097606128350867 8.741889946957178 7.520918536682498 1.97720841293584 0.027141336301482286 1.2424447221511439
Ni 5.977642551030441 7.989624418827444 3.3046182788072587 -0.8188526481158156 -0.07416912711424646 -0.08119183828898276
Ni 3.4918644053459555 8.613790278815223 3.4572647848458984 0.5011558286534208 0.4230966224561487 -0.6479354801455421
Ni 3.3807690375888253 4.364721562953337 8.79515162825331 -0.2768175647495297 1.0661991999894218 -0.01555877367020546
Ni 4.693332164517208 4.8648549873524995 10.813072745015479 0.450053867771283 0.7591883994859634 0.699147484242983
Ni 8.376256634785024 8.723106232330268 2.275579391151706 -0.3435094096501245 1.871715021787015 0.2945278375450992
Ni 4.917138898679893 0.2694868397773597 1.3794164462950536 0.045831713622133965 0.2956598942670134 -0.6128394077733574
Ni 6.341124224552727 5.623194128379964 12.993407173130752 0.033202969114529905 -0.4284139209040041 0.8901704218241959
Ni 8.0924672991047 8.949309728533313 11.485739445337401 -0.688326482368079 0.3567115101626953 -0.3636707150893479
Ni 8.982846239810165 5.278786686095541 5.565939659412052 -1.0384132881254051 -1.7249248287719325 1.6130584442172282
Ni 7.7933441335525275 6.288540717970289 2.420732384356585 -1.0597783840647426 0.2808832501784711 0.4155758885990714
P 8.612492032710028 1.6851869950515872 3.370802502104329 1.3726142758904103 -1.2912242055476926 -0.400395067093575
P 2.0008332928516936 3.346923852412836 1.577891947711482 0.8119080984771824 -1.0769677513598357 -0.1447515653184991
P 4.8816232429909245 1.2799707946371268 8.007587424028413 -1.3520068840527038 -1.3355981036773772 1.3466620748010227
P 8.985742327275599 1.7472667633545416 12.313564712518296 -1.0394895519087195 0.639625160507634 0.2502110179055949
P 6.710470702158621 7.806281201384015 1.145427104918477 -0.8749309791666222 0.5359243424828577 0.17575958366423924
P 2.0114462277955596 3.31652855199191 6.072912026405922 -0.2918523475954651 0.05845814413689287 -1.1965068219684492
P 6.866051425967884 4.0452803919226605 5.80607161138146 0.7602793185572971 -1.0060970924912027 0.5962951302614311
P 2.725999068365997 8.764777208713795 10.044204192569795 -0.9623474582090781 2.1444525029299006 0.8152387055123121
