# total energy = -340860.40543239994 ev
CRYSTAL
PRIMVEC
9.30769202381348 0.00000000000000 0.00000000000000

0.00000000000000 9.30769202381348 0.00000000000000

0.00000000000000 0.00000000000000 13.62274811278230

PRIMCOORD
 96 1
Ni 1.5142777349174217 2.3429601776780404 0.2697043400423789 -1.2064608478573673 -1.2629420707735475 -0.955787288493057
Ni 1.0246745152425398 4.876634966419127 1.7061809382612263 -0.17077447174482202 -1.6748726493105477 0.6853663712984907
Ni 7.526879290980301 0.15882459640105415 7.676950002964333 -0.8388434894154456 -0.9479641929042124 -1.426779449078904
Ni 2.807199936389194 5.755662715731235 2.972156440343608 0.3562273714374252 -0.4233696736118773 -0.573041044829497
Ni 5.77586040758125 5.047849962539416 13.370822673941877 0.9634530325684312 -0.5355361059055035 1.8965742469225402
Ni 4.512387743903695 2.006943185292145 7.92673681268881 -0.10957398897610161 -0.07574367069021794 0.7863546754881102
Ni 3.0977767759586046 5.017209040156813 6.916528312503087 -0.24126949244159093 -0.691581498970267 -0.09753968351938685
Ni 6.854221690838024 2.5520109421717456 7.804540776996219 1.3166781268444228 -0.15702678314142635 0.9464662682024475
Ni 5.619211949592423 4.320602748249518 11.225689114858032 -3.3184850550552327 -0.925859133475057 1.1213701887346106
Ni 8.30680804253798 5.992012941144799 1.8865053726366354 -1.724054253241521 0.003231619563420241 -1.3735118480040152
Ni 5.144249729585779 1.0886555907158133 5.765937477036872 -0.5445141410343978 0.32380190391886815 0.07851197746397445
Ni 3.046426238660663 1.2138254340333263 9.708456187699884 0.6197471906367843 -0.37366922106295647 0.029088689835840224
Ni 8.471516961882621 4.3627479780637435 5.001550709742398 0.04032569620224023 1.0865407397602511 2.00355759235333
Ni 8.415782501607094 3.2650360029377623 2.999061255118563 -0.27552378563877067 0.21882427606419733 0.05014731027835235
Ni 5.490533106354425 2.787393167607244 0.23749321000304843 -0.33582335385977646 0.48735723220743155 -1.377750568675711
Ni 5.48089033734216 1.839870112154923 11.338798981525747 -0.18380687944874796 1.6727990546109708 0.05705355047988238
Ni 7.18338822184069 8.804881262020933 11.644739097670104 0.3053169577408032 0.6476585723350716 1.1379149804671693
Ni 5.877658636043747 6.955079842398745 12.035180027284298 -0.8132918661985864 -0.9537214071029639 -1.6765937457667124
Ni 5.191625882358395 4.389051515929247 8.638879504244052 -1.1422778854215554 0.5272265575985435 1.5433987749375613
Ni 8.486223115395534 8.866972875998561 0.4262466903413023 -0.37006916241652393 0.5270296110963891 0.11480566968868615
Ni 7.839543283895374 4.249249980635595 12.21141745406001 -0.9599902708308112 0.6458719127482941 1.3117248966042054
Ni 8.187194891402246 7.329500372375961 5.742900939097339 -2.7642608858219235 -1.8446482474772101 0.2926416762659799
Ni 1.8414244967350855 6.820378922374128 9.390868425665614 0.43082227323518063 1.0874930763711916 -1.200275802092578
Ni 0.41280824449196973 6.317772856840042 3.580766880398724 0.01404259413599517 2.5891201666886055 -0.3587107999809112
P 2.537807404032057 2.8781431655508602 1.9089694875122165 1.9347679843834418 2.78783224538396 -0.4634182048933309
P 3.7719236068363666 3.12147416003701 10.735842964419424 -1.0298581994665423 0.5639989892318867 -0.7101176101012415
P 1.0741448987369318 9.292669481736944 9.319485873436978 0.03217992716665426 0.18813687428266956 -0.8045876535563692
P 4.286313210564977 4.867141120480412 4.287650725919284 0.05441559863640305 0.4739180759833903 0.58855482419438
P 5.050242039408289 6.295657780418091 9.893983621957393 -0.586155470724268 -1.5981529878603058 0.5175586954914765
P 0.2839739627959541 2.830385397402276 12.114260040876971 -0.055093084319401894 -1.6174300909223627 -1.5050386871021242
P 8.25163204378826 6.520122083024066 11.890343030566289 -1.103289677083816 1.5424775486748723 -0.0525176102827418
P 7.781500515979847 4.093392676474994 0.6846477691013503 -0.5789247573037836 0.46784075944105885 1.4312696236397737
Ni 8.330309965082353 0.6180912552248973 9.703837710881459 1.9219474355800061 -0.8418570794307888 2.060004362487149
Ni 7.111998223458378 4.945856272542889 9.955681520559326 1.5867830554604672 3.430677455490788 -3.1104673826882365
Ni 4.788137429962933 8.455126116100189 1.4852340124986259 -1.6497084913400943 -0.17372969771840402 0.33358700833009003
Ni 7.085266531756423 -0.036512214557253085 5.0820752771484905 -0.24770239255112822 -0.9706526356406638 0.544548593816759
Ni 6.22024685904997 1.150253897012311 1.4877815278255149 0.1584051515461917 -0.5717344102029314 0.7589816827917961
Ni 2.3512719467204666 8.130557584993332 2.4980710049324792 -0.34714597796144725 -1.450088813228806 -0.7157642668640577
Ni 8.370472656479963 2.099014875513504 1.0400843302779708 0.9212365471013811 -1.196143010871127 -0.16820696812796193
Ni 7.6673509801049216 2.8597511659676207 10.347022503999279 0.4848334373443134 -0.9533570817850098 -1.8040628698556802
Ni 1.208091895701709 7.161980530018092 11.843099977790654 -0.7128473503275788 0.009318963408080725 0.5902401823166028
Ni 8.81281141568739 7.352778910310009 9.448602178203528 1.8059045510501093 0.8513313374698112 2.402796434355275
Ni -0.026456184015890737 9.17400571519508 2.8934989959721293 -1.4713862891550014 -2.826637391176616 0.027179131517953193
Ni 2.6517521706808522 3.2542670031817864 4.019650624299826 -0.5075612179591323 4.150011184873659 0.6172069407134338
Ni 6.451412699965627 4.852053351591528 4.235803157863375 -1.5660789901438963 -0.759555295907079 0.21791513398636664
Ni 6.763574077507473 8.575912036440117 2.6627566550468766 1.707446212371195 0.10509409882787707 1.0500524150262303
Ni 7.713228594449957 1.8078609590340926 12.369809242778564 -0.29996829183438023 -0.9880703168964791 1.202288975867865
Ni 3.1716612358228535 3.638097609868847 12.742214657416826 1.0662141123877573 0.3570249276380561 0.22078139979056816
Ni 9.273169866794188 5.137287575897386 10.710027149619792 2.6782839674394716 -0.46357349952427257 -1.76198188152523
Ni 0.9541315168410355 2.2208432573682724 10.037894503311772 -1.1197848465253617 0.5687539874183689 0.4013065231642508
Ni 1.9398068021980623 1.5389989651264724 7.512196406697629 -0.43829724145598714 0.14797444313117097 1.302906526981627
Ni 0.2502912866361225 6.124843015057963 7.22433369014364 1.7092912359997336 -1.0207852906309969 0.61191278219403
Ni 0.21245551826270712 9.481932092832892 12.027169827465809 1.1665323870935458 0.8936313837896028 -0.8135790584217021
Ni 3.6010995337841423 0.9725142087321782 0.8796197185294636 1.1069977220630225 2.152033657711268 -0.295589188930078
Ni 1.4658684283220629 1.3225578931079236 2.739385022541257 0.6130206705462281 1.211894617278429 -0.5632148027676945
Ni 5.773756869167379 6.526330313652618 2.5371139809708474 -3.4201073932844257 -1.9282011297992019 -1.4372289265470022
P 7.285214373379476 6.6655268489599795 3.7687329299855903 3.179759641326156 1.595630221438452 1.49723281790446
P 8.983077027213808 1.6299537322962179 6.985350318635897 1.1194650012920977 -0.044744651205542295 -0.4242209658685791
P 5.529560259316228 0.5700030640068775 13.031071435486753 -0.3537570555200617 -1.1703155082850618 1.0724426097959725
P 2.55859148048417 8.57772703639899 10.874045438210851 0.7988633494780822 -0.1926843844440359 0.10170461353035386
P 6.399103470381716 1.1717825888321658 9.487304492711154 -2.513355155842149 -0.16043940836740112 -0.7749839717573234
P 6.00065978710271 8.165480045740455 6.759743962209647 0.8384992187021494 3.108102482000486 -0.781773226765015
P 6.906996305026774 5.365735570720783 6.52904257512962 2.055210540642931 0.38247962026573484 -0.7214739156543253
P 1.0947242059629148 4.910626657956572 4.7505929923521455 3.5372949329417267 -2.3326261439877762 1.8828923785600733
Ni 7.464508446239771 6.791422692261042 7.937526289367399 -1.9302659827480304 -0.5590123346505728 -1.8307563199864663
Ni 5.561485643208187 3.9532839873421475 6.493214475941481 -2.4801478158522445 -1.738658119197625 -2.4221270163630866
Ni 4.8156137370326295 8.2428455824489 4.091455745749654 -0.8289123463446628 1.0105492147252855 0.320600366262435
Ni 2.4817192514568545 3.74079868446473 8.965293750693698 0.19238176560195253 -0.08978395083336796 -0.11342318751886271
Ni 3.93615783388407 1.7428746528143668 3.2142737117803373 2.501086622887441 -0.9358509545804462 -1.6342767301660563
Ni 6.4482201615764305 7.736851516991587 9.647753281383096 0.3517469670685684 1.4420188917364778 -0.13742366419851818
Ni 4.866703658951862 4.168636059385372 2.210113349919103 -0.6828371771187337 -0.23940055755365222 -0.13573007854617916
Ni 1.0026525157415556 3.7094224544064813 6.714216317087452 -0.5003397605100287 -0.17540837097240758 -0.42336581695713543
Ni 6.57637777405701 7.519982291136587 0.5458551876309885 1.2677104386964684 -0.44636690583799904 -1.1610816483916198
Ni 2.334760100940777 5.25820380392667 10.958833859366479 1.1846162411784502 -1.5864621817859386 0.6897169349577026
Ni 7.635472134673447 2.2873001789392897 5.496288052377865 -0.18283448823314966 -0.04149014882398661 -0.4064520719209323
Ni 1.6887504232715842 9.257151328695626 0.46346070488265273 -2.127344896715336 -1.0095433991685905 -0.13287821091968083
Ni 1.4828084279382048 1.8161913434607118 5.126962553054428 -1.439559888673024 -1.5177833883623022 1.2820505094682242
Ni 3.1412436980505727 6.7600464622027925 5.140421475826373 -0.10214581483283054 -0.03650477979425326 -1.0430541293315263
Ni 2.3711345616549973 6.238946012472404 0.35754847651338 0.28532714488243766 0.5869537982558473 -0.1593297202429901
Ni 4.2350650578800995 8.714019571772155 8.140409777077776 0.17378137689194587 -0.10578366869573395 -0.31227359156429446
Ni 2.870883165715371 1.1110685132848623 12.132746048150388 -0.0938151834799481 1.0156338283370443 -0.1157340950402265
Ni 4.848860813202332 9.06351410231419 10.676910381139445 -1.1424285520668067 -0.7343412585352965 0.2350119415676533
Ni 2.900258241972812 9.271876097592735 6.01650054828222 0.2821911703566172 -1.078554122010349 0.5196058078284922
Ni 0.5794084868706748 8.769716801279294 6.911773943380051 0.48600817437870497 -0.14131759993628568 0.7183209718476402
Ni 5.972280633899624 2.542042403936093 3.808688990618652 0.5255170311066046 -0.16780150515942713 -0.3086280243919072
Ni 3.5051279205742314 8.310037811695564 12.910782545904793 1.1492226921705047 -1.0914602885490559 -0.18891437587864238
Ni 0.9386528248840885 4.512182974677565 13.092959211007459 -0.3397586843584407 1.6308638478297655 -1.1928849089451454
Ni 4.890121812267363 6.549590236202475 6.905534997367579 -0.5225569200370161 -2.157293877668943 0.5154830439093703
P 2.8170288592433947 0.20724507222692906 3.9158866112664903 0.539821877765051 -1.2097711431775229 1.9014349174489509
P 3.466137998380815 2.625644094349381 6.17085931401524 -0.5566996273569961 0.02497543899841505 -0.1337169047708923
P 4.457435129764298 6.3975956242620375 0.6150737014471208 -0.07228065184228197 0.6625262334755235 0.0783109171967619
P 2.636962247939067 7.2205259133068465 7.140486276658996 -0.40038555401187814 0.35649605171777954 1.4302833484671045
P 9.269000020734829 3.9280415263756767 8.621033866186893 0.10522496797878653 0.5276057953148333 1.2274263943654409
P 7.656070057283623 1.140899666455046 3.4347580452457276 0.09260136567750504 1.9814432769527939 -1.180119124639045
P 0.5754759869597849 7.299678526897874 0.9516193707441143 0.2194991906440349 -0.06994146218614407 0.36498634857697787
P 0.4420260207529754 8.07846243232765 4.877447527939176 2.5216526199642506 2.2160587544129773 -1.7911847283414313
