# total energy = -340893.3205649132 ev
CRYSTAL
PRIMVEC
9.03342757056304 0.00000000000000 0.00000000000000

0.00000000000000 9.03342757056304 0.00000000000000

0.00000000000000 0.00000000000000 13.22133436237387

PRIMCOORD
 96 1
Ni 6.079957403788156 2.035366714312182 11.410765439308417 1.2928105761982056 -0.4387659535622895 -0.14083577520386067
Ni 4.28230533380558 0.6207229363657425 6.008951050366592 0.970400924641174 -0.6059768763255692 0.021723764830336778
Ni 2.7569569020016704 1.7329817626006405 4.627955886467783 0.627932554661054 -0.8349816924671941 -0.20506244639341462
Ni 3.4513293726717746 4.388258404804703 4.741514200068505 -1.0797322014788502 0.5561542963764874 0.2536221004696729
Ni 5.159442109399742 4.749071565504423 2.7704907830632175 -0.22783804952703343 -0.718950120791207 -0.45620471786402716
Ni 7.130581154276868 5.985847156224948 2.6285467302689955 1.1390403523208643 0.4933599867580859 -0.7239231485257662
Ni 5.045404120799439 4.360173478746534 11.371801556527233 -0.2111521042309202 0.882936623079918 0.4950530581897926
Ni 5.547138750301812 8.100753199563243 12.43428168059309 0.6798112458082163 -1.1550768369584365 0.11421585862348717
Ni 1.8713738717068369 6.426524849340325 0.35852318683167583 0.2230660820596868 0.1480963134210159 0.31462692228781947
Ni 2.6291158362006986 1.3382751819683858 0.37896673657829677 -0.1944129370993684 -0.05386872499399755 0.9094598661814273
Ni 0.24998836225666746 0.0864381575982024 5.202145831160689 0.5708450656194427 -0.6691679071617572 -1.051683265761434
Ni 8.657573669883474 2.0354389817320806 1.395749461013899 -0.049604293290688765 2.0016158952459273 -0.6424448893446161
Ni 6.644221418357964 0.7773842492223548 5.017958761407374 0.7491099322040389 0.167217350521183 -0.06626555599645362
Ni 0.725648003316806 7.377853164888089 2.6463687793587876 1.209309373049756 -0.2902335810451195 -0.5800835534985752
Ni 7.821674490769064 3.8809772508250977 3.7435417816898116 -0.3651501278483518 -0.3325482826529305 0.39279308637660093
Ni 7.748431460701633 3.8306520262930728 12.348197633352392 0.4167395698898693 -1.165661297342502 0.8176272603491467
Ni 7.840951825027068 8.800220523336213 7.191890123290761 -0.39469595982626865 -0.09462096721069511 -1.3302658928311863
Ni 6.85323686356026 0.7117094247038255 0.5259487318822139 -0.13563186240541802 -0.09675909659962045 -0.9440450603554645
Ni 1.8467668152312964 6.627455376941442 9.077992998515722 0.5249858411934829 -0.22809618828442654 0.019751728705630498
Ni 0.170462583371785 4.90409421461483 1.4080195655699659 0.26512110224820795 -2.2471991845715236 0.1543291817046052
Ni 6.238214019939035 2.2912204810363854 7.21102111602347 0.06516152429899745 -0.5786943864605324 -0.7938255299438587
Ni 3.317661746141462 3.9841841598680676 0.26071555739789515 0.4292891244201058 0.6994848129777438 -0.30638910775905936
Ni 5.980996205664241 5.8280422114484365 4.845764469986264 0.3828465166868503 -1.2927853793872253 -0.258722912031348
Ni 5.168863974269047 3.101193723262103 9.297691375064556 0.1782468688624672 -0.1931826642366931 -0.4913982350460247
P 0.15554297453367835 5.564708766764708 12.27356255210916 1.9051874425128477 -0.5871296617120791 0.8356905456087608
P 4.091248342448135 5.923995278219064 12.729302582216945 -0.701510842268837 0.42556051061560907 -0.8647584095089944
P 2.4333975962597814 8.405342307581698 1.477563407081327 -0.8359651394263861 0.11783057255793901 -0.5414470720732998
P 6.45295665816831 7.761349262008543 5.642548004737702 -0.3592964972810522 0.47757444178905495 1.4004361831986847
P 4.525702004024728 1.003406025012335 12.728297161737602 0.9787474968336561 -0.26607343885914825 -1.1095274304634117
P 4.0339854456058255 6.108430767228282 8.238411794357466 -0.7382652761800511 0.47477528177736306 -0.4139753768811709
P 4.92372385254484 1.0775704646834754 3.7942319566923253 -2.0786039798662075 0.4579047312742695 0.6701089309187879
P 0.43146540376377784 5.448421454720056 3.4784937924689836 -0.698701654954816 -0.5340780333027383 0.8173603798410053
Ni 1.233360955130307 1.0795036181657682 2.7067906657934233 1.820768098425503 -0.878291668108739 0.039516570037383555
Ni 1.8549420671073478 6.427455292371522 4.781098679318072 0.35997038341962523 0.7089513577072822 -0.42160358285039
Ni 6.000878779563898 5.8919537109214355 9.296594716967594 0.12260716801097594 -2.5450951672579074 -0.40898460853479884
Ni 8.540536583357373 2.307074146276684 10.241853472586605 0.0950400570259847 -0.20386019855519727 0.17451979771986717
Ni 2.2707146006401016 5.4635524457613664 6.866050780451065 0.7386681680454247 -1.4259741795687892 0.906024358137317
Ni 0.5331149499079283 8.882722816578177 9.013974904598372 1.4697742074728752 1.2252458417743544 0.41599986351036744
Ni 1.4924215886125198 0.8434276375823679 11.401272210361963 -0.47836325623893744 0.3214004935662271 -1.04850435381282
Ni 4.28094128625499 7.117238781878052 1.3562444759262215 -0.3559075262041612 -1.295052063934215 0.32582459077585174
Ni 5.640688925360806 7.795757587307858 7.875234585684308 -0.892197993777186 1.090990805111805 0.1090242871202187
Ni 5.336732157266465 3.1947709986035577 4.866124912200002 1.136038589380063 -1.3240975592369455 -0.23921826633951707
Ni 0.6449840125685173 7.273571277974125 6.934034549035361 0.2332705333965144 1.1963538413303525 -0.5185493415395198
Ni 4.975042754100474 4.770805992038986 6.808405769626041 0.41838379036151163 -0.49078759804521926 0.777700599357538
Ni 8.11375230171754 7.189894639158805 9.156289327919577 -0.5200015006050142 -0.6767606319073506 0.05170668434567223
Ni 4.575476189480025 0.2922413159859966 10.512890624231547 0.010108549188911624 -0.41461249624453755 -0.8788030605275189
Ni 8.255324177299283 6.960093277308118 4.691207042391456 0.2832949449437573 0.39637514730090445 -0.37646323886832583
Ni 7.147835000777706 6.216190523724876 7.085009319288686 0.5972919469570617 -0.9845749021487107 -0.3341264257733278
Ni 2.694138447254641 5.076289409378688 2.4213551340763955 -0.9550946333014069 0.4427539916757601 0.30362054387498677
Ni 2.301545688654426 5.072052731887121 11.503843166109823 -0.5614924207599491 0.5449077769283907 0.3120961854461657
Ni 1.2247882324448125 3.3300736755090803 3.8267830093002413 -0.6101490054253879 0.8230551162329374 -0.34573804187032714
Ni 3.8638860060190323 2.8050057028068833 2.528553914726025 -0.3329799708737104 -1.0087496996227012 0.3073026207122643
Ni 1.1977331171202004 3.439983387747663 8.084488513372271 0.18218605601587332 -0.3805258389734737 0.17118533402999553
Ni 3.70663210031925 2.8252857475159834 7.175825979190006 -0.19815929151567807 0.1577240663187671 -0.5467396879308067
Ni 4.130317916330922 6.91148440399869 6.011634881673085 -0.5319722998136451 1.1086668822353292 -0.23702691511515306
Ni 0.5956922121410455 7.3580338249808435 11.114924302468712 2.1123175700685684 -0.7393338266538816 0.29738818981202975
P 0.18200007695862794 5.5056120841424665 8.02259959831369 0.495731829424372 0.8289815090197014 0.38181884675328437
P 8.666065091721583 1.5977423196875291 8.000031386422043 -0.5329565181037853 0.3881936399313766 1.0369305329322915
P 1.5566853917575252 3.1030726761794716 10.415714431379133 0.9502092801846473 -0.10009098918633084 -0.5480949164071205
P 4.0460721715839 6.3493974454533335 3.742523714411987 -0.4960843276677843 -0.29872233524242103 0.14333000238062413
P 6.943525971296319 3.9058372432702835 10.287242832339544 -0.4551279398600807 0.6243826325262666 -0.19572368549099195
P 6.226326029365683 7.72741067493857 10.2668155427624 0.087592599609004 0.8786130560038997 0.4848514350664424
P 2.3054481293289615 8.56181030509008 5.8893773774020435 0.0725552456599073 -0.9886231040761554 -1.6578612023542159
P 6.786786970963315 3.885277162309076 1.5134595378878082 1.7424782642746637 -0.12322063322525875 0.7206426780022815
Ni 5.307490952489915 2.7785016265589997 0.38497396585738425 0.23416861973075154 0.44495511309213687 0.4019498131752045
Ni 1.5246980250248199 1.2196030450670736 6.934179987217907 0.2867571924607448 0.741916242669077 0.7354414335780108
Ni 6.893218813619268 0.6125404577477012 9.176491685152284 -0.9382050566349197 0.40992846050530685 0.6581036789277956
Ni 3.041437600433285 1.8251498232540688 9.211872007249237 -1.3331033622799817 -1.3380324241504826 -0.8491826665579246
Ni 6.484953058328502 1.995059560863628 2.6443064478634257 0.42139069550863556 0.2596351394329722 0.12185512033629983
Ni 4.046776778927913 6.7346731277887955 10.44571354072187 -0.15721858743725828 0.08519556013173714 0.5377770794208803
Ni 8.317528358977173 6.777834844323352 0.5453787310647542 -0.8875823493820455 2.022630549824381 -0.11298198621638608
Ni 7.878910287328911 3.7883033182323778 8.14968366289122 -1.1631585855253066 -0.07870198198759348 0.4443599027102992
Ni 3.1229642835066156 8.211367519145838 12.411871553682472 -0.3693924480644735 -0.3954503214937899 -0.05912020320092398
Ni 9.15845012377455 4.963850337443648 10.122108164499796 -0.17371375687880405 -1.08173123418675 0.0815052557643435
Ni 8.430102932324523 2.2482303996240884 5.919601419089218 0.2536647807821502 1.605877867308389 -0.1389655547643413
Ni 3.517463095306661 2.481916135294336 11.300591950987204 0.2023252499679096 0.5832056440673246 1.7469162454413592
Ni 1.2825570012264131 2.997697744539538 12.550801151724167 -1.762445708535526 0.6024457232438591 0.5162152940897046
Ni 3.1305613960234764 8.561485101700537 7.882202068305301 0.1691456778921474 -0.8598779414882416 1.4061082938827978
Ni 5.7412038730125445 7.847699795360118 3.5273727652602838 -0.3722152622252493 0.9407792451199992 -0.547108127013819
Ni 2.9787004465336415 8.31265934156149 3.5711216545815176 0.8293481483305007 0.5211279008999734 0.7864536629598197
Ni 3.016017535483883 4.437066013518853 9.390664314107108 1.2530127274749776 -0.19364751968825358 -0.8079743106404149
Ni 7.279849510077833 6.061104640622058 11.46954685531135 -0.6093229099796668 0.6557804301112576 -1.2654951762127045
Ni 0.5703543513817785 -0.2046631398388907 0.27399921251804277 0.017563462805060076 -0.09629681225122125 0.26981825061356113
Ni 4.617273858463991 0.4045746968194355 1.726851678707725 -0.014390207283401022 0.33126504506513277 -0.04697019810195137
Ni 6.198701808109368 5.47519653379256 0.21007506624656186 -1.4608316535676067 0.6741615037216068 0.8742185264806299
Ni 7.903255374407318 8.6589828845715 11.332944268190397 -1.0672685217942006 1.7031786953440926 0.785632452610105
Ni -0.03055827850420633 5.049956968253064 5.945633950422263 0.47312514776844966 -1.7119433289106 -1.231761274295369
Ni 8.054908555064944 8.826769766721533 2.496134750159425 -1.1791745013375885 0.2630665337120244 0.289240878114547
P 8.488973779259581 1.581951888439642 3.7743602229056537 -0.8035630689465966 0.6479593914049421 -0.1451385163442726
P 1.8699917573012723 3.087119643236812 1.5744098798304538 -0.7497416522507667 -0.18803788681096 0.6794111821563201
P 4.841528695837446 0.9617438574406785 8.20603237687181 0.24252419078429846 0.43284598853342876 0.0810393718715185
P 8.54010297883798 1.5107323461293776 12.464981783908849 -0.4984561703340706 -0.1421028148417424 -0.4316421980333147
P 6.415856371477765 7.696380851519525 1.2924702845510305 0.5083834567501115 0.018724830103012912 0.3091864679985385
P 1.9045355840128972 3.188664401622109 5.9817414634319475 -0.09462096721069511 1.2166951239908659 -0.24110031385357833
P 7.006525094593095 4.105620525580508 6.065247370467755 -0.7010639845394055 0.013743831948653747 -0.6770359970559243
P 2.549450039189762 8.39173796578575 10.153892279114036 -1.1018316044810508 0.5338209229866097 0.3312563033143844
