# total energy = -340873.70639329666 ev
CRYSTAL
PRIMVEC
9.20540140218455 0.00000000000000 0.00000000000000
0.00000000000000 9.20540140218455 0.00000000000000
0.00000000000000 0.00000000000000 13.47303544832886
PRIMCOORD
 96 1
Ni 4.178939348751206 8.131223298981483 3.2067311092535538 0.1563855500130016 0.2904390121877063 -0.6253848485385359
Ni 8.100422025183619 7.755237875490751 8.074336678632212 -0.4938510674618914 0.3081868230894305 0.20327167304157895
Ni 5.778589603286885 8.559679511667623 1.0037192497598977 0.2889811966952571 -2.142694382588213 1.3300319224435093
Ni 2.9102969254240247 4.974847577632616 0.36879600483080144 1.1953742510259024 0.6043851063584172 0.6799642264463127
Ni 4.436847085749049 5.582035868041214 2.5375784989658263 -0.23923086474500735 1.0532464964834958 -1.4647898668844064
Ni 0.7433877305172919 6.191967368130555 1.8853362114416006 2.270859504302941 -1.1647097320625102 1.0086823367198758
Ni 8.244863981896799 4.890903520321579 11.734205523377295 -1.658289805251202 -0.20592710838655504 -1.785827577794576
Ni 7.092918434820523 7.092089948675332 12.34174546012752 0.2412908325978296 1.2817473764055087 -0.4073370456290468
Ni 1.1546703459537913 5.326144113996669 5.635568960582788 -0.4388261173762636 0.10462461539062626 0.7211242456243904
Ni 1.6886204611275377 7.226507223031705 4.317703413749347 1.47296700337856 0.7285207951987775 -1.8839197913833232
Ni 8.054468660330379 4.5100852609839 0.6297240340979444 1.3542193183229903 1.6356247595535183 0.0346579563935016
Ni 0.5154721125155115 1.8685492410597158 2.5860550644012528 0.2798401536259374 0.7435458078527001 -0.08975001227163898
Ni 4.6697713627685875 7.18247778711563 11.973432738881412 -1.245741904845177 1.366025309818983 0.36224169595230515
Ni 5.135675149217343 1.187147002845264 8.991809600137604 0.01392278072867925 1.5455016802131771 -1.4553148375144356
Ni 2.48815561824456 3.0723119938168586 8.794026023236405 0.20798039137115795 1.573696140369522 0.1597215563647701
Ni 3.234824153896807 6.060910065363011 6.80190255038054 -0.43957456550651397 -0.7892427956691828 -0.4439688379194677
Ni 4.083617415046218 0.05809713066141212 10.760954311876864 0.2570617222788411 -0.7411595670087107 -0.10561808965214714
Ni 5.720641600131606 5.150155245954954 12.149795346228625 -0.714297452510544 -0.5614206869817493 -0.43686050900946055
Ni 5.826301199848251 3.8610215986367233 0.8366172764355932 0.3455521511117662 1.296640234356941 0.37928785280131455
Ni 5.2847013959339115 6.605823813858113 4.5664296831781535 -1.1093875624514378 -0.28221276762317205 1.5655835385647165
Ni 7.881867380082332 0.7594106525652787 4.109397142264067 -1.878538986687384 0.5123318998748982 0.06121153851231393
Ni 1.1951925238552263 3.8213371122820923 1.3582837036966466 0.8442176092431654 -0.5071840371253716 -1.0905115514825412
Ni 0.7488419309731302 1.3860941425103737 9.877351745067187 -1.7079804876081102 0.7868012761072256 -0.31538976859577295
Ni 7.211686526434406 2.597810362261346 8.04565264720539 -0.5294796152987784 -1.0311234393322113 0.07220660407123693
P 7.742635680682239 6.366363701693182 6.364163610707621 0.8511557311238954 -1.7130206211351788 2.184342397146303
P 7.864413938623649 0.6441065535784537 8.934912853846557 -0.1858290520850993 -0.4860182016810339 -0.7305460531589224
P 8.370029827631875 2.647896952438926 10.733563639376701 -0.626738791463269 0.823554424466859 0.07830474654917481
P 2.775566667412802 1.8010184148250663 10.616186483946576 0.34232130287929435 -0.18136278878362957 -0.008090233207302197
P 9.00115216223487 7.869053461036716 3.01285338425685 0.2872169057059828 0.27715797880808396 1.4906232830077424
P 4.616002611945716 4.3641244130045385 8.386965004979732 -0.030242600934625333 0.22974195141796563 -0.30469089412103006
P 4.485865849339495 3.41074858412723 12.747755221519961 -0.7967522166723504 0.28019727985504 0.13328418810884785
P 3.1573514939198697 7.54525345929138 1.2089223803613578 1.0040358390867998 -1.2801895450000855 0.492112744614546
Ni 2.2053012428748664 9.117011346938972 2.248878693571732 -0.9082491337027777 0.787157888115696 0.5284061797289417
Ni 6.866032901259263 2.707566365695878 5.502132061498224 -1.9393134376622794 2.6265356312225863 -0.8887000079262566
Ni 0.6143694242070781 2.050254663503247 7.387656063132734 -0.88584736896881 -1.5949151976492983 0.33797305321292764
Ni 8.575899429310134 3.9938095169075543 6.751553606256983 0.07480753202919374 1.3746806715011355 -1.4752727686936014
Ni 5.72176465912842 9.13670170098967 4.997324406751638 -0.9744267579711154 0.3340400367071086 0.3236180700428362
Ni 2.9637158709855935 5.382205009821234 11.610267678217422 -0.32220576307634186 0.618719006482586 -0.29302117109258563
Ni 0.6593553013507678 6.211363149329629 10.498324203851434 0.404238094988749 -0.11397288937474566 0.166743496208558
Ni 2.624137810875182 5.392183665169975 9.215583707953593 0.762224615209126 0.4596358550327632 -0.9221284627880314
Ni 4.682051368520635 2.3223479243870755 4.402220047040727 -0.1816684929495065 -0.4563147610793303 0.46490044586581225
Ni 6.740719769098374 5.235995615998315 7.939848522683416 0.8591233227104043 0.014407176564265512 1.0576289418219076
Ni 3.8371427868520063 2.687240838933868 6.789763387273175 -0.6560012878728122 0.9171083838656207 0.1707022237459899
Ni 0.2516443817402013 7.731782512180243 5.918206088474409 -0.28681221406839635 0.5077995592221836 2.007974233363787
Ni 2.5202272374650505 2.4598305974806536 12.722466142208097 0.9168746705882597 0.014191203898717496 -0.2976314161710874
Ni 5.21556882981856 4.709474259926445 6.198701119410632 0.047506273111079474 -0.40127746969852823 -0.094514780650134
Ni 3.0790227315929024 9.124605803269887 13.124327029093456 2.9688911297739256 1.0646578236442308 2.091616075855159
Ni 8.415808289854464 7.3356004375500845 0.9816539020929872 -2.4825445982191954 0.5341811345395058 -1.5890839356795017
Ni 7.53519195532812 0.8781870290406137 13.170620073266226 0.16565926200544373 -0.013380277961647924 -0.10249857018655896
Ni 4.135526674743217 3.235026672732298 2.239178041351711 -1.7758666099271223 -0.6310885837915324 0.39894676468282264
Ni 1.7023273041296363 9.073534235119691 11.448766271234607 -1.3954369302118808 -0.37278116203104833 -1.018232699412472
Ni 8.207333559519663 0.3970464618416405 1.9574973546877041 -1.745412664312639 -1.2622406738311487 -1.5397305820573548
Ni 8.866550779846232 4.1914034625355185 2.955687840238696 -0.47814934045591845 -0.5598410011994552 1.2692962951263493
Ni 6.518575017367927 2.904166127949614 12.102612139719858 0.746358851821463 -0.9634705160699277 0.9121207008430421
Ni 2.6981952668536104 0.8888238706047 8.530035356852542 1.174260094755107 -1.4873692948468191 -0.597898470192809
Ni 7.461484304610994 5.255317753984484 4.456408564177161 0.5374114685513455 -1.561513225150085 0.8471206418225733
P 7.801679126629492 2.5090794961114296 1.1497426944702298 0.7170184509861328 -0.7934568337505302 -0.46479271664335436
P 2.4632365960775484 1.997084263785235 1.3341121601406294 0.6105863500731226 -0.47274051073552126 1.7512485542681258
P 3.905805877485083 7.918468056896531 5.941083352563607 -0.6110602043857476 0.8304151561424344 -0.9217430544241546
P 0.8145942736161037 5.011319378824231 12.732233993859895 2.399757390418635 0.6434473624672015 1.494795154997245
P 5.616491686279531 0.7360353762488058 2.860459801630163 0.04251936141944935 -0.23921595234667187 0.01655173371109407
P 7.7399937304192425 6.451486050410713 9.993718147400179 -1.1453485539270791 -1.0929145044970792 -0.29078328290100247
P 5.551197772636897 1.5106800479438174 6.600063073528554 -0.09597002503942181 -1.1707381976447773 1.0755752418876832
P 5.591158421039924 4.4913890903074325 3.9715683460698314 -1.4536765305800643 -1.3091471085747002 -0.11187872584987829
Ni 2.8511430146574135 0.8518282820612932 5.485331283013919 0.8129416819480192 -1.4992387925908954 0.9099866852191746
Ni 0.8119624492948816 0.3789734968543876 4.478329387038744 0.8400449659227146 -0.2752903294717259 0.013603963936679795
Ni 6.600733226765997 2.8169541530658804 2.8944120844002366 0.19802507993065896 -0.37767448556760763 0.8540639059096259
Ni 1.7838779570212338 2.690407497088819 4.298019503479778 -0.04584688313078556 0.5175741221104441 0.847737706581282
Ni 0.8108946227077469 0.8635412350739661 0.3606206876580925 0.31920554279743735 0.49019213055306543 0.30827526903817876
Ni 6.659159910805163 6.834660892561377 2.795237690120111 0.01745084848659575 -0.2318913936608006 -3.254486440716085
Ni 5.297386439356941 1.579941489681754 0.6262480744487889 -0.9130920636173758 0.9062315890521168 0.09919213152114531
Ni 0.144030475261068 2.8571449365092394 12.757510185609501 -1.6766356547482415 -0.44801755406754457 0.4207939424649011
Ni 1.101435508424487 8.324168516794767 9.071624114284946 0.7755719830503094 -0.9308504160420613 0.559834573441552
Ni 7.516587838667784 7.487692083003856 4.715427393149721 0.25059205539409746 3.2562409615133467 -0.9213064811073682
Ni 3.3252580193451706 4.485018952391077 4.517468913617871 1.2274922146063698 0.17514097624363384 0.7607817121150123
Ni 3.7353034288048517 7.594539179528608 8.436370395437935 -0.1409509606254863 1.1318757162516246 1.192214108130366
Ni 6.453897865633379 3.721449299376942 9.946279951266726 1.2607892860966028 0.6294194236192256 -0.6872016247350164
Ni 5.695805426579114 7.206503885326158 6.877445758179345 0.6706295793089482 0.3926056529561432 0.6770807342509306
Ni 7.7078024409777806 0.8150002318272471 6.45122645808522 0.9885531700701684 -1.8738858041860889 1.2989501134370405
Ni 4.264936210621994 3.6900220582693772 10.474436186665105 -1.1153972589806274 -0.6967720420322709 0.49109510198330897
Ni 6.7574920108376775 0.8304791146398921 10.863672785778082 -0.11476376070715719 0.6082232491575847 -0.4255911067432283
Ni 5.488159182389503 6.113592578795521 9.85386876555184 -0.32127245262879506 -0.7594375393822922 0.15828148148413385
Ni 8.520482911598494 8.30723978322804 10.659125079771483 0.01918274357603793 1.1371953286923255 -0.08112550382742156
Ni 1.3873921041378385 3.6291651482043195 10.958859400079355 -0.006957148044123503 0.4244315392174884 -1.110702167497803
Ni 0.7315744386270349 6.28015511558529 7.864749935782532 0.17081098140971226 -1.252035965384005 -0.3098539263792083
Ni 9.121153777664926 4.065878606137526 9.007168812729276 -0.09798551280755383 -0.04371261039660214 1.135499171936825
Ni 1.6361128503256785 7.282347189217553 13.153832182344178 -0.5880218345090453 -1.9713519541550628 -0.4118814704666197
Ni 6.045251677218908 8.303419541558549 9.262213669825405 0.3001135591629928 -0.292839908319715 0.20506887415131778
P 1.5909511500111762 5.145745858582217 3.5885030481983633 -0.2725860431666854 -0.5137645185563668 -1.7266664940533876
P 8.79570600903082 2.6898735837952517 4.940144134090904 2.538492831450041 -0.6668654842808257 -1.2121756388539575
P 1.7059634377668615 3.7054963383812156 6.869631292749874 1.0229617294570252 1.310360155046195 -0.3628420485404654
P 1.3718257700098682 9.143476876577006 7.153966817239136 -0.1521465722309896 0.0751929403930705 -1.9861100863008438
P 6.430037464651888 5.9489723817461435 0.6045306909628587 -0.22454960858374876 1.4985677346657997 1.212638694533305
P 9.06298484487093 8.574739548706868 12.777058776475352 -0.5983185884493631 -1.3510226657625637 -1.3375043195611547
P 5.510003600417696 0.10649913234377124 12.519952829958022 -0.8662092830229082 -0.6649572115145193 -1.2915597345102403
P 2.615319036129708 7.262104511070063 10.502230976296088 1.314007264880479 0.7100561607356868 -0.14204985011661989
