# total energy = -381166.1643947137 ev
CRYSTAL
PRIMVEC
9.27022169828740 0.00000000000000 0.00000000000000

0.00000000000000 9.27022169828740 0.00000000000000

0.00000000000000 0.00000000000000 13.56790650381751

PRIMCOORD
 96 1
Ni 8.968067985400953 6.550282952634572 6.574858310063922 0.5807011324779161 2.3570606228810567 0.3414067614848249
Ni 9.180893732614464 2.8560903796607997 10.396638796795383 -3.1043047055209505 -0.3038370307611671 -0.9452406233254624
Ni 1.0966115925113347 6.042367511837101 4.828397695090254 -0.0791138727140315 1.2542363154694334 0.0077040535124770545
Ni 0.5959417569069154 4.390608699538277 7.014797070002118 0.4722085494914512 -0.1419549764099684 -0.2758235762673766
Ni 3.401837594758225 4.648450642782315 7.170191013412517 -1.2499456585138797 0.6415442319072178 -0.15269961652098218
Ni 5.079469595508696 8.269964678507462 10.857431847217573 -1.2093186290211366 -1.4467512642151406 -2.1532500466168725
Ni -0.336392238846398 8.667147322438247 0.7956760971940874 1.5193851856317833 -1.2152864165687975 -0.6774921107567364
Ni -0.003552348912458311 7.70511153671751 8.915050661117967 0.7766171364853722 -0.1582639979826371 1.1074975445175765
Ni 1.9578151780211914 3.7019702888859656 2.615906354497269 -0.594959185058827 1.3948000679588302 0.6249919839754914
Ni 6.2406482813793005 4.6250896843809715 9.532567004726252 -0.2379903074696869 -0.9559667514937149 1.8324601900514508
Ni 4.237650043339002 9.278564787263893 5.617709785164292 -0.4042751188742715 0.15549929075330637 0.20370618947583627
Ni 0.4563757898355856 7.687637169024441 2.9201123839907046 0.7586680082061192 -0.27115599558837816 -0.37086903261
Ni 3.1550735663116494 7.182780901350956 5.105290870719451 1.2956876406356848 -0.5475686115900054 0.5590655564860113
Ni 6.184489279000197 2.2150267461972573 2.2048387726722267 -0.8642346757950405 -0.8067774621188364 0.8138572517837532
Ni 7.529385216298513 3.1795376810819453 7.839889434338723 -0.0159287554151145 0.5858839622304362 0.022106087870419993
Ni 6.134671108187173 3.913062504662553 3.9268232215875347 -1.5673771401300296 -0.042893971150048706 0.3534480089200751
Ni 5.711717248242208 4.577718852067135 6.671827608939151 -0.7106490571246794 -0.9160755717257321 -0.22684251838298355
Ni 5.470126003441644 6.773750914230919 9.20563409998808 -0.5754571104701574 -0.6055670424816603 -1.8096298224204963
Ni 3.4926950365405944 5.178447751402008 9.538061465061359 0.18813867405488244 -0.60008802164496 -1.2631657567485794
Ni 4.805812654235812 3.8679072553082094 12.94541113357571 0.4087514094780702 0.015868334490824285 -0.6321836166279241
Ni 3.8442403795944666 1.0933670149555925 9.611911758318687 1.2122095774156865 -0.17874154911069862 -2.908196640107346
Ni 7.82071119991781 4.771475753474471 5.788231803183879 0.19105687614294192 -0.976107230997332 -1.6311021890928168
Ni 7.489300778152715 8.192493436697927 11.993120204788106 0.691047737953984 -0.08964305438012948 0.12824534013335975
Ni 1.656431003979093 3.687981524509923 8.913625828059915 1.406171028799933 -0.07493377319441287 0.7017304144788108
P 1.4064131277551872 8.625885566150794 10.917822705751522 -0.33706159714225176 -0.846356252852723 -1.6620793542006214
Ni 7.045627972958939 6.019368092077682 3.6186560264096177 -0.05379287745073962 -1.024320557477765 0.6164962877996544
P 4.752369826781944 5.77156579881327 3.429953249811969 -0.27734412667696107 -0.21565076343222214 -0.15694862160532325
Ni 3.3431292814424665 2.893579155762004 10.997900733871557 1.2403323037938316 -0.6550049853978138 -0.606002330246866
P 5.151860755888098 1.9056238304816813 0.20010793021716167 -0.7222545025740915 0.19369508509673738 -0.1669890365604608
P 1.079313359028435 4.0433925499659225 4.952028151252095 0.0807110419978223 -2.293357942515773 -1.7101867512308093
P 5.050240586842253 7.309606802894124 12.81646142426677 0.3001266717891154 0.7472535957215904 1.0407637906354528
Ni 7.084692686730075 2.815060378913043 13.520975089388248 -0.1710284967371571 0.0189765411025028 -2.388939216757208
Ni 2.810721915209936 2.118811116337119 13.383627486342887 1.8700157797077215 0.40606666355705545 0.12661011852278195
Ni 3.15682563819175 1.856371143185515 2.6483604732541206 2.9039730889443023 0.11130691250680831 -0.4223854553217371
Ni 5.718679184654672 1.665914440663448 6.851249966705218 -1.0860095498471296 -1.0920395580912934 1.3608381091910886
Ni 8.07383460037364 6.426479143329038 10.39952925188647 -0.9084787332150805 -1.445601981102046 -0.36206428983417643
Ni 5.774884538141714 7.911021698626497 4.291148492122397 0.1696663262823078 0.2850250402609866 0.16679646093368047
Ni 0.10558040770816858 6.545564409846364 12.311721961385292 0.25298343844440946 0.6612165135251644 0.3111978420016125
Ni 5.847525994503988 0.49007211828520647 11.975197158370186 0.6749487755095924 3.9284625678997633 3.3586971084977444
Ni 4.253057151617983 9.225604011332592 0.32712479832503955 -0.6274702703126549 -0.7782914388640015 -0.0835045455825594
Ni 1.2802917630526944 3.2578803237207374 12.12046894682883 0.7234950598494121 -0.045143172195541606 -1.638654547518778
Ni 7.047389315060627 8.371130606695504 9.25244408389585 0.10283127093562935 0.15908006612602926 0.7476621440139187
Ni 5.818992252456633 2.284970568077471 10.38463107877266 0.15572837604497694 0.4665883750911965 -0.0034067116887038103
Ni 1.0181762476566643 5.996081295449042 0.8457213884360139 2.4448193157542795 1.1011309788696004 0.7255388297523182
Ni 1.5950343264028628 1.5547737540468962 10.120300907439296 0.8250392365425017 -2.2595417652972762 -0.20703782495223055
Ni 1.3902458613060034 1.3800393473377972 1.3741166027653295 -2.199898856823663 -2.1443386030598557 0.15354216702693554
Ni 2.050674987666533 6.524808383711202 8.061547848681125 -0.5601631604255644 -0.16762178504845326 -2.5768436633140976
Ni 5.232465332594322 5.899096237197114 0.9332888285768606 -0.4035775785866146 -0.3319350745489638 -0.15471818961290773
Ni 0.6815531802927289 1.7769809655072972 7.667305719038001 0.8506739063914704 1.4630034644079448 0.7128352661427207
Ni 4.708855406648647 6.010320355807956 11.170199853369532 1.4064983302323648 -1.3938659861803349 1.2075286270002494
Ni 2.6571699648290394 9.258337163759236 7.78393530385671 -0.549403350805899 0.11660312790874112 -0.9628503659874256
Ni 6.4521113060194 1.0118261458689972 4.504531379653338 -0.6834825240122165 -0.4260348791488663 -0.3542692192697899
Ni 4.437441859000018 3.9462313575038257 1.911324089736041 0.1245583782000758 -0.43003063057182067 1.024936336684893
Ni 1.7306205873465352 9.123872599627694 12.901166219981292 -1.6795703118965333 0.06196204352509329 2.7414989095350593
Ni 5.016793627353345 8.78136572262196 7.879642925573835 -0.306816167994149 -0.5396750677745416 0.213820909312335
Ni 2.484549168641967 9.132911065675831 3.4997190834376966 1.0659428610042418 -1.48126061084592 -0.9099339776043684
P 4.838619968435159 0.3890378272437121 3.1676449138069116 -0.5293173786893012 1.2772898548547875 0.7855794878849826
Ni 6.833386249705461 7.365320834637012 1.882235061415574 1.5904923859912543 1.0108346071761882 -1.13276994593112
P 4.536494176666034 6.472264767751354 7.227596860595184 -0.5841129863729424 0.8282117207332124 -0.35899413554928494
Ni 8.269871976291585 2.8213733998143584 4.002423732680645 0.426912139547497 0.9096624691105365 -1.386140335401303
P 8.312292510277516 6.03839058677592 0.8404419972417418 -2.7468923126364886 0.5748261617543778 -0.6805388680028602
P 8.272180261466955 7.472632919737787 4.569345060906844 0.07839730626298111 0.6137850595160784 0.9541623512951245
P 7.5345765403877 0.9981803796917044 10.675594596727873 0.6711016338493604 -0.44753187268037764 1.3486783339001032
Ni 0.7624590392005576 3.4323458940037894 0.6061390006535339 -1.9197571127969069 0.9300988825880175 1.255154713518645
Ni 8.601847881573537 1.1295579600344998 5.689185974672975 0.29754888375961014 0.5127862138034975 -0.3874408209257521
Ni 2.9975261504263964 7.74505692153949 9.609998384582958 1.1012834452870646 1.0878139500457202 1.3932255243828586
Ni 7.517472981558144 4.182399522675506 1.6769524935080828 -0.2757508140479122 0.7387764114885147 0.8869876532208402
Ni 2.840785243819284 4.782859585584332 0.41348896370378524 0.24961349353091208 -0.3332864463705357 0.5913192743133945
Ni 6.731460163347216 5.750846853564459 12.627677996741307 0.5570978912366792 0.3331054407079812 0.08661043820139278
Ni 7.241822942643876 8.849446229963018 6.787548712042252 -0.3593654028457746 0.4834355285555223 0.2912052009297695
Ni 2.8589919590177924 4.8473617873924875 11.744312092481414 -1.0658716414466742 0.9496585498874999 0.34808777304942634
Ni 8.523551590042684 4.295394253609625 12.029509532608992 -0.5887324874228248 0.4114544102315301 0.5557187515009656
Ni 1.084699357770967 8.461709941830238 5.21067289568564 0.3412080152104575 0.01371477848293122 -1.6646106052629073
Ni 0.3125121480361355 8.820893947472486 7.091374662450587 -0.33785195425403103 0.6383784325847264 2.3370307008133753
Ni 3.3812484326116437 0.5045169775633707 11.62956807073367 0.508278298630815 0.10775621904107249 0.31881627777881866
Ni 0.9742632079950905 1.6901838807803997 3.6735107086113126 0.42963005269929233 -0.07442443765816215 1.573949908251541
Ni 7.346279799495599 5.7818001234462395 8.010573681236098 1.2662387392469483 0.19981276795870104 0.981726119846006
Ni 9.229098884871206 5.290348596188763 2.9146707639186453 0.3066133079547236 -0.8139477546150305 0.26395433563361637
Ni 9.06154889989268 1.301019978523093 12.614638503055858 -0.751827331135202 0.12367546137449022 -0.2943324337048415
Ni 3.304101648557682 2.3851353123340266 7.197082072194509 -2.030776061749651 -2.267225764205095 -1.6465555475334095
Ni 6.481062208038209 6.825506561355801 6.22393777994507 -0.7394937492705135 -0.19733808116596335 -0.7274892686104697
Ni 6.892660046538077 0.2952463603287931 0.9129425462358807 -2.193656989679009 -0.013072002692609745 -1.5442953186099015
Ni 2.5128604253712146 6.140409375350042 2.941305037562654 0.7465714820529014 0.37704302263119577 -1.2397874870339551
Ni 8.036345824272436 1.0854595159411695 8.668115133572016 0.014312302857614062 -0.1630997288083836 -0.6775237353256203
Ni 2.80612388530237 7.150585421776404 12.176680789470984 0.07011166921542118 0.048144935136342895 -0.06726417246429707
Ni 4.587591638058179 7.7795792267325865 2.2712673265263335 -1.9414183998204244 -0.4665004433630805 -0.4199650188057026
Ni 1.2973026196663713 5.968307711571889 10.134506595000495 -0.9557389517536251 -0.37873095185657996 0.9394877800020851
Ni 4.181175853425912 2.228375865283739 4.775319187344788 0.15231523659836993 0.1268291765121235 0.06250788872623428
P 6.92946282624178 2.6977642651621685 5.649852424475792 1.0568614675282637 2.334278334879219 0.014030252840820998
Ni 3.3619571014873593 4.513587459122494 4.8115592645981105 0.06122362269717198 0.17381994343936516 -0.6768614191512731
P 1.6716619780479054 1.3325109212569681 5.860209511680464 0.6204192770031445 -0.8406651160052167 -0.5532031841679633
Ni 4.803096479310576 3.161423668099316 8.46304948884968 0.9187032391565662 0.7851686255998092 1.8704204713453076
P 2.1327720700483983 8.23537748176325 1.372217134361982 -0.028425859440860724 -0.1412504941437761 0.4452281642478655
P 8.2869291840132 1.8392861247991352 1.3611596140520128 2.2921397538379553 -0.14378457341953949 0.9406985124807347
P 8.930727532845154 4.54408648814647 9.021301305846936 -0.490145079365214 0.9641359175680686 0.7374150123646138
Ni 8.0554239403002 0.11732299739347897 3.0057664503958224 0.2689816136448787 0.5027805087410373 0.6841039596462993
