# total energy = -340854.89653998223 ev
CRYSTAL
PRIMVEC
9.36941923465143 0.00000000000000 0.00000000000000
0.00000000000000 9.36941923465143 0.00000000000000
0.00000000000000 0.00000000000000 13.71309212532285
PRIMCOORD
 96 1
Ni 9.181477854269076 4.940147986333336 9.423156396512088 -1.2996196287002393 -2.6074523893388903 0.020483207555016335
Ni 2.534886949310871 7.820466676464513 9.780547263783056 -0.07204822411650173 -0.8044094761072922 -0.19534804731912808
Ni 1.6011868652350638 5.9299521515644 10.858794059953507 -0.3126554003837454 -0.04397254892620814 1.4590051418818293
Ni 0.062100509334843054 6.697410633780201 6.931570217251152 -0.6668485149999612 0.5063103762711667 -1.0229234200199222
Ni 3.842201986651042 8.541687075764285 12.037351730149407 -1.944846451665367 1.9596164108856897 -1.2504102568551239
Ni 8.253596179411273 9.106288266548479 8.43216606283175 0.5667796373008175 -0.9648450278199511 -0.3534621499874622
Ni 1.6202348941242817 6.8810699856181 2.58947037375746 -0.21073070042278544 -1.4171226427154304 2.0566776121067614
Ni 3.544544913467784 0.7329977590212396 0.47334586025182124 -0.6544048899199697 -0.02635277896191591 -0.7746425292575045
Ni 4.756619806361866 6.1996040312651814 3.3069261404907344 0.6916640313817444 1.7517149523815831 -1.8625243564266827
Ni -0.14115404546366092 2.8970243642627445 5.961424030088199 2.303552880770904 1.04985983939945 1.7324622747995582
Ni 6.686120483848323 1.3531596046569159 8.89672528191667 0.1967500698729773 0.8487846597885575 -0.35564681634360684
Ni 5.7411489886787 -0.029337524868627125 10.357415834904021 0.18012505972178655 1.2381067568974227 1.0496803763987923
Ni 6.081493134965388 5.586263122683785 10.93237866619416 1.0429767391263713 -0.6595738357154189 -0.7256948957142082
Ni 6.952033965355894 4.099186411822447 8.635613627662282 0.23969906263067753 1.3337970459128963 0.2586511782531481
Ni 1.2281434465315673 8.679248885971612 7.611877174469984 0.34776021450667854 -0.6762469254957257 0.02952217782883303
Ni 2.7777422905841256 6.736818410222922 12.82534704193839 0.6367784350874581 -0.8436134000002633 -0.5998481377200121
Ni 1.7306441279809186 4.267264419812451 3.342881286020677 -1.2488773651503653 -1.7092984350885854 -0.3218409235377554
Ni 8.803562337669666 0.27116785169993374 4.3097912758504595 -1.3357539125289513 0.4385306976230318 -0.052208820793071375
Ni 7.1959667898176685 5.890581852797802 1.98473715043948 -0.6361713976310786 0.8256141352093651 0.4704691982028414
Ni 6.919259737586842 3.744010475210312 2.84264144538341 -1.422750530425169 -0.0346093625437533 -0.8022142682281862
Ni 4.121710495172019 3.512136093040925 13.019086014769412 2.28652960674003 0.402978511550035 1.245327185905262
Ni 4.929251352000744 4.19804315201435 7.0859388913155765 0.2644927246355897 1.001194770093579 -0.3364609874437754
Ni 8.926170555104148 1.8595392255849377 9.111828404021274 -0.5404181165881532 2.331659152088817 -0.8987951873787295
Ni 1.3654991295202212 1.5879666149828817 7.27013230003822 -0.7508032607460617 0.7845441046419327 0.5854988109768755
P 7.587992651477169 0.1724085534659496 2.3807984208754616 -0.7760021286091925 1.0153543494234127 0.6104994467862712
P 5.147821159146673 0.0065454761347799265 7.6088602215421295 0.7188783870130071 0.15430578466583747 -0.13190144882870833
P 1.4691904899319153 2.8503646574903367 9.360652065217025 -0.07206802161084362 0.2565037928928421 0.7985555884296762
P 8.104378811929875 1.056936052585341 6.650987036367364 0.7558937878950918 -0.027005582054566393 0.5503795986762392
P 0.34790058273487096 7.748978009261005 4.450145172928908 0.014634462083723184 -0.7533496813169993 0.17609845506089672
P 5.312132660686375 3.007171254386525 1.18634553129414 1.2424449792614602 -0.6100808711916138 0.933144868503193
P 5.583995723278379 2.997352103242452 11.364313568214518 0.7415370049527875 1.7806684021911396 -1.7847091479194166
P 2.9097855129824275 5.69166908677808 4.168560401150748 -0.9132170192310143 1.313659137512441 0.6483000625738126
Ni 4.768790681682621 4.073420509488286 9.504735928011556 -0.6700258842866783 -0.18026698461628954 0.7482190449586533
Ni 3.5581493099002213 7.4712122126797205 1.3166160596118512 0.6696350766061628 0.3028445849409107 -0.1979559172556204
Ni 0.07029875098662151 7.201485377626693 9.270187513650834 -0.8793432493017048 1.3625728324940083 0.9210537416666138
Ni 6.68545525509715 2.862882201315224 6.843683192860281 2.6129167548875705 -3.148632580904048 1.006757608893337
Ni 1.234036811101817 0.5714221278384743 9.69448352833554 1.6828263569399855 -0.9647848640059772 -0.17868781305462775
Ni 8.140497922292854 5.014934689035616 4.988302115441125 1.120345089904206 0.6893726642444062 -0.02902672624965324
Ni 7.89547824522353 2.05892046255619 1.209786880766808 -1.9056906074015114 -1.5744150208134176 -0.6110720314602895
Ni 6.071664614402285 4.001135441667176 5.1889519717491215 -1.7306972124793356 2.7718716082896457 -3.131510576511781
Ni 5.763363881200262 0.12254919009459063 0.9772772519871461 -0.6305123995730884 1.1764085085566771 -0.21506583746302962
Ni 6.445026593352822 6.0831515221338055 13.168051344878887 -1.1571663724976136 -1.7910371470199735 1.1271556850681361
Ni 1.0325568242677094 6.892809867663446 0.47823950781150576 -2.0528428117417032 1.5850015380800122 0.03140011157783624
Ni 7.162040123507851 3.734716011531953 12.826759950328205 -1.3412897547455158 0.2340866015399065 1.5156041213227962
Ni 8.597116558749338 5.654978441854235 11.447058655441396 -1.1631009928144938 -1.2187095833177333 2.018079954339221
Ni -0.06439320617163184 0.04425551384915475 0.8413831983672664 1.7632185821458086 1.121265030615314 -1.1104864519425715
Ni 5.859765833606146 8.044639396190744 12.456547970055757 2.0492424959849544 1.0756181793104764 -0.4010512126203351
Ni 7.757522919416917 3.421337053215342 10.65047814499467 -0.24849557787638496 -1.0649966950408882 0.5115328010123706
Ni 3.0347079769174696 0.3617214127469148 6.301124497287485 0.8591469768594882 0.867670440949467 -1.0637785063630711
Ni 4.177655296203755 6.376910917000331 5.738654849332753 1.1736517717471464 -2.0938866170568904 -0.8364474783794433
Ni 2.8766365084521506 4.02306925161782 11.156258123104733 -0.8636836883875771 -0.07856494218909695 -0.8981467551614533
Ni 9.22653539038725 2.7201391023839725 12.583215019814297 -2.4456767786585685 1.727245763595625 2.128887558612108
Ni 4.631978424997741 2.1818566096567444 5.757030153935573 -1.5305574001985187 0.21838538875456587 -1.4203812588620441
Ni 6.0765086040411065 7.136733322706189 6.983351248465688 -0.35423168116363507 -0.7270282698136511 0.9393204011862855
Ni 5.398078341454105 1.6641868387968448 3.0682907855488635 0.037309277973419624 0.06121488094642361 0.12061430595066323
Ni 1.4065184460362055 1.3931482850795334 4.275522625746026 1.1926110864584687 0.7162131814760182 -0.23033279092442913
P 8.401614261256755 5.9712244423942105 13.879705567348411 1.3055964151089643 -0.36688562248221973 -0.1555543123609579
P 4.396271950444837 0.01476058274081348 4.424337108209109 0.4893827472778926 2.15492974831214 1.6825013695003992
P 8.650756482699546 4.6810273336229535 7.339205531015639 0.42648070843703323 -0.5533489657172083 -1.6905599781388176
P 6.411671461603872 6.3896720657200134 4.577964661228212 0.5211960351337475 0.32108167677422766 1.163189438763242
P 3.5709291974579656 0.239090708706758 9.773471478531144 0.575142664553532 -0.017555749495576214 -0.6902342409137532
P 3.6043218068830374 5.493430918928562 7.885438912732238 -0.3610859850813072 2.331241604935424 -0.0006949691844955773
P 7.553513189444546 0.5160366811228652 13.087719819994295 0.08723804448306266 0.7465833091274432 -0.6032543351880837
P 2.155631605790084 3.045089293203379 5.604362029425204 0.9013860880343574 -1.6217567433221747 0.04061803063167843
Ni 2.224337555541503 4.975592498526111 0.5652860953153318 0.15650613475126596 -0.8755475297046986 0.9716347970482749
Ni 7.624252303125606 2.47591582593225 4.703453038072703 -1.2057049435279492 -1.2536089662980798 -2.6981061443717214
Ni 5.712834604368215 8.441762221802893 3.1127346247205336 0.7636006696210462 -0.7919303698036748 -0.0236070978959787
Ni 0.1458856020741159 7.636320114837024 12.099952566460486 1.4022369838528495 0.6951928704706092 1.0959952003049318
Ni 8.745106532337728 7.789238402835511 2.359323712457317 0.9981387568760747 -1.7664687136519899 2.2632030161989474
Ni 5.100055860928654 7.397465515489837 9.623299367250526 -0.5134215333946512 -1.2690546114291885 -1.6693602041327509
Ni 3.233077316633417 2.947122647819384 1.7735139047554471 -0.8547136236784828 -1.4406839749751381 -1.1659582597576306
Ni 2.8365260255821347 8.62444715406161 3.36770181397465 -0.6938535828338954 0.8331544094504683 -0.894409142495892
Ni 8.598812423593877 0.49702331908406056 11.036557236395446 -0.8153271514610604 -0.5618279497224969 0.6351069609223062
Ni 8.893415066173157 4.068810755325229 1.2394617047205367 -0.14919777401531079 2.9245503988750214 -0.6586528665630463
Ni 5.5276199289712356 1.2573291868118985 12.475855531852122 1.575545791983751 -1.31372161531926 2.2597117152162376
Ni 7.6213665220641795 8.334894628339825 6.033622899254227 2.06946010858341 -0.9722572611236223 -0.5109530172495006
Ni 4.286958938614781 4.067976877031505 3.3552095675811455 0.945265563026127 -1.3243832087981642 1.124925510186037
Ni 7.407265927795849 8.053549713688849 0.570608862266618 0.2288685476740768 -1.531756819823259 -0.957330464610461
Ni 1.3534313178088033 1.6176114567957125 11.83766223929205 3.243924606039839 -2.169797666562908 -1.3454305163867666
Ni 4.7357072630855575 2.1052616090815572 8.063846705203483 -1.062898674861279 -1.1268988318623236 1.090956866550076
Ni 2.26028801636193 7.683982349445706 5.483906904483953 -1.4312176873559157 -0.8195884978405756 -0.1804690733247666
Ni 1.5784566546668188 4.961800713713062 6.260904392214812 0.03236401815300233 0.5148798631077326 -0.646469437122977
Ni 1.6634841323695497 5.6576018791828036 8.684665347113205 2.3250367616762926 0.13238455911271393 -2.495679592939257
Ni 6.380265169013287 0.6896220336190586 5.342703201099429 -1.6432925605114217 -0.5735318684229864 -0.3837883117748293
Ni 0.8915545633923444 2.337866805935331 1.428506598617227 -0.30790117352821167 1.1016295157725737 -0.5780950623136366
Ni 3.7521150226717843 1.6767043826217318 11.242801572806616 -1.0367266444516017 0.8892196278751525 -0.4614258570536505
Ni 3.7276327307448165 7.815341604254773 7.3250811318270035 -0.7162085534903279 -0.5484528139671716 2.846866573739297
Ni 2.866901682079353 3.4304253896750283 7.8253209724642705 -0.8470224256818123 -0.24170863686153857 -0.1837066064254578
P 8.984869965330882 3.5226766894503547 3.3746276885220725 0.8562683697601123 -0.12850502155264967 -0.034927408004804365
P 2.036508812234985 0.8490220857029177 2.026904220786713 1.5344557068116604 -2.1212153867788306 1.3995021014201898
P 4.346745201449065 5.486872325607139 0.7293155773422124 0.7492803963436321 1.0840310859645201 0.0635484141756067
P 7.086672516825673 6.3761332552207906 8.851705223474617 -0.14306157921058588 0.09897667307622955 0.06077676496774048
P 2.118744203066596 3.0742656640646797 13.321528050251597 -1.856742716747899 -0.8800060796966844 -0.4131693360401078
P 4.0881211279473035 6.267700968779612 11.124115394178343 -1.6838547982045002 -0.09647061882492418 0.588814762723986
P 1.6728160737240312 8.950437350393413 12.742506386637402 1.1506355133576311 0.3785106083156578 0.7717487526494773
P 7.906712178641223 7.632103876273252 10.890882446249519 -2.5766498021357367 1.277878894589038 -1.5180705805854178
