# total energy = -340869.3633802399 ev
CRYSTAL
PRIMVEC
9.26146773849713 0.00000000000000 0.00000000000000

0.00000000000000 9.26146773849713 0.00000000000000

0.00000000000000 0.00000000000000 13.55509419879480

PRIMCOORD
 96 1
Ni 5.939666494436806 3.7162473635162163 9.243368251662135 -1.917558562483691 0.6715541480057466 0.4084202513908966
Ni 3.1885011359792776 7.800860352816513 1.7760022455478344 1.1028142801092942 -0.5202413845299622 0.6605331143048947
Ni 6.079033063974666 6.339530372679569 9.108806531690746 0.5494887114308536 0.47626343628711526 -0.0228049137096575
Ni 1.8645002024337338 4.124752191345557 0.040139202045260745 0.2719646075326026 -0.606222159567156 0.6535024327103583
Ni 4.545871138507072 3.9405971628573324 2.0462639199002495 -0.8589803693746367 1.1375992489989635 -0.0835690802719077
Ni 7.090792867443163 3.4530364447053463 6.2273462115410725 0.40113811590718657 -0.6505256094702216 0.5315434398063427
Ni 0.29321714878466787 -0.27118041197190984 9.631897945441818 -1.4783184974984604 0.9434272242658075 -0.7629049291056021
Ni 1.23960117622241 6.287379046718133 7.899922866179806 -0.5854772137103208 -0.4815444821803964 -0.0007906142220954126
Ni 4.405245009329582 2.2359498970413187 10.643691090194892 -2.1264344690859245 0.0951542140063458 -2.082657838220607
Ni 4.212402723915088 2.9067117124838684 12.746139705343774 -0.9307779109329131 0.3576142244826228 2.3327130472746282
Ni 2.0339572813036315 9.165945158137038 0.1638474077395758 -0.19866091374244496 0.9945291851479453 -0.22192708335923714
Ni 8.000259757531433 4.84043212628961 8.212300139835548 -0.3608712979673398 0.846216384840749 -0.2747023181787398
Ni 0.23457723838555095 4.412070711200223 6.375788093511824 1.1653159981879415 -1.2379979992337 0.7525855494574651
Ni 8.766590660630891 0.8464111117760975 1.2381999161233217 -0.24831688620667558 -1.4877320775028766 -0.10077001753122646
Ni 0.7500964759501425 0.7258962602269616 7.618667829384446 2.3374976131474647 0.9956332168454014 2.118791093608054
Ni 6.074782050190915 4.42868578468181 -0.0074304757270218505 -2.51340554946411 3.0784581767714916 -0.033924163551270606
Ni 0.02643963867069921 2.874833739839709 2.332642400759163 1.1808182075885987 -0.1312404182059417 -1.0901243433464516
Ni 0.7575602929617428 7.330016584293436 1.554674463195036 -1.4346405969945355 2.2744305094836506 0.4293562302126154
Ni 4.957774925069825 3.119373539286655 7.085613854571979 -0.8326643571879274 -0.4544764223190108 -0.4717205541114392
Ni 8.497054159218058 6.581773328077778 6.553928724720816 -0.3601503606409152 0.8766487331886774 -0.02633735234294819
Ni 6.519656662614566 0.43079625501040586 13.04043488899648 1.2345997721854285 -0.9752286850471206 -1.7476711213295126
Ni 7.814558063897486 3.1502975807331537 0.044172571332457576 3.276681488755886 -2.5855406768674634 0.9299055356302889
Ni 9.108672240405637 0.8000380156614633 12.311929673251255 -0.023408865842243554 -1.8625122722418246 0.6865153973012693
Ni 6.153041454270855 6.327796092801548 5.53863844967418 -0.10339794207237675 1.1966574886137002 1.0382204553883088
P 2.6852700140754266 4.53485925312825 6.940872855189435 -0.040076042085279366 0.9044981513007778 -0.2626734120386638
P 4.970490920549322 4.518281225518416 11.444105121454657 -0.6072914813719348 -0.49515615942656016 -1.099338662855868
P 2.2455077319538037 3.563349789320275 2.4947477263795155 0.9101525213730777 -0.44384105409235175 -0.9185176055083213
P 4.0949395260516726 5.825472594755666 1.0476192811793978 -0.36624310380221436 0.4938220139961689 -0.9253300004444643
P 4.440151481989616 0.32019302644900366 13.55604303665328 -1.943480681666092 0.5014911005056524 0.09989507112544087
P 1.8561834042250018 6.712313718670291 3.4029254201307517 2.408865009146858 0.08134687580960828 -0.8264309746837057
P 8.305471433443193 7.189233010160994 8.761945108312963 0.03917332776535189 -0.22340778166982167 -0.10453179856650384
P 7.089440693124148 1.7201787475488013 2.357189921530036 0.4895226152898667 1.2772417752256713 0.8900616641604735
Ni 5.868371714246586 0.709668316105202 10.027245931917788 0.8245949499162315 -0.7909428090794249 -0.0303834973878638
Ni 4.321326848339249 8.600430664347083 8.712008199335612 -0.00710498647589744 -0.23250228777192214 0.7055950396405397
Ni 1.256401479062766 4.42317521125843 4.185461113682124 0.5929866347134884 -0.7682813629261672 1.8373013201938357
Ni 0.2804196523873118 2.9594835567971804 11.71127624395601 -0.013958519062621123 2.0538499128499788 -0.3385027004641525
Ni 3.141888167845037 0.4254662802118254 5.8541738838969355 -1.6834148824536042 1.6813749692054396 1.3299640453200514
Ni 0.02512173178305717 6.670266654229709 4.2203518418466635 -2.0048958515487794 -0.11955166901410379 0.7955952202497717
Ni 0.6957427729129422 7.914239243319069 11.518482118174795 1.349168129052328 -0.6796523516328488 2.312087914825108
Ni 8.934936363348175 5.352702440901391 0.2676740202104111 -0.7467152067196171 0.17329646683572736 -1.7617024026115982
Ni 0.8492154842678614 8.771119518452796 6.013649878769561 0.017363173868795902 -3.7222215278172155 -3.404450146363143
Ni 7.579205640645486 8.225109676141225 10.92297991734692 -1.5859528462496881 0.07030141662872409 -0.39017596046872804
Ni 2.3480136590966154 1.7627537156618756 11.996475739946357 0.015895331074017787 -0.8849724225630242 -0.07723079675870571
Ni 1.1416426298373792 2.333500938837058 9.338402952618996 -0.264519464108467 1.720609232115714 0.8062555281770953
Ni 5.766615966006789 2.178852947200748 0.6880427884689113 0.26249086371421243 0.6251128258240719 1.1482672702357708
Ni 2.20184917209193 2.548570747303842 6.4958454285448 -1.3828878899022765 0.576152079654653 -0.6166243287370864
Ni 2.0559162217857065 6.392543015159282 5.694807174345983 0.687712502933164 -0.49850116463939315 -1.1862265230883635
Ni 1.840624138088399 0.44073288396157345 2.491534923151666 -1.1226691100516923 0.11578500288281994 1.0136641062051832
Ni 8.741279068755096 6.20531317931549 10.727487925955234 -1.3670097852194392 -0.6762932053526288 0.8795083141246595
Ni 7.8129558299441335 7.3953469791312925 13.138885219329042 0.6113288846661019 0.7499925919193083 1.620781781003415
Ni 8.775453885447993 9.00549022610332 3.555975808547678 -1.249014662059178 -0.5129083412036587 -0.15829228011741125
Ni 5.3911004869742225 2.597823233800542 3.8020817222230163 1.0661220668945832 0.21364067498072886 0.2004390886887903
Ni 2.81431004686191 2.099130231186534 4.26126067187761 -0.544856611975481 1.305107391287688 -1.3975976853086254
Ni 6.420753446499813 6.147614234058921 11.730728105067145 -1.0994052544277453 0.5827477305942996 -0.9679069545747265
Ni 4.093124278335735 4.4756321656618345 5.044311303046359 -0.5918453220201936 -0.7604765221697677 0.7649245306387922
Ni 6.012433848029241 6.32478611572155 2.1401594603006804 -0.4736236846714231 0.19455306222165847 -1.1391326549243543
P 8.152620166586944 4.7113735705672495 4.692678371386686 0.39227680886181476 1.3269509695253403 -0.549815241532337
P 1.9902709370379428 6.067854472172952 11.306358382659232 -0.6736259429331108 0.14933224271064605 -0.379332847106637
P 5.884727466625896 5.14414344439534 3.9345827655781 -0.6291132052327165 -2.1124911195319553 -2.7225041136001114
P 1.0303660925568514 2.013804327069555 0.15371906640208222 -0.46110601182038646 0.5141830941510241 0.7423803267896892
P 4.389769096404425 0.6578207662921474 3.9511607931879333 0.12988776083278922 -1.1568547547944656 -1.0929484430588081
P 5.165028054596554 7.989183041877041 11.042616781735491 0.7953414523677529 -0.4296177114041182 -0.7053394719863079
P 7.895179142301731 1.0412020100448427 10.644517213135002 0.11632313477447707 1.737230642722479 -0.864561205896524
P 7.463835534536162 8.110202643428824 5.376371048364905 0.7699546368635319 1.3858305174703682 -0.4892014845050221
Ni 2.2090268097442323 6.722260535236191 13.410746349194428 0.5161211917140014 -0.8542958194147738 -0.9021635896303302
Ni 2.261372626532376 7.7712514398172745 9.415789000272337 -0.43811057936647774 0.2866939433229772 0.6344852681779073
Ni 3.8539746532289696 6.168572936003642 10.04685986871785 0.4644872695877936 -0.450871735686888 1.128750797469398
Ni 7.623762562897389 0.8398280603654443 8.06621622760193 -1.1287361421813786 -0.099761373761054 2.858104865657278
Ni 2.7813299595330747 3.9606575024120243 11.248627022264877 -1.1523787213009833 1.8706032767800753 -0.7321745899012809
Ni 8.31231565824971 2.6407501376952776 4.411030648350735 0.03045651671764432 -0.4649356699791219 -1.4872834200012321
Ni 5.114969820389209 7.5023261952883775 13.40570347990194 -0.1872372452865356 -0.2582133193847811 -0.045369686384050895
Ni 7.120549963929416 4.060875846974038 2.1219819771778763 0.12828930599741775 -0.12296532268134305 1.585735073811927
Ni 4.40843095430041 8.03891712470654 5.623927307919406 1.690619370621843 -1.4302890048940593 0.06244206848530536
Ni 5.706675745509113 9.338338122343426 1.7832678671455515 -0.23021272040679705 -0.6152701287020371 0.3194968487856111
Ni 6.352792794767436 8.1307167949125 7.318178575974504 0.35193620026123906 0.001699756299926105 -0.056698224022992676
Ni 8.011651363095732 3.2086911360851076 9.792376031145382 1.141083350892822 -1.7388128996079346 1.2104519712946313
Ni 4.048345080853309 6.584635121670761 3.9486666798721077 -0.5494884543205375 -0.3445414504590647 -1.4376377319496467
Ni 8.227832547715131 1.018428060384184 5.989671012130109 -0.25586590219852706 -0.8629979751744622 -1.2974933263858557
Ni 3.3818435406624485 1.7204473301190166 8.27645618053881 0.5478588891369145 -1.2415453502653264 0.4386091162694511
Ni 5.782564213796808 0.8958969872648462 5.6174340927477555 0.4216881721443963 -0.0848425476676926 0.5354324904481037
Ni 6.049359320699859 8.145201730768242 3.6769546596405305 0.3480029266451039 -0.0004761683054701476 1.3743595407162912
Ni 3.55456991771462 1.7748399313215584 1.5434912406593526 -0.5038508589870806 0.045988293804656286 0.13372976028669872
Ni 6.299391170634308 2.6780645920193096 11.82837917071662 1.8888205711190502 -0.40133866195376683 -1.3367191046556977
Ni 3.121429585168992 8.59068760007583 11.58285580337461 0.749389925338303 0.032210009073641306 0.25413066467497525
Ni 0.6873629967222288 5.201620114421386 2.189432322026845 0.35520947169587214 -0.9409198844629213 -0.18156024950641633
Ni 4.027404901844465 6.567631066535759 7.510566123313221 1.964067504678508 -3.3870872296046635 0.4383265520320258
Ni 0.6340947377274152 4.832828461112138 9.550580404648603 2.37694502050981 -1.9169425261662472 0.7102441083767768
Ni 3.3768053021039295 3.9449685757242823 8.924172685310102 -0.1633514398078735 0.8067967453925461 -0.21142926915170682
P 5.429831945892838 0.9179013089398198 7.791400689464175 -0.05115723960010545 0.8275488903382329 -0.2158201991305509
P 8.98726365720044 2.465337934940954 7.713851639975116 -0.7455139873226645 3.3383982490393924 -0.7517098317207312
P 7.708449425726616 4.4687138491118095 11.938609162120104 1.839331463249987 -0.286733538311661 -0.5373291932501842
P 0.7581382085611024 1.1572111574419208 4.549387717883303 1.6342605322161403 0.8085805767658463 0.02475303857496382
P 2.428014219148983 0.8716189752109823 9.998088978553948 0.8399904585356953 -2.150473769423316 0.6064031652297105
P 2.59496144020756 7.882787298200078 7.205372970337338 -1.7398984193626295 3.2120259575590295 -0.6837740871107063
P 6.0208247379814805 5.094205609271194 7.238149305371527 -0.5831927885515181 -0.6494655436368234 1.6933943622638192
P 7.720498595514544 7.787542361921015 1.8737209199132592 0.27283184062890425 0.19453146495510368 -0.49183969345881745
