# total energy = -340867.2271524543 ev
CRYSTAL
PRIMVEC
9.24079857609370 0.00000000000000 0.00000000000000
0.00000000000000 9.24079857609370 0.00000000000000
0.00000000000000 0.00000000000000 13.52484279034641
PRIMCOORD
 96 1
Ni 5.891701961264431 3.1839447686304254 10.97344887765629 0.572975224588568 0.8556531047736168 1.4849786831274554
Ni 4.6456912032313005 5.44544533088623 3.7962881145953395 0.27843324597608177 -0.8181011146617716 1.2074257828737978
Ni 6.980730038173051 8.370758637348489 12.431615427004772 0.39007568744543786 0.8394929500739865 -1.7127910216228759
Ni 2.600785711782973 2.886622084077733 6.800223056875556 0.5508485678928577 0.9381950293325906 -0.45098897799104265
Ni 4.630573257250626 7.700846966279414 4.9986869251616035 -0.5556362190894882 -1.176977750796586 -0.33689370410581976
Ni 8.088942012304091 6.363435472491484 9.017201453034238 -1.4165078919495668 0.24019194310669603 0.2304790866943063
Ni 8.559446497360343 6.826963154848831 2.233032435004787 -0.047994268491091535 -1.3875367015281974 1.4276042589730447
Ni 8.256690223420954 9.331080875859287 5.518432851994885 -0.40948571654093346 -1.2585994775341356 0.780469934572559
Ni 2.9283627698935684 0.4163765091505053 6.548322592172133 0.6848328673925239 -0.29034362426042254 1.8927317332479985
Ni 4.134333148993776 3.220547570604418 4.491938181104494 1.10405380894335 -2.167637425686796 1.2723124562448538
Ni 3.001808634596748 7.695588952059974 8.802589457536941 0.013273834290770689 0.3973904759392963 -1.374285750055562
Ni 7.642814753101764 0.5315547429510714 9.815830051459066 -1.1008473861909105 -0.982275821701889 -0.48090376327260403
Ni 4.618264513946067 0.5211477559318565 2.5854496829629685 -0.3092039515000352 -0.3563883224953217 -0.5279238407758844
Ni 3.9648384270026185 2.8965744238217344 9.711404410533262 0.9975687433052175 -2.646855830837177 1.4125926160555609
Ni 2.4374915654354785 3.5720860186464862 0.4649988174429964 -0.059041527444188634 -0.8489324982203316 -0.0851708775413888
Ni 1.8840786382407109 6.476783104153436 10.450456658388404 1.7784125162774278 -2.101460058528774 1.4781446909247575
Ni 1.9868917598672302 3.567410174718478 11.041153434390157 0.8775015681072759 -0.8890828451869719 0.9181134280913672
Ni 4.736722307055033 1.8992427882127687 0.3738568240399441 -1.1402850233612427 -0.22095366370237432 -0.15261554144760814
Ni 6.475535596386083 8.613486685682462 3.8527946719775072 0.6546717704281113 2.840536003535579 -1.2296149173763273
Ni 6.142016704983572 2.437888919761377 8.670181755349475 -1.5279634142190976 0.5532787746009051 0.49730071657338865
Ni 0.5213556738930821 1.8141535176809522 6.519298168864859 0.6226108853378245 0.02347211498001119 -1.4315871548801926
Ni 2.699782383721217 0.5106271070938381 10.443328306597762 -0.007419432392522705 0.07351195314622179 -1.1294293115936611
Ni 8.931619647954273 7.201215485055017 6.949293766515559 1.0415037541252707 -0.6875091286731063 -0.3058131806509314
Ni 7.030935295210341 8.079396267684265 1.1877937288899463 -1.6910659712409586 0.23847547463622157 0.8604914067025243
P 9.036973989106885 6.873241072618524 11.308052638776484 -0.10908445093419278 -0.7991834518216623 0.9959337788049556
P 6.059995379479618 4.059528886943922 5.288321265548085 0.23821656454788007 -0.22437117402435552 0.4094656619362755
P 3.9909806453273915 6.46538919987827 7.264774619681959 1.0930510300749434 0.023153812408643993 -0.49309953400784756
P 1.815992436538015 6.608843352325698 3.214273068574542 0.4330473059109574 0.477220657994062 1.61083084043829
P 1.4471736957185253 8.518491279398027 13.567445374945374 -0.2325735073294898 0.7158753385206251 -0.10232039273748184
P 5.738184579493681 3.5504440690824643 1.4830936026998702 -0.26299171461003096 0.4093833866351143 0.6814526380663812
P 2.1025218687035268 2.186456039450756 8.751871336195295 -0.610233337609078 -0.9080269903896426 0.26820436915922197
P 0.1926650995901449 3.659346876773326 0.5313791677838142 -0.13315023363414488 -1.2233625087087125 1.2009882547785702
Ni 2.381547772668361 4.122652779972032 3.4781431392857676 -1.3751812652866382 1.5511910172884704 -0.3907099785953271
Ni 8.31767025124887 3.9621585955023764 6.041086858045843 -1.489979992996789 0.21557877254370614 0.6512316343983108
Ni 7.731110580635594 3.1373064597279408 2.100001903013472 1.3555701759239298 0.11450356506723505 -0.25984571278188157
Ni 0.20783202180168597 9.146579097466775 11.5942115149311 -0.8345608028796918 -1.7739249128197192 1.8577734720052586
Ni 7.0453047365306025 2.822888298363361 13.282341797953956 -0.20650817770100563 0.2577597767871303 -0.540783727457688
Ni 9.077504130348473 4.652150521226711 3.283209423718694 0.664862594918184 -0.025267259207220998 1.0175415868827187
Ni 4.600614589237577 4.15658499124406 7.82307962548441 0.8022317517296829 0.2831167674946802 -2.303214266484562
Ni 5.002774130239387 7.165120926986243 2.5171758930552555 0.4848738036639456 1.5604493026619448 -0.9638862634511077
Ni 3.568001585808187 4.968324434263863 5.717992511179273 -0.35426099173967374 1.5703220816909667 1.7565540256414396
Ni 5.381499006811493 0.9643419857611611 10.789023797889474 0.07907453483566382 -1.2527936694856359 0.005135778564668575
Ni 0.8196467941051726 2.232207231718678 2.721833700648897 -0.8967156791418815 0.6041830176499401 -0.29390614480070026
Ni 2.9664995443814925 8.499251937385946 3.6824895319774837 -1.4040917776734012 -0.12574571363995765 0.3229428983526826
Ni 7.3591407276037515 5.311989722174187 11.51173739031159 -0.41891189495083986 0.3939863353537537 0.7123603833888312
Ni 0.6935644183381051 5.0605568418635665 12.563347626838212 -0.07924936985063126 1.1556969870409386 0.14108491510018928
Ni 5.400054529751099 6.873388925390951 13.073464641867174 -0.5494704565984085 -0.7572212484572636 0.3499939889332037
Ni 9.31186001544376 6.907949510945794 4.537151558912713 -0.2950803676144596 0.27958432886138945 0.4189365775411881
Ni 8.949195646276548 0.6371641301361191 0.2562824512462306 -0.9105793244978512 0.49063950250312927 1.3392398141950226
Ni 8.86512286355517 7.217839681154793 13.557301750677045 1.5973703440580103 0.08835518880664138 -2.1534151114398266
Ni 4.906392604213448 4.523703425180638 13.165352367691156 0.5655635055055291 -1.0749324660973616 -0.9297893217673987
Ni 0.5420116302809805 7.998881192299413 9.727783725478705 -0.6914740268581253 1.452502050655989 -2.815271058321203
Ni 2.30447027424244 1.5753990126059585 4.495820240460535 -0.7509809239745067 0.14300270094819242 -0.44273933638774077
Ni 5.838317869619958 8.222924346517907 6.734830547870516 1.4396707032192755 -0.38489234347228546 1.4744970668698412
Ni 1.2487645159195864 0.11891613670348972 7.989895440055153 -0.8612905055650522 0.12261848086488561 0.600206035280063
Ni 8.9402135903516 3.0103656138009685 11.879206974582681 -0.24675416970524602 -0.7521068100488337 -0.5199781035662464
P 0.7879628690538651 3.2940026761058743 4.894207687605795 0.2140898467030055 -0.03419438649352176 -0.6616728843362928
P 7.708747848805989 8.5856349196765 7.949036326394914 -0.440056647349255 0.45980246251761453 0.14868381049336973
P 7.538014859845755 1.1631300382894447 11.858744150878765 0.06641262309727917 0.7843124482471009 0.8704014667273848
P 7.2779510739447 5.803249040159898 0.4430805680105012 -1.1381219542716527 0.5133181750475676 0.6965668680000003
P 7.674741711147749 3.7662998760278055 9.881466517538609 -0.032786964623033855 -0.6110617470476444 -0.9369058782075219
P 1.130537742767538 -0.1973280064005657 5.4475633218512485 -1.123394675363807 0.7501252608424307 -0.20675731759733423
P 4.244603594829589 0.76144085391992 5.072329618868077 2.9550691362891692 0.10667198483795821 -2.232555980737052
P 8.288284512728977 0.742688501977021 2.920026645768161 -0.5478054101911598 -0.25672567909566113 -0.9756683436877005
Ni 3.353384045831923 8.74952971791198 12.528210415470902 -0.5804959584456454 1.5081286388813575 1.2293089561001345
Ni 1.2347185025390084 5.085728776369286 6.0756030877689575 -0.437487343960182 0.16452720528352954 0.6168068770615377
Ni 0.6873601463751314 8.63712464767425 2.618652795250965 0.15660615066423994 0.21252327354683398 0.1613405800254318
Ni 2.6876122523908084 4.417766913736594 8.95822020987357 -2.799130444005599 2.753751501650167 -1.2150390764446817
Ni 1.3778769494415821 5.550254464940515 1.5530168750999733 -0.42065253179103035 -0.6522076251583349 -1.9759994802294032
Ni 8.069323797562665 2.1122154660957806 4.476168758845313 0.9427919046746538 1.5955762282720651 0.12817592034800507
Ni 0.4377846665181268 1.3725912128273121 10.01438800811026 1.3102498547205759 2.574310355369283 -1.1739564474717588
Ni 6.232022080198591 1.5790860911183604 5.950971517331332 -0.8476412902127336 0.2889506005676378 0.3035228419548579
Ni 0.29243707450380363 3.588479194789345 8.448103194844606 -0.011404385182199713 -0.9319307935904337 -1.7040824381052846
Ni 5.054319303026796 5.247184003859718 9.840594466760784 0.5756813106658215 0.26177866813853623 -0.5177906089966243
Ni 2.175404044711828 7.345843218883585 5.889690239479595 1.2222947295658304 -1.5826554064453386 0.6745772511027865
Ni 7.952095030624501 1.7699362979269622 7.760621994012049 0.9516498692859159 -1.1339117728450472 -0.3439878919484398
Ni 3.9887258905478773 7.4418920761715635 10.941435056106503 0.5133950510320899 -1.0680673635464122 -0.7770416256173005
Ni 6.552788669979261 5.500548211010169 7.254252122684285 -0.4048962973980381 0.3193096724754695 -0.7698857312988096
Ni 3.904320439088537 5.151375407326934 1.6183687245925948 -0.1766718110658635 -0.0789413516919092 0.35762373756431953
Ni 2.3081573527548422 0.7570505506586619 1.694256932280305 0.4795544483335612 1.8810964630019151 -1.0123394738564886
Ni 2.962858669860475 7.8146751194517545 1.394870777472426 -0.04167783935476048 -1.8568892696280923 -0.227997200812717
Ni 6.734545931283594 1.1336796141816146 1.4168084325813026 -0.1622713193698173 -0.9565529630144881 0.4887762240421453
Ni 1.6227858261688555 1.4675126927255333 12.4515376640095 1.2673494558126237 1.0156217441521862 0.7485715432020655
Ni 0.20437873548568472 4.912288233513979 10.228567534248208 0.04406048065432412 0.07783809132540143 1.0314291434980882
Ni 6.749710081255651 5.303266408600986 2.7562408889523464 0.1436804437415074 0.03335312153914901 -0.2823071271091912
Ni 5.647911221128639 8.290252802761914 9.336252950654753 -0.11018488308722314 1.1385032488704714 -2.592572386903264
Ni 2.680681653683287 6.227410921858518 12.896667841077774 0.7884796922509131 0.3763789066846357 0.6398089943836659
Ni 5.921503535706776 2.1553237900565674 3.5608067002699513 0.6468329911099828 0.4506747891847335 -0.40168113289485013
P 4.782113108190162 8.741120591480186 0.5714990175819175 1.878766786427474 0.3753646064875084 1.1713028118989959
P 3.8172166745324 1.8968771438539347 11.937972907143502 -1.2327300659665414 0.17398320849010682 -0.7711831099539945
P 3.733402634162768 5.023954039889573 11.442544140975345 -1.5118942765713768 0.16035327641149802 -0.2787299512808942
P 4.966892110530975 0.761410359285607 7.680176224614273 -0.11097344042678954 0.4241826564314759 0.5542177414754068
P 1.0644845166857153 5.942822057331114 8.33818667158279 -0.3201635358353325 0.09398384784732847 -0.6049363508761969
P 6.0458846805111035 6.93710422950877 10.74083488303616 1.1835168374666845 -0.6459667864549457 2.167343805705777
P 3.5458698739354997 2.6163472160809293 2.3905021061984795 -0.683277607090262 -0.4775191630710872 -0.682223711904451
P 6.991911404087853 6.819820017780944 4.528387585827094 0.4515160541391062 -1.9826339548267853 0.5068150838217271
