# total energy = -381173.20485306915 ev
CRYSTAL
PRIMVEC
9.21282102823888 0.00000000000000 0.00000000000000
0.00000000000000 9.21282102823888 0.00000000000000
0.00000000000000 0.00000000000000 13.48389482104598
PRIMCOORD
 96 1
Ni 5.742176414637597 2.761828754215953 1.0310713110089926 1.299251703837859 -1.1558221997648934 -1.1819230106170031
Ni 0.7043874348598324 8.78435131817853 2.8459381267061707 0.473665593652952 1.6935077479132317 -0.6064936680609878
Ni 3.5825529314297464 6.694174081228046 11.754046193438672 0.4607141756986065 -0.1354832526426957 -0.5597119318207586
Ni 3.7135223977065754 4.491195061420677 6.06996398676734 -2.2451477013591337 0.11525304163874989 -0.41699822286789473
Ni 6.18203335033828 2.0413492845540855 8.17447637351571 1.4910092055922515 -0.5768876722690969 -1.5951959621145106
Ni 2.0903614933746204 3.711993069386235 8.097726202605537 1.6197011463447268 0.7578236579279529 -0.6650451432426353
Ni 5.464483557820196 0.26700229908895184 5.957238670326471 0.3593553755434456 -0.25048509750258796 0.5000978197025516
Ni 2.3509645668532824 3.3913316144600043 12.256779712594106 -0.3958100188260538 -0.4847203088052169 1.9355475428619437
Ni 2.832288410806076 0.32435303238382285 1.5210911368989488 0.6650739395980417 -0.19150939029932826 0.5678988385069252
Ni 1.0005952984566748 3.547958787797959 10.346893701533537 -1.6788984826404891 0.28336513606006036 -0.024939700664473177
Ni 9.200991944437906 2.5999042086840496 13.535943085882835 -1.0466752710238811 1.178223450278229 -0.5467180906642519
Ni 7.857596781694898 8.434522071311356 11.94523434425207 -0.10683884943312567 0.5949625274929365 -0.2459836100878086
Ni 7.578254829881467 8.396896909502509 2.474186971777256 -0.7999321570622288 0.0482367235192008 -0.8388974825818326
Ni 7.910892952376626 3.5908444705159273 11.641779675493906 1.3529260534328635 0.618215070262974 -1.2638172742896492
Ni 1.2073033678751615 5.492140447083213 6.031980446213546 0.9497835055011384 0.5549283943891863 -0.3864290918317861
Ni 4.656279604626536 7.054800754549668 5.421604324077072 -2.4746680236845964 -0.6119400358875396 -1.3323669983345892
Ni 8.215395118906011 8.756473321206549 4.687393144406369 0.094630737402708 -0.2043451086114158 0.853088429370234
Ni 1.6771941007102327 1.1540993254055014 12.872305801785219 0.6121058720414425 -0.42053091861150155 0.8984830554549494
Ni 5.177752923398858 8.539308699718267 11.259739641841161 0.5075061963514808 -0.5311289779767433 0.3740443450141881
Ni 7.631210126178542 1.8000839227886387 2.1080455036812027 1.1001159073415248 -0.7515504233247314 -1.6074925200936767
Ni 1.838031533339726 4.210664655671561 3.249066308101435 0.4879508999273725 0.25808604977829747 1.9760665860219129
Ni 3.9447365715353295 4.111000355855668 1.2814269634592557 -0.33388757028964433 2.4909850156770648 -0.09611349259582157
Ni 5.648076658830653 7.875193270200015 8.296842907349564 -0.5644934123698021 0.39590232142954396 -0.5849203127655862
Ni 8.388430326813397 3.80394623785198 3.824437394780295 0.32878264496291115 -0.061232364447920344 -0.8430876094037804
P 2.481657648493905 6.245445198705149 4.368485810637925 1.3604061638599927 -0.6954525518898991 0.032265030681292814
Ni 3.759135075501776 8.981220094548082 4.0733226809659415 -0.07404931370693053 -0.039228863593635664 -0.855107773793108
P 3.773811099684316 3.059154133025189 4.489436333852286 0.4022624593196169 -0.19725811985764738 -0.149526103889007
Ni 5.500551752845082 2.6226598770650127 5.958640861714157 -1.1002994841072407 -0.6928259129003294 0.8179399064935592
P 4.9832610549006775 5.846382635308476 0.44627090182490425 1.0614750550408751 -1.3722175546726236 -0.07077167139692328
P 7.133045245059595 3.7739400791812123 6.864637069454475 -0.022437760178225873 -0.38857981962620175 0.7645247240972124
P 0.43657072237619343 4.71103140105895 12.448250697018555 -0.023443061514288658 -0.6023403080142464 -0.6220434428701287
Ni 5.101885340760304 3.571737079332884 12.223460623417349 -0.39995977932836924 -0.3385163273109073 0.3493802666086048
Ni 1.2167649352546144 8.372492146125516 11.762500799460215 0.013818393940331039 -1.3074617504524773 -0.6513547902397363
Ni 6.621844221932928 7.308715319832144 6.108568471470478 2.5744738775303406 0.7159018208831864 -0.0585977550385507
Ni 8.899999862788338 0.2005557474165405 0.3992136536644663 -0.11690934629525028 0.05598242890289069 0.3189988261032699
Ni 6.202605580093215 2.340683058386418 3.7201390458973473 -1.0665936072143631 -0.673044616508344 -0.3521089783936775
Ni 5.442206956141991 5.303710614939151 7.095185156309972 0.38953806977441296 0.6261260975799345 0.18694053998172322
Ni 2.6899411103387663 2.181319677150024 9.800985217074238 0.6847099686614143 -1.458728491181675 0.262154049200084
Ni 0.6205028552070622 6.538532679759227 3.314340988916333 2.430079438440944 -0.528994962352876 -1.3739167967519177
Ni 6.17450647541227 4.346986771069579 4.762848913936976 0.7071163613810725 2.1777531739645593 0.35004026879010686
Ni 5.853872658949659 5.761937916126328 11.748787515093792 -1.8125395398681234 0.1465719063566895 0.5474783658690442
Ni 0.05424416998391529 7.040437966288161 0.7908368639365944 -2.7887580996323393 -0.1560821598399699 1.4364087446385518
Ni 2.2514200337130785 1.66193766879166 3.8576348747171214 0.0634316860920843 -1.0495693047422248 1.8238415951445042
Ni 7.909308347129045 1.787185973099024 5.509681658661089 0.09395916525698013 1.108881826459613 0.33557961328008656
Ni 4.438525362581015 3.514295139108065 8.356455388250723 -0.7203207758864885 0.6153025246018694 0.2550812015137026
Ni 1.559297627725949 4.294860628681123 1.097517862681404 -1.2780005077685666 -0.19210974288748853 -1.6943407853374886
Ni 4.288945997466314 7.756559771519181 0.2690106941120489 -0.7077527094134909 1.9563271986114565 0.09222444195406053
Ni 7.45895800807374 5.92651575416581 7.75177002577373 1.7724272452282699 0.546168388808369 2.4662844276065914
Ni 6.699895243197511 7.403155950023743 0.4103961760453621 0.2971593616306753 -1.031550756677617 0.21075486879250158
Ni 1.1905728845634902 3.2296373894582726 5.424300916844323 -0.35665134634872125 -0.11380036835262337 0.6900990008874696
Ni 2.9548557841422416 6.564365430423282 2.0998202969077115 -0.643756151956872 -0.005346094803261761 -0.3001089311773025
Ni 4.932544474156872 1.4491675630190546 9.998807520438701 -0.012835975422403698 0.11694019953318571 0.37160899609981807
Ni 9.190056325665354 3.861360539613178 7.850970920682919 -3.1997738796645536 0.6818352182167806 -0.5492380288726283
Ni 8.04408270856431 0.3181435908903941 7.553232807483615 0.2471984563315162 -0.6749148369478635 -0.43724643159396953
Ni 8.930439024055827 7.928305184457606 9.583651079675754 -0.5079391701238414 -0.9024582380526135 1.197944068635608
Ni 2.994222169159187 9.148672332804106 6.455495679657488 1.7909623279179803 -1.9250067912316204 0.3223731418921416
P 6.686923590938242 7.339827017047735 10.139350029231586 0.6105804365358516 -1.5184400481096947 0.401914846172211
Ni 3.309033482619057 7.91949772738384 9.644437273998664 -0.632257150178337 0.21508512073673924 -0.4145392198044409
P 3.371717518110583 2.2344684426924424 0.37806009489137776 0.029855392798535683 0.11940228792043307 -0.15435077897115998
Ni 1.81160916211843 6.2027345595901116 13.247265782340484 1.9587859445645945 -1.7987113757357798 -1.6984686914629328
P 9.148810525122208 1.8388330487847233 3.6104346135302103 0.09781736266080573 -1.6346207437690363 2.2500626221622477
P 4.435439067476715 0.6818141803387656 8.055508449425067 -0.29301551466563086 -0.7075269665559298 -0.4155357793897553
P 3.008465190745004 5.5908926775996255 8.739303386323309 0.814260657869759 -0.06091791853129508 1.1283455916111793
Ni 2.9477711246341607 6.8158109596223175 7.053640860359724 0.5225836595098935 0.08216860037995526 -0.2141862630715537
Ni 6.704400312767668 1.8012908023667382 11.665942141673156 -1.0023391681106673 -0.9568645807176358 -0.29516804223225934
Ni 9.136990475513798 1.2493967479693393 11.276986043140417 -0.4490133423219106 0.2652784537616786 0.16005065756941467
Ni 1.4216488660741413 7.9822278269814015 5.019245413252582 0.03562674806467412 0.3100020219212984 1.1052023207254966
Ni 1.087306371655712 0.9293801905275889 6.023229187349142 -1.6569785426389463 0.14883807668304688 -0.5999970045930505
Ni 1.1881775510497046 8.312387700571913 7.926076603007664 0.2957239147357294 1.2608787604866156 -0.9960199107608587
Ni 7.923063089190898 6.202292344172182 11.99529957853655 2.7744352552517637 -0.3911118420194361 0.6106406003498257
Ni 7.104301242894167 0.1860133091415001 9.852736397639577 -0.4814555220110161 1.2540537671449823 -0.5646685044950855
Ni 7.969035067013167 2.4261411879013215 9.552450018094454 1.369874508361744 0.13907971174470243 -0.5774245186091733
Ni 4.008636699426162 1.1961742798572657 12.109117535572553 0.08382850458088144 0.08065473483859013 0.3748082197634061
Ni 6.364106335849603 0.35898679114679993 13.340776838872312 -0.36218590301370523 0.746728833566372 0.8483354880662809
Ni 0.9084265499746894 6.039299111380282 8.40087132057115 -0.1564174316922016 -0.023711484684326906 -0.3556738129268004
Ni 0.7517321230419245 1.733079074151091 8.202549682297276 0.18478261309845598 -1.0974507018045356 0.5117436314715961
Ni 8.228375983986489 5.198564686505172 5.675519810641669 0.15286519556456898 0.10762432144889852 0.9202299602137377
Ni 5.327774503931489 0.3489466585955557 1.952603099150451 0.9999740103126004 -1.478829632806924 0.5744242983302688
Ni 4.358152710372303 5.211471849015993 3.727945990588047 -1.8190575434922995 -1.162843368277733 -0.002707371628834047
Ni 6.449251229443473 4.696963423076062 2.4030455664178247 -0.12458383212137251 -0.4114790928218784 -0.9441085666035482
Ni 5.1060863872306355 5.751684046123085 9.546867048443092 -0.5320098379197999 0.9218626107211542 -0.8308584143274399
Ni 3.243207875095988 2.0848798647565343 6.698353938209602 -0.5324626091865023 1.4264917426351562 -0.2865885280933645
Ni 7.209824896997628 4.329077046643429 0.02951050888983805 -0.25571806376675316 1.2612950220884278 2.210315681281613
Ni 6.146324455340461 3.7468175335481946 9.961834626371301 0.08535316875552397 -0.11151979984856276 0.9193532140357392
Ni 1.1600784463687586 2.0153230646446847 1.967233059226957 -0.27177306034708676 0.09592528784441544 -2.068646097322547
Ni 3.26390908434782 4.45418715863269 10.639980261305492 2.0557939239502274 0.5443413629019593 -1.7244489175767783
Ni 5.291761585833844 6.90444751245359 2.617655472585442 1.1120746223652977 1.195487122454683 -0.6259060111493285
Ni 4.101852024397248 2.1298107937824273 2.429339879424346 -1.396161724193047 0.37725385309042125 2.138459261460943
P 1.3057884265765753 0.3809077779264205 9.884760164154649 0.6329323218684906 -0.4860670526410984 -0.5852828383113275
Ni 8.551423559605297 5.184238749528493 10.009540457144704 -0.9290511580497935 0.2474162287692771 -1.2177603320305865
P 8.895006513694215 7.431688057301412 6.462924898678705 -0.28685515149118984 -0.16468378546605186 0.35892188755045284
Ni 1.5116304908016165 6.029809905537208 10.74656983882259 -0.6786619626951215 0.33485353374733945 0.030303278969231684
P 5.909960314457068 8.44909675446062 4.0477303849353845 0.8045663134001304 0.1515297645825971 -0.29576788059978737
P 1.828652881351135 8.123736760718886 0.3835942365903431 0.37300536222671243 2.043567557087364 0.5007758196061827
P 8.804075968382431 5.072266120580225 1.9432723538321357 -0.5354949682549229 -0.42154624724989337 -0.20003979636784258
Ni 7.847435039903722 6.147724804163906 3.707504582894249 -3.81244667995306 1.0803487520169266 -0.0023916401606281393
