# total energy = -340877.05098027055 ev
CRYSTAL
PRIMVEC
9.18320906112870 0.00000000000000 0.00000000000000
0.00000000000000 9.18320906112870 0.00000000000000
0.00000000000000 0.00000000000000 13.44055471395766
PRIMCOORD
 96 1
Ni 0.029826144444405248 0.15688410556338875 4.046131059561377 0.7570566978549413 0.6465249729512607 0.1307328824419039
Ni 4.122719022450117 8.945538347867727 1.3365049501325184 -1.2960614790353358 -1.2253998508537156 -0.40501122570934767
Ni 7.288685417374645 1.388785877173512 3.3443456377461516 -1.8813638577306888 0.6532797751765911 -0.620948410033737
Ni 3.2383484481006732 8.13579052968542 11.296907271947891 -0.27418192689889553 0.6131800789422279 0.4659738814356491
Ni 6.880675442417004 3.211460012208799 8.81910025335486 0.8908813318482917 0.15569289482135124 1.7118116884287422
Ni 3.4554670580021707 2.3424529464820005 1.7018433079252788 1.025840079446085 -0.8113206014048285 -0.32522655218053664
Ni 5.439692205404211 3.5255900417693677 0.36256870196455393 -0.37907162302545033 1.2502781021526337 -1.1942784468585625
Ni 4.406250599691107 1.3368823800215741 7.182605578848353 -1.2397381218532584 1.3327040699590338 0.5400154818330958
Ni 4.9907985840699896 7.143076455796244 10.036788254106566 1.1071998107714995 0.24834979632714002 0.4591164921941835
Ni 3.7954294544219747 1.4709664143307466 12.77242488464886 -0.46036219167582654 -0.04008067007096968 -0.5543879485046839
Ni 6.4518563159118925 8.466422785782086 2.303710824439433 0.2451914532038164 0.15408261291143788 0.47987146535334785
Ni 4.546579216106316 2.1608090728681777 4.904619677723096 0.3301743831041153 -0.5877945489895877 -0.5380796982629636
Ni 0.463752971783894 4.6578154264745795 0.9590732244346998 0.8312620775237618 0.01810519424114301 -0.1530400305795364
Ni 8.488499220168721 1.012944683270937 1.4973314073107915 0.4615618684108825 -0.7944261396423351 -1.249497001012235
Ni 9.265215035651893 2.8525618388733376 10.639690718272705 0.1583583574686563 -1.4903335196814655 -0.7449599145914073
Ni 3.112336454484451 6.601588538322074 1.2459759576920517 0.8810244936588699 -0.994064586806701 0.6031031543222
Ni 1.686248382436351 4.550904507535645 9.70359663766732 0.17091948196311854 0.9754222891151654 -0.28566190251403706
Ni 3.2671929075051738 8.974355257645291 5.7584845501636535 -1.03495952524885 -0.6657030885416084 0.2961106086511868
Ni 5.395162825062783 3.543010589203413 2.680450136180199 0.2687085624891501 -0.24750467471802534 1.8202235387759427
Ni 3.8255044638297235 7.053384053693807 7.845467051083216 0.9421658410548805 -1.0259138701068138 -1.4938950117804788
Ni 0.058284909071768115 0.42479871761390026 9.077078633289588 0.21307246118208467 1.522651515087881 0.3745678216178259
Ni 6.912421795859014 1.024983870243016 7.7574441563732455 1.1153010997223956 0.4123902917822382 -1.6532321882226366
Ni 1.315246739665954 0.7391867953467918 11.621147096273953 -0.2713061480129973 -1.1136041716359468 0.12075031730789526
Ni 4.9328066193646665 4.556056287773124 5.480090060025776 0.2346332180719959 -2.326219469130484 2.4690043976409153
P 6.801433532133197 5.963805491489232 9.933511130960806 0.13244909380206224 -1.410503851847332 0.39902492621892566
P 5.140934867675266 8.657020288150887 7.021493523870818 1.0303287113450577 -1.3025699695778146 -0.09009582564683193
P 7.460301226782892 1.2561619730920746 10.016237150731419 -0.5666816782703724 0.12478823482269476 0.06371656432235479
P 1.7833240845582783 1.2324325610891362 0.31141363634444263 0.16739424241867945 -0.2204849515960719 0.8437635524248824
P 9.192851348893708 8.031276428290125 11.664156655529279 1.735660727132198 1.8575652126491946 0.3796061553726817
P 7.833231343438976 1.4705807195536091 5.331921738104798 0.2647860875062924 1.5276934483871627 1.2831460565252482
P 2.900635937880838 5.4484621699796 5.992605871490631 -0.08146051856933713 -0.23161731406380753 0.34967671480310103
P 2.325206880018565 7.65868609036628 3.6432774564457047 1.3631127641578782 0.8631440138340231 1.1019071949139925
Ni 9.121598830422036 6.079679222392125 10.572286882684327 -1.1154489381541692 0.20004776678764258 1.63819483427354
Ni 2.8254438227569763 5.805404319802435 12.08440233813116 0.2896609963711011 0.8584067562593539 -0.38934780814047787
Ni 5.543857344858285 9.315079860410389 9.274198050675606 -1.4999162782738942 0.5482910915783267 1.2660356220972067
Ni 8.068431691821042 8.68806871771046 6.091568723057839 0.9017380720571372 0.3149010018848125 2.6182157985029813
Ni 0.11866450811175225 7.375558574320387 8.83837397236096 0.21872014638616524 1.3035706429281873 -1.8122569756306985
Ni 1.256667049585945 8.698142697960934 2.1351934297408572 -0.1883880710615272 2.228451214540059 -0.9848646654749879
Ni 2.6764095242292343 0.8944215965774684 3.610952560837987 0.7698049986595451 -0.7485604874584721 -0.13973842837462383
Ni 2.0579571322981667 8.113842660224497 13.454264376560687 -0.29659063361139887 1.360203303820567 -1.8076356748086027
Ni 3.681924991435784 5.6369475342831254 4.012112780217846 -0.2825521532404618 3.122342536859268 -2.2671725423696567
Ni 2.4210795817641824 2.2526044298269126 8.516298630391358 -0.7344111925412836 -0.49284062391950606 0.3316640802757643
Ni 7.1642529357028915 3.603399371452377 4.5253944713115875 -1.345183176262651 -0.39529322709063536 -0.48790770539426304
Ni 8.517362045991181 5.2009655047740315 8.441636386425612 -0.6017011317683509 -0.32508257040350463 -0.051473999509575874
Ni 7.519239062013099 5.126361115024856 -0.12387965249119058 0.5627021247973342 -0.9290784117433031 1.342389415567598
Ni 0.3177693352791305 3.107855048502472 4.545716912783144 0.2404788782194955 -2.6584324799311827 1.1373879043191055
Ni 5.560203456841733 6.8229865236080025 5.914072904940039 0.520161423221646 0.47071191034126675 -0.6960457053892077
Ni 4.187451462546368 4.938794071619278 9.934263235776223 0.1297224388995185 -0.7214106665165575 1.2095140328613943
Ni 6.0815617802329145 2.2744512839890603 11.387025774946975 -0.33235107904045985 0.8050854191283942 0.4299301004382144
Ni 1.5587762585923937 6.1156039359197925 7.506213598396627 0.20705222312993374 0.18406656086803785 0.4435278937273071
Ni 0.40464432886666785 2.7860662226530297 12.910781866096178 -0.3412378400071285 -0.4280043441704113 0.7307877368560833
Ni 5.615624123032807 5.714912978518785 12.355323532801547 -0.8415637165600862 1.0994399643204227 -1.0556368510925433
Ni 6.928620976498792 7.803385914255714 0.01386297227540077 0.025279086281762918 0.14836010860536383 -0.38230144281665773
Ni 5.7858716343031125 1.2775588500142285 0.7004446733042236 1.6116872749013147 -0.5826220036497127 0.2784954666725849
Ni 7.546182597158852 4.173382786389827 11.136548240106672 -1.0104036902863565 1.5130417599122588 0.013676983266460316
Ni 1.2693674276045455 2.3114963490122236 2.3100821348293854 -1.958673073135814 0.40235810435721664 -0.6132870368337373
P 4.747581294248852 7.6783840736272335 13.030416121076161 -1.2521362384072954 -1.1335168513994738 0.9483755694100183
P 3.6829075947965872 4.526330240306595 1.7020719698288678 0.07897580447427044 0.5651122769007235 0.43082741544150316
P 7.453257705495642 2.7016357992958255 13.500903140004699 -0.23811166353889962 -0.3548677720857372 -1.235201924545802
P 1.0459032202982377 8.638139610489107 6.903781314530236 0.7609020397429606 -1.0636676918168197 1.0653291386796429
P 0.3554664081398355 3.1067622466339158 8.592735070331937 -0.6058568058079372 -0.05793003954756475 -0.9297587256397793
P 2.854609694475758 6.723660935286106 9.727802658216293 -1.397954811537728 -1.010170748339944 -0.08254141033834171
P 0.6185368774536791 4.620751995033457 3.2652883099628327 0.4099215185267715 -0.813117031183619 -1.0188433364132776
P 3.64507277380119 0.8278029253568356 10.340140869608833 0.1259673427324605 1.2412193343844753 0.05914411446032395
Ni 1.3449727871324832 3.808533893635672 6.795369859244056 0.687892480154454 0.510977699839849 -1.1292357075256163
Ni 4.511407525714964 7.896310805918923 3.7185577303757693 -0.864593087575724 -0.1422226282490583 -0.9351392732254024
Ni 7.840779941220098 7.406836584104446 4.336540860327986 -1.781112945927726 -1.4565258271034012 -1.9238924751215192
Ni 7.867604094649115 3.397750589566231 1.9511251889564554 -0.011347563802335297 -0.6394968624598857 1.2150069376551655
Ni 2.8592012989654907 3.597797613974903 3.9009059561183173 -1.3278603687134873 -0.8355321656540257 -0.7972381551698335
Ni 7.983588024059761 0.828690023344252 12.444475043895096 -0.19040947236693015 -0.18080048852225636 -1.2140625714640252
Ni 8.065842026888832 3.551679538480028 6.827936273247934 -0.27887547571982296 -1.485543811602306 -0.9543688108789756
Ni 3.543028955621372 4.275913314645557 7.775320190972673 -0.48214740587171806 -0.009969709618202186 -0.9520391343045346
Ni 5.491421221585538 6.170675640169646 1.826316195716543 0.2650609384342339 -0.6910657356761131 0.21247930768277598
Ni 6.662399748184093 7.399793062817195 8.22115672203763 1.037257320144091 0.5987631321859495 -0.902315284716846
Ni 5.6511539585743575 5.259646210152814 7.919927264451415 1.124150065472593 -0.3491771494588632 0.4213832393094678
Ni 2.6011714930604755 8.8972530350537 8.585382993222977 -0.4898337187723822 0.21500695920063617 0.4027658813185967
Ni -0.05117251371717226 6.837707207602086 -0.09243083502011382 1.4081793174792134 -1.3941344093503734 0.18732646256623223
Ni 7.5179717791739336 8.085512460522846 10.499277616334885 -1.3001791007481351 0.646027464489552 -0.4854875259885445
Ni 5.991961210220273 9.13340843716963 4.873047805251694 0.26357124126258474 0.9361705427033941 0.8729854254044772
Ni 0.8905031213059306 7.189947554427435 5.273912325302414 1.0227485850049547 0.40852592373082547 0.07387833534670502
Ni 2.530258753321045 2.640567459582382 10.95562433007684 1.0944155145226377 0.8247217053020828 0.2769684885050972
Ni 4.633452373052058 2.638730817786489 9.279359014122067 -0.16309612926395783 -0.5326515852688568 0.8066825884121849
Ni 7.984047184508735 5.636121045474973 2.594053587780492 -1.5640761007812547 0.9582894860896204 0.19787518461635598
Ni 2.5620602060169335 3.8136213914102957 13.365193677706161 0.3715323772256117 -0.40827524117260006 0.048613390132329175
Ni 8.647653414991833 5.242675639958763 5.206830820349215 0.8515480814663077 -0.10575332967843078 -0.5147528506115651
Ni 0.6411927723269178 1.526414630148758 6.904976968339362 -0.952049675827496 0.12312370263607827 -0.8952663482898646
Ni 5.572830369188498 9.184127300363215 11.830954035186 -0.0753852589095347 -0.0065056623290017 -0.7671055974505111
Ni 1.037243454230602 6.4636567394505064 2.4143400246941527 -0.07204745278555334 -0.20292688810765053 -0.0819027483130783
P 8.445126924158707 7.704794982652175 1.7331598871870513 -0.5008418969574279 1.0117450348055996 0.8667744114977588
P 2.258298019394181 2.099097908526171 5.351881442821665 0.20947137409438765 -0.5311739722820659 1.0684599709991407
P 4.925579433897827 1.0255348627817837 2.845285064078009 1.0002259784224066 0.6408716313202254 1.327103950163437
P 4.326209750226088 4.048858472628278 12.00812752266862 -0.8336349486313127 -1.1176765419331074 -1.3441835313535433
P 0.8086788926570992 4.889195559921186 12.0326430173602 0.40051179517709734 -1.8714203733647317 1.4924279403166492
P 8.013433453243024 6.52197929967909 6.67404222052826 -0.45152222478669335 0.429799488397621 0.7846834584332745
P 5.517134206728041 3.1409237840375264 7.1353891915595336 0.6630677078012903 0.7266765429011872 -0.22499723764412866
P 6.026076831578986 5.484790944702365 3.9957152422641125 1.2871891162463704 1.4108283250662865 -1.706718333066235
