# total energy = -340869.4681184891 ev
CRYSTAL
PRIMVEC
9.18171050071541 0.00000000000000 0.00000000000000

0.00000000000000 9.18171050071541 0.00000000000000

0.00000000000000 0.00000000000000 13.43836141931854

PRIMCOORD
 96 1
Ni -0.04811032588989282 3.727306134714321 10.834087670968643 0.15432172550543746 -1.3780580726138008 -1.463813104793434
Ni 3.8804295182147874 7.897381887617944 9.609287909856045 -0.3628690451236589 -0.5252290675525406 0.7704788847981183
Ni 6.151498028060072 2.4232829040211388 8.720327568201176 0.49445887624921947 -0.19127387724975445 0.37725590997295033
Ni 6.218809146633071 6.810974373920896 1.4097781705000045 -0.1764352695750252 -0.07949670997474696 0.5159558697807307
Ni 5.850172657806531 2.197146559820564 0.2735543691301066 0.43167767925694045 -2.0857022814738855 1.2546140105238266
Ni 5.707782693704759 3.446364161436917 11.710080683096754 -0.2546286873573163 2.8534048890784467 0.3830774017507338
Ni 4.6797800395415905 5.799260073917936 8.119122028903124 1.0153060126839806 0.46191822330903676 0.29111521231912446
Ni 5.148763440779031 2.0842390676513953 4.850885802761769 1.1319937298867278 -0.8200597810500393 0.24336237041487763
Ni 8.259783995117099 1.1748549294948518 4.456079603096767 0.06741483910954842 0.24797081572116647 -0.7355054540467268
Ni 2.4226860928484135 3.490840366370434 10.581620935998489 -0.09726997479776796 -2.0090713230827077 1.9541301909601378
Ni 8.037219336242522 9.075037238769427 10.423827734614209 -0.3510489125602793 -0.5937898473410741 0.4158124300899097
Ni 7.150422205546023 6.94196065376845 7.614135305042788 0.23315149132014684 0.7664273404365639 0.5090349742911814
Ni 4.8746434782913886 0.21315616027932913 8.060288383495921 0.19503925782945764 -0.1684198554697164 -0.22696670266567362
Ni 0.7413294572855392 0.4188769715175431 2.7587614822621283 0.6365416364863037 -0.7047622593265992 1.3955500587509773
Ni 5.52285386555324 8.927560607133971 0.7928131435578791 -0.03211924913204791 0.6042411245813852 -0.2255433399555858
Ni 1.036633461891805 1.8344414558798725 11.763753289116442 -0.015383681544921892 -1.3972112485034842 0.459521440942086
Ni 8.100958769489523 5.7123827305899155 5.732387841099648 0.2569501364016413 -1.2591242396893538 -0.130329219245582
Ni 4.365793090715935 3.8607255678045216 0.5788884741222876 -1.7995672959781717 1.2238646451561115 1.266942193071876
Ni 0.8643405035234204 1.8317695781681358 9.285786872766122 0.5911272129072465 -0.7021713586709714 -0.7234379813592315
Ni 6.7942544793742545 4.609787861546503 9.649926159863425 0.38266885345840546 -0.8113044034549125 -0.5654521767386455
Ni 9.196033817756604 0.9927632498413624 6.861801567903239 0.3495008513468691 -1.1802512793415352 -0.19472146947872268
Ni 2.4822294844656425 6.63094857909607 8.017971716836632 0.30503413639306176 0.0036918470292904163 2.5583111517275485
Ni 1.6515876942673653 3.6017278822626886 13.296492006447403 0.22822860009723273 0.9332130027369671 -0.21073532840847578
Ni 8.395223404484213 2.064819750261967 1.4699009280402937 -1.3294225709942846 -0.715706931263561 0.6603022292410112
P 3.4905373699288966 2.510463243790697 12.645780521286317 0.23162734136613658 -0.9045074072721584 -1.4883177748030174
P 3.2886591044719955 7.922356139768886 6.3320884980714 -2.078916883120936 1.7018293804050497 0.6008966335891844
P 6.181118225647917 5.0282718558610835 2.6229933676644968 0.25405147469760764 -0.6114057606506245 0.7183978478321628
P 1.1734225826803126 6.351833766178238 13.080645605035638 -1.3450340522792965 -0.7575886590990114 0.07587839649586933
P 0.25112161440393654 7.800928020395278 7.718175101356302 -0.8587566833996049 1.645354585246773 -0.31555406208777914
P 8.920215238854283 4.170690927497047 0.6599565493121099 0.017457276244498967 -0.11365458680337846 1.731723596861321
P 4.880060687397659 2.1057426332901845 6.99015177870942 1.6050725977982743 0.8942052540152019 -0.4751977140267622
P 5.0769808292657705 6.219231505309153 13.127222585297147 -1.2484739590643597 0.17199625996706505 0.9557505217178508
Ni 3.7907058446783863 6.110024242410878 1.7326346515233835 1.5930714595723403 -0.6831973886716298 0.2711207714750686
Ni 1.4617282876581048 4.014831394312396 8.726374642637431 0.5275823982760656 1.2068423995665023 -1.3239672043066681
Ni 2.2815356596438408 7.400770719938523 3.3809711021559514 -0.1106502527594159 0.8084736188743367 0.13395216071014995
Ni 1.1691255422366946 2.860396588635079 2.3412580946128867 1.3610880204183655 0.5887335158640893 0.5580417432071874
Ni 7.150973108166999 2.8210621414973454 6.021084686938333 -0.5050780465259623 -0.012814635266165027 1.076218789008953
Ni 6.548313185949569 4.499992969185852 0.41178777295660823 1.56424245115579 1.0357892202389967 -0.3216509190141364
Ni 3.8635718980129012 4.645256808627051 11.978606229468378 -2.6249706007283113 1.0441280791219953 0.4910159120059415
Ni 8.430233266047281 8.105549624664329 5.5505541675069825 -0.4444624897264346 -0.5118745006225055 0.5531129384470024
Ni 6.422734933497936 1.5691083901968077 11.437093743666253 1.7983822745311349 -3.2246598442729564 -1.4095795402608498
Ni 3.3753252684619754 1.0178385008061506 3.710654184824266 -2.499857121355714 1.2965409897749156 -0.1668226861859256
Ni 5.166888137009164 8.920720232923511 3.36187498097083 2.828650822062219 -0.17453291034598972 1.5782953297044302
Ni 0.03240317399481292 5.71937001216597 8.37192389630104 -0.9325684271744326 1.756798794662394 0.33092026013120424
Ni 3.183032708610068 3.37899795260182 4.926852519681348 -0.6022750019939499 0.3599009636342705 -2.080015258391437
Ni 1.2701427195031172 2.711974240833614 6.635029849346472 1.2083539511150223 0.8999436991608758 0.23921440968477514
Ni 3.822639833274334 5.953411808977559 4.897987058684239 -2.537684476616133 1.4078466167301433 -1.1991239478763218
Ni 3.12134997848138 1.3530535639601062 6.1291965717919 -0.16725334596544097 -2.1269152653770855 0.26517920917965293
Ni 4.538684696599114 4.0593810529287095 9.783127068247303 -0.37440995588372294 0.350998261828002 -1.2243942924073365
Ni 5.321094962330884 8.691287654707427 11.414369010550965 0.2185021168380882 -0.703412173056608 0.43547031353015325
Ni 0.4966855395332534 8.471045968551302 12.322291420419852 -0.05265696407408351 -0.32332753538561093 0.4633744961395891
Ni 0.46190889341306596 5.89883572265947 10.927564827695962 1.3408331268240714 0.010822030316168458 2.2439205138202514
Ni 1.3203483116947914 9.054626296662242 5.07179867194445 1.2353330508070275 -0.3079844772706373 -0.0836492986905398
Ni 1.551534596587652 5.438428038888565 1.961369419752898 -0.14965543037801968 0.18412106825505709 -2.4672766163165316
Ni 2.8702302004195133 0.3382349276879428 12.523799662949664 0.4078119283829364 0.26783490163494517 -0.8166726097453613
Ni 5.19247756375353 4.534323384183049 5.750449183528368 2.3700166688210924 -1.639006788651874 1.0132311324328227
P 8.069584865224902 1.972038567179146 9.98017391771824 -1.3258495089310458 1.0174024902016932 -0.6519687696746513
P 7.4990792926518095 4.736614826605683 11.730936938155896 -0.2676623806128229 1.385096467517821 0.12974275061449267
P 0.07145574262481429 7.093137514674798 3.470953699924211 0.6364272223956264 -0.28054180767865233 0.1147061679963444
P 3.623819077363853 8.771544984873378 2.133903857103477 -1.1663557523063655 -0.23010164875022954 -1.4395033244034758
P 0.8874086326057836 4.772423496969167 6.501250493210566 -0.685767206281335 0.21322544182018113 -0.5539668018068653
P 2.231100524693426 0.28929732969555 10.284498952742998 0.46051928607898107 0.44636356340388933 1.7967136285794605
P 3.001216480267067 4.124488561017803 2.7834208017480786 0.7349894336422568 -0.04721471001258965 0.12900484400720363
P 1.421640940271702 1.8993102394998755 4.50996797930967 0.2445777308792175 -0.2577767460679948 -0.3357480205371508
Ni 5.206810213609272 7.4600019334038645 6.111040657746579 2.8513240952900185 0.12271772544691123 0.45510659970384204
Ni 8.289165468235854 8.750564776724516 1.1631950755218807 -0.3119905131062369 0.10818739304122013 -0.45239305742742086
Ni 3.002153014722727 7.1133831859956915 12.281398837035788 1.168700084168826 -0.828826985719708 -2.2401409921731616
Ni 4.986605254294547 3.0732837248011653 2.582490088799257 -1.6839596992134804 -0.2936472347123588 0.5052058303530783
Ni 9.148298105648974 3.3999873424610314 4.602329558229514 -0.16881014892959958 0.15220442205211854 1.5527732741739257
Ni 3.31310081742266 2.6007470016584238 8.302864580077474 -0.189341436113732 -0.5510830525011671 0.5069449245313721
Ni 3.0868818378289395 1.5545278341616253 1.198539151341674 0.12259276983327273 0.41755692358484214 0.38712920322260425
Ni 3.0607506901739456 4.659745547558738 6.820639960405932 -0.8115820825963314 -0.2560685051276364 0.8594074296097263
Ni 6.938609329490842 3.242511828254849 3.67419544936803 1.6518497060528132 0.617519072637214 0.3790700803635536
Ni 1.291728920535053 5.3680318656380965 4.20933858270063 1.0605746547137929 -0.4429221418225082 2.2918535900561046
Ni 7.429913468588189 0.21547178762950106 7.875175002966373 -1.396157353317673 -0.4314190262789151 0.5734596204241543
Ni 7.193612971030594 6.939380593160209 12.593101376326459 0.1328877240013776 0.4043337400263488 0.3209279248051828
Ni 5.112477321477367 6.1789237968743596 11.057902878792836 1.5742676966022757 1.518156969651637 -2.2850476228778644
Ni 8.528661200995113 6.386219271437532 1.2023100797822595 0.8299713837367964 -0.20448574795433816 -0.6226833904469727
Ni 8.015137322851707 2.6754861239042595 12.6830178657802 1.039072261865643 0.5156447662982152 0.004736229133404746
Ni 0.8956675810652589 7.794840546433485 9.8366922482559 0.2101825412287993 0.9948762840747188 -1.0760017879021404
Ni 8.72306555422743 4.78887712191567 2.912697447128535 -2.5128278225837692 -0.16274568790307453 -1.002750544616473
Ni 7.390707565395348 8.04410561900473 3.2031140273157024 -0.20047585546399668 0.4447021165410664 1.0392033881268683
Ni 1.4239547312798042 6.895941921496199 6.111014030786566 -1.112456945405381 -0.4984937084402254 -1.9107435964443866
Ni 2.3482866938855143 7.683631670678994 0.9121515056559159 -1.9852505665140263 1.293872698914133 0.42253277953287877
Ni 7.6336464395357115 6.640561829832113 10.320796090097081 -0.786878152091748 1.0373239117159685 -1.0755261338173026
Ni 2.3794310553913958 0.10677227331355883 8.180226311279787 -0.8227129024021703 -0.22172293776823104 -1.1583277397955665
Ni 4.276032690338136 1.7454615008817902 10.543106415594973 -1.2397517487000131 -0.7865109985603164 0.2334926767096495
Ni 8.50132724928432 3.572768767820015 7.884810289807255 -1.2613053065010729 -1.1328848742424296 0.15348894519149697
P 6.578135381165106 4.892171363348796 7.477897086875256 0.5714929836160867 -1.0761938493082885 -0.9474677128837684
P 2.497719029825437 5.548801379001241 10.195053485030192 1.2969389965442826 1.3028412209613305 -0.6628157396914843
P 5.536828428705348 6.9049124525077685 4.026536238666081 0.7629910610615053 -1.3974801858941543 -1.0183288586707044
P 6.65053316727179 0.14669618625573833 5.382131300050959 -0.9070114046409347 0.016917087470312803 0.8874062288154975
P 1.0417752196875871 0.6855441397144063 0.7531288732558246 0.35190508991298747 0.5043658509502862 -2.406001571556134
P 6.445487211744272 1.3666700404085799 2.6633892205186465 0.7069988619666017 0.1826059171621113 -1.0553907965200082
P 6.141398146675499 7.958256627235866 9.341542808864137 -0.542859121929478 0.49528111504019856 0.41540182491505234
P 7.5185353368826355 0.19357524478774826 12.756122643583804 -1.1133020670144957 -0.10145187408959946 -1.2059545976449102
