# total energy = -340873.99551996466 ev
CRYSTAL
PRIMVEC
9.20088558695913 0.00000000000000 0.00000000000000
0.00000000000000 9.20088558695913 0.00000000000000
0.00000000000000 0.00000000000000 13.46642609628021
PRIMCOORD
 96 1
Ni 8.013842558208129 7.836090649013236 5.268012143169464 1.5232205002174735 -0.9431554586616595 -1.0727789100894685
Ni 6.858027307260231 0.8991703480477604 8.487201440528153 -1.3201084926822104 2.177714864527456 2.7361921526101654
Ni 1.0054083738005855 7.034031048188287 13.421757847506898 -1.7511554803336873 0.12406421217247665 -3.3301478361051426
Ni 0.11660466357517028 3.112263965450428 7.840058990978956 -0.07688318361129985 0.12207572098753813 -0.4776063234682549
Ni 6.973710042096785 7.944541487756453 7.805814214808737 -0.2611495191949696 -1.8509237960732765 -0.5320337491791999
Ni 1.398461006384913 5.182426425267918 8.459757038915932 0.8023762477273473 0.6596604818919543 -1.2290531313355866
Ni 3.69877441897434 2.480982002524253 5.181409727407468 -2.348458997254975 0.06805812912050213 -0.3880280608877898
Ni 0.9607932794537749 7.6099604832550245 7.929974645650891 -1.501594951527898 -1.3535112365123723 -0.5743193973212883
Ni 1.3551708395666529 6.706010275130307 5.095345563453945 -0.3102095099464141 0.5021431322673545 -0.0892969838946204
Ni 6.020479890618485 5.278897710940491 7.685962558700057 0.779741798157283 -0.5812914577637472 0.86578479389098
Ni 5.772193992299516 8.390048369231513 5.142989589345191 -0.2619532460431876 1.508119382909977 0.039498572315254554
Ni 8.25847570493797 6.360480216747108 9.222522417545184 -0.22146171368704437 -0.30283275786636876 0.09529433912863589
Ni 8.442705037605775 5.9426403983161515 6.753641419781692 0.41129603027679484 0.037841239217489664 0.30552316021433834
Ni 3.98546481385004 9.250754414966046 10.975123671071751 -0.5216752887630112 -1.0807992092907839 1.785103812254674
Ni 6.628474412053265 9.509943362738712 12.124940864687273 0.010239932560453333 0.5360179306379285 0.025723372908033115
Ni 7.638740853458535 2.749445442996771 3.6102140547534853 0.7569204293873932 0.03887276580579757 0.07780183877082729
Ni 1.775899736080699 3.5714157602924352 10.171258856489152 0.4779225691570931 -1.6847911939758404 -1.0853436341283567
Ni 5.20824411030342 3.906585621473219 11.57019186830611 0.9046156507152485 -0.031032186715456232 0.4675383977092915
Ni 4.302941371993307 8.076979035297798 3.2619991779478497 0.1347456031457228 1.0555841434777369 -1.0881692765026096
Ni 6.356220206707394 7.937051966865896 10.485511424312946 0.6672614341676638 -1.754147473082476 -0.7714512760137165
Ni 8.09009029729908 8.718170352031258 0.7002343198130456 1.1789140485873502 -1.4667613887884803 0.3083364612934174
Ni 7.546419167198297 4.236234951285042 -0.0909065900526621 -0.8790059205669443 -0.5773581841476121 2.0218705317299053
Ni 5.847797669397421 2.333215779548427 5.391149435531237 2.714733468515757 -1.3778156175856915 -0.31045273630547177
Ni 1.337394728558602 8.316119253315525 1.818627728787887 -0.9630352283047221 -0.19044572492150427 0.6602919448283661
P 5.774116977393037 5.612807050792029 9.98507249545105 -0.2040311769154228 0.024170940819248695 -0.6792103789994237
P 6.68762690567167 0.7736702682600728 3.7599474270737834 -0.2777742722358442 0.39752468752431536 0.5102552198515277
P 8.820971847006906 7.90626580359833 3.0601243868477255 0.4248241466702168 -2.0432220008224875 0.3162228060200296
P 7.491867116387358 7.558389519383325 12.560256845255235 -0.5057308496186129 -1.051889211124653 -0.040011507395931095
P 2.1953221068374247 7.644160175085731 11.389162603655178 0.5276204506028526 0.12346103137083898 0.2178410862153216
P 0.1913563386651328 3.5858795524791103 4.853488323914129 0.24672948711489767 0.3561031871547351 0.20396664222607455
P 6.851154245705876 4.258740317499169 2.3813216898975433 -0.3595458942876969 2.036814297523931 -1.4903779997661557
P 0.4094716129641756 9.111066569560132 6.2718940900465325 0.612212572822636 -1.0120731075689797 -0.41000302249698417
Ni 2.0224466670184467 2.2626633886531202 12.853650085301412 0.025165186411717947 -0.09106924530369477 -0.18628902244065337
Ni 4.481162526354562 1.2872222993003717 13.032766485833001 0.4007712194860711 0.7008503258667027 0.33109715202870077
Ni 7.358233453716069 5.615153276623838 11.587522656450398 -0.04744636640742152 0.7129779623681721 -1.3088020665304556
Ni 0.25244561870548116 3.415865588086376 1.4300669685607699 -1.162335318293063 -1.4277783226570637 0.7992934950369653
Ni 0.9759747407184145 5.766977090155849 1.836887806379283 -0.12395545450875427 0.7432506452097845 0.6922846956848787
Ni 5.580981187449976 5.8838283374654985 3.915551884504971 2.377749775799292 0.433138322962867 -1.5608928179572665
Ni 0.8939295236014946 5.870450249781387 10.829026488746475 0.5295703752403718 -0.745487247849787 0.6996087401501178
Ni 6.900378983745768 1.4264869039679993 0.7247298375856821 -0.6812186676787041 1.7153171304788395 0.979320595728307
Ni 1.8430570001840956 4.770383164774368 3.643557144133441 0.15243890666042778 -0.9373607063567534 0.7505217249499009
Ni 5.5941200521081 6.3152118595216375 1.382584878256346 -1.0042317571476898 -0.2442918242076825 -0.5489091847782999
Ni 4.971643336715416 3.063048428296151 7.371993378153202 -1.0472128886949061 -0.5654843155281617 0.24649937338196257
Ni 8.585070340725634 5.344730047515338 3.894342002985427 0.09456388872051456 1.1423413916696392 -1.1389948437949093
Ni 2.7801764009506478 4.7669420335543835 11.852757506160636 -0.5564710562859578 -0.541385622707745 0.9603147440497656
Ni 4.665447064336057 7.210246409485485 7.906987153030541 -1.5593218739257209 0.12828005002603715 -0.23633785946792846
Ni 7.856102575225715 6.207653506683069 1.4322751811083536 0.6997581212437884 -0.0834631508216627 0.05285468190718639
Ni 2.5494457923849705 8.696585074378625 6.523069066448591 1.0563451900134773 -1.6987556265757326 0.2000963606373909
Ni 1.2444749847333925 2.364673607465883 3.3679933802318796 -0.5350972185958719 -0.3149092294149286 0.6065965121874392
Ni 4.646162008087157 4.646023994802933 5.589428520533046 -0.06873998567887517 -0.8936072154198869 0.8929006762711654
Ni 0.9904385329050894 0.7207127309262024 8.39649174942765 -0.8021924138513152 0.634388594699043 -0.5541010133918844
Ni 9.231800590599285 7.983304818852165 11.16824565968639 -1.02414289424932 0.6939762244546887 0.09200821217819638
Ni -0.10651221214415013 3.418257818346259 11.787418337054751 1.115156603724731 0.6530794862403269 -0.058493882470834736
Ni 8.617282641263516 0.7934705741034088 2.600083786455316 0.4268882282880971 0.4695423155131978 0.3221378859528839
Ni 4.970447221585474 3.4919017068081835 3.4336555004228493 3.92417191094421 0.7406576876716275 1.4340261033389885
Ni 4.825551674921508 0.5094585570302151 6.946440457311246 0.5561964624683324 -0.24944457205321557 -0.4006213241717681
P 2.7529049759879864 3.0685045534658064 7.658302856364445 -0.9800333055246154 1.1312779347666257 0.05780405549266174
P 3.188566909855069 2.8850020907615805 2.823236545628535 -1.3276186850163263 -0.030872264098824254 -1.3225878074606383
P 3.3427921545325776 2.421737500049699 11.128264131335259 0.6779201994330906 -0.45823203270670115 0.2036318845944751
P 5.022809461620058 9.009810823367793 9.16748548006234 -0.029920184598200086 -0.3877809778739902 -1.4332090067543317
P 4.713530892559698 8.930609599994447 1.1828060488993033 -0.06978642466551851 -0.9294244822288122 -0.7430791526289267
P 7.273842930855904 2.383572226518956 12.279656516568059 -0.9994464199439046 -0.07910975894897344 -0.9793211099489393
P 0.5471996697341093 4.848756308442369 13.39827258697478 0.12421770703120544 0.7580573712053138 -1.5558004910360237
P 0.7695059474307541 1.1991330204230022 0.8532137645782926 0.6486620738989215 -0.1723788401174644 1.6643007873319722
Ni 5.0884945840250655 3.4457960689917533 0.7301684810726691 0.3442113208131556 1.0013243536929077 0.3202584095419839
Ni 3.949047708586135 6.819374386791897 5.20594572907681 -1.7140758018725704 0.5742006123552369 1.0458682017415537
Ni 3.446403327442339 6.101364876059363 9.94008108488259 -0.4242757303659145 2.1479407185888166 0.7091243929500367
Ni 7.6926120387339685 0.5588029065831014 6.558540320671281 -0.4520462156109634 1.9829599707076364 -2.2422883775334674
Ni 6.332638336876321 3.4317279148865207 9.349066797850169 2.301399838983643 0.6510891952831754 -0.21643160746230466
Ni 2.49654990098472 4.016591409885359 0.898339508076732 0.8468342209304061 0.03613582649060874 -0.04954670057987596
Ni 4.131510471215873 4.159591574112649 9.315588455451671 -1.104461328794414 -1.8146671277340878 -0.18978906517411187
Ni 6.740872430725288 7.915227466187275 2.841618074910048 -0.2700375657132188 0.7723861291231601 -0.09522594778454568
Ni 3.6319115832106204 1.41194030381079 8.713585550729336 -1.4148559581684406 0.44067962564523455 1.3640643294378703
Ni 8.613712697644923 1.9239511865105878 9.937952920039855 -0.29832587113495074 -0.28659624140284834 0.41197788683516784
Ni 1.4106153762822398 0.1360930593961601 4.118315481155498 0.2624096168543158 -1.2040625228285198 1.0200419847070692
Ni 5.364769576384663 1.8176441541156505 10.585647422725946 1.0777663360017309 -0.7484175341227046 0.09094146147657886
Ni 5.119510769433005 7.631380144966589 12.859090568965522 0.33045771867248896 -0.13002994283760833 -0.35854059295163415
Ni 2.095685716513314 4.322024008758678 5.925779775426786 -0.5585333381316252 0.06366848469323873 1.2742497824768828
Ni 2.8599020748040433 0.731843042254587 2.0211217394898964 -0.3637020825479156 1.1985935292941485 -0.3806662212060799
Ni 2.6160141998090114 8.31968919693412 9.348770529333366 0.5842307428977292 -0.24978472900145368 -0.9192794233750103
Ni 1.595037927547959 0.8956077651376584 10.630086780157512 0.5317573555893617 0.3516040137328009 1.1456699418222396
Ni 9.178187030121068 0.8993166421290378 12.45734677982933 -1.1505781777571347 0.21768399181216705 -1.455813631527725
Ni 1.7767830210997326 1.5731858242124928 6.25215174978257 -0.4481309397169573 2.394543193207547 -0.42616034898313704
Ni 7.204955900256899 4.382768255588466 5.429757271660058 -0.9660665589318782 -0.7131090886293977 1.0010872979814374
Ni 2.874347465219488 8.665256058859777 13.286379696923017 -0.7314945331151209 1.1494893155683301 -0.7664484234824864
Ni 3.062910415011927 6.517263307625568 0.6662434880857983 1.2270276162651255 -0.6396020205791823 0.567782624644035
Ni 5.031053455131039 1.5014281173016293 2.3484772885179166 1.2757628766872997 -0.6841235000303251 0.008440160347553207
Ni 3.8734716341450746 5.121130125301233 2.4623759716337354 -0.9357478533436787 1.1723690483799807 -0.609979312616743
P 4.488983279127255 5.337166919539863 12.905037951549376 0.9144267232683994 1.0446646683517558 2.360976155885379
P 3.698857226944874 0.3509944643499067 4.873823201211692 -0.11809333930102243 -0.5161235057068466 0.24190995423906728
P 6.166175914330951 6.476346969295961 5.955136121069791 1.0471329273865901 -0.404088199674446 0.37948068553841097
P 8.984627999439722 4.27495227795268 9.74508671604531 -1.58508535604307 -0.10798787543590435 -0.5530432615513314
P 7.098796082031801 3.0218008580844065 7.31757474018368 1.0106134923043175 -0.3073887526681674 -0.5766979248557939
P 2.6352808542866812 6.397219353007536 6.90917871074789 -0.2629017259993859 -0.011394614990186827 0.9224837892449209
P 2.571905154171022 6.895070072745951 3.01328819871347 -0.5070575388498364 -1.0768795625214034 0.5283023071612256
P 8.44495005369582 8.74963738083433 9.332745346857838 0.3514332924828915 0.422447418907924 -0.5795675330941051
