# total energy = -340875.4314727186 ev
CRYSTAL
PRIMVEC
9.18818574100408 0.00000000000000 0.00000000000000
0.00000000000000 9.18818574100408 0.00000000000000
0.00000000000000 0.00000000000000 13.44783858800435
PRIMCOORD
 96 1
Ni 8.404948173008066 6.542603962924905 10.574089585269741 1.1214133832677202 0.3429337396523126 0.11564462065021373
Ni 7.159967361134465 8.155838077128296 2.927459851408162 0.13731567786574414 -1.0719445871136313 0.6834979506311841
Ni 5.644155581934513 3.977207333011693 6.041334212268106 0.47676531562419827 -0.5314953601772265 0.593861581119274
Ni 5.8434473339126844 4.82444076584504 8.372785847114825 -0.8272609267841688 0.38385413201575824 -2.0273163853358245
Ni 3.4685677384516347 2.272367005473937 5.915556216786114 -0.3526774493026378 0.11749915736044926 -0.9400266832246907
Ni 3.7943073046632607 8.814052149809731 5.7243280167459805 2.4669076630128868 -0.3015317796667581 -0.24615227445518897
Ni 3.7222994918346326 6.302433971917185 9.367011877834146 0.3959018072089117 -0.4628551333010093 0.1093104509020698
Ni 2.7164320295912754 5.428720187345659 0.5334853680282081 -0.9441659022040448 -0.6799007201982291 -0.1978024223968916
Ni 6.020816074354669 6.10013768315262 3.4391903517019897 1.0754615991279544 0.23658751358488928 1.5066240293113728
Ni 3.327446391350079 1.9601983898234805 10.640656154413652 -0.23115425838445997 -0.26673215548906964 -0.48971261981348563
Ni 8.586488349844613 1.7744592120346951 8.452370238029262 0.6816315868464067 0.08060022745157086 -1.631814641778809
Ni 2.650617054053255 8.105927851367786 7.691800693339451 0.17934601546391693 -1.8087147668053947 0.4229055894912652
Ni 0.4061867277812379 4.3327441860681875 8.934475270554383 -1.6180849508975421 1.2670180406151341 -0.4523601473069564
Ni 5.339043493048427 1.2192630795643837 9.683640438916147 0.5167166592061553 -1.5256537922493145 -0.5383290952696083
Ni 9.03269422127458 7.947523526605053 4.70187587896917 0.003991123437264094 1.1022288399194693 0.7833207737577929
Ni 0.7728109647525351 0.7784874259960627 0.34167371818398845 0.25079414410257456 0.38155428023798804 -0.7818601300518663
Ni 7.245371548992331 4.547279138439711 10.036014718388923 1.661884464580996 -0.2250458314938769 0.40505133491866363
Ni 0.31024828479921457 8.600877048950093 2.4171277930069617 1.3833203494540047 -0.918102886568406 -0.6625987385846718
Ni 7.848750528275623 -0.059666241539689024 9.8934140733589 0.7137624059426804 -0.6612928752890547 0.5870108767460277
Ni 1.643766455919549 0.37986349402179737 6.231096896658608 -1.5992899296782261 0.9045439169370486 -0.6132916648194277
Ni 2.9098525307850283 5.302125362137948 11.420375716137713 0.3506077112578026 0.005024964018417153 -0.21899088354904866
Ni 3.2595456976147776 1.0143022168913967 7.83662028526218 1.992006654290937 -0.5380596436583056 2.0587095549351253
Ni 4.425076266087951 2.9886596011730773 0.9852307967319252 0.47040080685875124 1.007331479118936 -0.00924517274735182
Ni 1.680418129439186 5.910107622552687 3.6752541424349725 0.2721870079560538 0.1897988353661247 -0.546222381974756
P 5.055284748173283 1.310979551129442 4.825864934658162 0.5198490341875498 -0.3374842865019672 -0.3531533604977918
P 1.5748550617362251 7.14443932697849 11.641215601667716 0.05942385048427185 -0.21374943264445123 -0.15165009221054526
P 1.4749886692857526 0.7831054082249346 9.187643788142257 -0.18186981032703517 -0.3983186441805205 0.5395814796194707
P 4.380917844695277 0.3409680655075512 11.807377511778313 -0.21322775581302633 0.5682958168350278 0.9160927981169127
P 7.250048335610907 4.268040981022993 4.712539687514391 1.0951014848460687 1.2351397038492986 1.3399211565327631
P 6.350359549525214 2.766342255351784 8.618208723996492 1.9178370129560585 -0.23180011949857499 -0.18418894537851505
P 6.314635882780578 6.03407462659554 11.315697470736065 -2.124014803900839 2.8888141218156766 -0.775716993268606
P 1.6386762009358742 2.7288544569160553 0.900330121460892 -0.7553160610147508 0.6188529609572889 0.9656009321493695
Ni 4.795819566794232 6.52940053979938 7.211511246346413 0.9840164585420794 1.176914244548502 -1.8248705506296508
Ni 2.1169120883822496 8.562764453873768 4.092755202322523 1.1283057395121794 -1.9024831562078075 -0.9388722579052734
Ni 3.8063989572959613 6.449196865155882 4.424540594850499 0.8237259170477168 0.6256573854736321 0.4411861329680079
Ni 3.978484490850557 7.334267247488819 12.35170585797662 -0.4310780979997285 0.18000344654225772 0.2636044084933654
Ni 6.404735233628801 1.3974220039930032 2.5103621528812314 -0.04545504700900559 -0.21383736437256723 1.1784697619610802
Ni 4.755952028212707 8.57876108551019 3.2076857388081756 0.1621543341759788 0.3288533502998466 1.2596942532602111
Ni 5.819502921480453 1.4473138533817296 6.940335722049143 -0.849725426435272 0.28700247570233156 0.7061961635596483
Ni 1.786817322058238 5.978476913768434 7.86283050433516 -0.04040154374549817 -0.48975889967038877 -0.23518497681040784
Ni 6.417286295556059 6.9005021797554145 9.154293429813295 -0.20669458268019886 0.6289064885385491 0.00731298872164547
Ni 0.18053682693723888 7.544152977799441 7.018064099413577 -0.9386506288127704 0.2699136385408448 0.7436414528902999
Ni 8.598644319778552 5.89797921717642 3.8042994568198423 -2.1521588704352226 -0.3249110778226469 -1.5439896144440248
Ni 3.609992295687597 4.914834138641779 6.307990986744128 -2.715701745966297 -0.8492942524351244 -0.032476889581782784
Ni 5.827469078648044 8.317403137837571 10.877136169967503 -0.037128529421181215 -0.576609993127678 0.46087872630092885
Ni 7.826193531912948 2.305959013091835 10.445420067687817 -0.9767417792575374 -0.33041349569811485 1.4537032700529415
Ni 1.7898953643317597 7.938767185450826 0.36914088108687215 0.15636832362182104 -1.682565389969115 -0.34218323463953326
Ni 1.0716273086660308 0.1348200892174328 11.616431389045037 1.214294227858857 0.11742973757509453 -1.8274658221606528
Ni 0.2756419014589385 2.457141423744156 6.13446015154886 -0.7848384959539 -0.4997599767471587 -2.0904446812548767
Ni 8.21101313340441 2.6563872347928723 12.807641099446684 1.4948077534027353 -1.374791486047387 1.3375858235313673
Ni 7.776604892658628 0.16864639557555364 0.8361552371044353 -1.2041100882370037 0.3272592663398493 -0.6557315791511932
Ni 1.582453691468173 3.57051984909939 12.363781890693307 0.5859639235387522 -0.12057573940324395 1.5032396862201725
Ni 5.079762075387199 5.296934037109471 13.323379486426212 -0.4265051339170655 0.39062950306637884 0.2989786742276012
Ni 8.91834724785972 4.2428929162390245 1.6120056537497496 1.3770206324882222 0.3657232267430024 -1.0513659916313312
Ni 5.126493188829384 3.546887834987455 10.287435643020306 -1.1353513335050511 1.4697037592462558 0.10629274712166854
Ni 7.435355668662809 7.548655188886085 12.678891644647507 -0.5752231400824803 -0.33011447640045727 -0.015055351671225686
P 0.3429343372882487 6.320543886308562 1.7780324975277477 0.4852859515006998 0.9654569503723373 -0.18711948876174872
P 2.0834395271809365 6.9230683643039805 5.853320039652682 0.32244590411160595 0.3511540706795759 -0.8103281555845723
P 2.63293898439876 4.365904348949203 8.941468398836108 0.5580245168160067 -0.5240928970655684 0.9091109674824408
P 6.1071758335452095 7.9255821386970835 1.081132486970384 -0.5708478938329201 -0.5576169969649429 -0.4294017387385701
P 6.604706911362916 2.7243063048999563 0.8950414016619692 0.6948498853088936 0.21258935089807904 -1.3136349691427247
P 8.224611648523252 0.3812003750689538 12.123186486678827 -0.6059653063613435 0.4562620534645239 -0.7745705383689886
P 5.9037585861019295 7.652160102949437 5.100522781408163 -0.9817253485150575 -0.2849669333295415 -0.6621408251116467
P 2.009116291507749 3.4272117137557494 4.825259433207937 0.8446572678837454 0.36878875304220354 0.15120657691522346
Ni 7.215252675641273 4.730464000550768 12.516818477258452 0.7172128263851261 -1.3654205863554483 1.5096000812205614
Ni 2.531455471231452 3.9058610695672247 2.5149341941806473 -0.7286745471678225 -0.6205442326167829 -0.019870770781998035
Ni 7.08209748570731 2.090560371246547 5.0953461574771115 1.4908410554455034 -0.46029714276584593 -0.8723830159337878
Ni 1.711612020539504 2.6417504546683346 7.714325531051508 0.9314960200458603 1.1294480806467389 1.5892070915209275
Ni 1.1117521164525075 1.3080852725737422 3.9011374232006055 -0.04766850972055661 1.7646398879733673 0.3613348678673196
Ni 2.939659005815788 1.6449792964571754 12.999165159072511 0.13658985544331317 -0.43676280708933174 -0.1969732416273769
Ni 8.940270259395907 1.9188791178711595 1.9516579710376938 -0.9488774487471013 1.2152151970112297 1.223551741901383
Ni 0.0847775535800922 5.83828357344188 12.949771309359084 1.5499118934657308 0.492392480638494 0.2980793023417834
Ni 6.885075215644242 3.9528770167720344 2.6897559694936164 -1.1829077431277757 -0.501950299530258 -0.7491356432356518
Ni 4.224534920828587 3.198628025156719 7.983793890410209 -0.8075040558722159 -0.07890098537227702 0.5747222891866618
Ni 3.201623373757221 8.511191166466968 10.22757920603267 0.5799627116499947 1.0143246226073175 -0.10853989128463243
Ni 4.240228342330603 3.853120882552255 4.165777390873529 0.029322917333833368 0.7111974734289817 -0.25924587441435354
Ni 0.5344841238345718 5.245994734529158 5.85283582225622 0.5614507688887364 -0.5632127458851655 0.23693846916640482
Ni 7.257674529900528 6.014191392327179 1.2901361514354592 0.3163045671005585 0.3639558504299345 -0.3052747916489581
Ni 7.407781922803588 6.287953390952795 5.9727094894845845 -0.3779981874556135 -0.8111997595562481 0.38460772235233115
Ni 1.1517574778223996 2.704211742356099 10.287139783434613 -0.2581999496483424 -1.491022318218374 -0.35721364661009447
Ni 9.337126384404723 3.612004508397751 3.9579810540345455 -1.352995216107902 -0.23745937466688133 -0.6188779006579536
Ni 1.128189781011703 7.710789917120609 9.435070608366775 -1.0881618203034422 0.4576980145801021 0.8240897281450389
Ni 3.977446225844862 1.7627167104658568 3.073503309691586 -1.2390950889526209 -0.5269946440933957 -0.6739049076261104
Ni 5.923696949485637 2.3237014000475673 12.106040412987428 0.0833443658556113 -1.2262984514085848 1.2003848168666165
Ni 4.761510880676829 0.4935066523974002 0.7732078943830311 0.09407640756113475 -0.4692366113473209 -0.5186961515300292
Ni 3.895019010215716 7.1690269124231 1.496286884181345 1.0857892063062073 -0.12393771389694137 -0.5288517519067925
Ni 7.891135629791313 3.8423339523160918 7.001119246993191 -0.7692234151244624 1.0034156890042976 0.7740684019215894
Ni 6.57344870296136 8.418252666178393 7.048886787803894 0.8576038007420843 -0.02600953668988424 0.3063770235742014
P 4.4428737821590305 5.258472290969286 2.4557769781393257 -1.9246044135868787 -1.2190790508420102 -1.4761070916694383
P 8.191166651879612 0.6575672243947008 3.650792435137071 0.38297815716870814 1.0151895417107741 0.8060603814471538
P 4.737410269084447 8.276286005974855 8.403863967072914 0.03976185327897023 1.4775335397033198 1.0935151141955555
P 8.625225741561533 0.5383716452851004 6.673624737276364 -0.8451959139960348 -1.1916044995708253 -0.2656137256139103
P 9.093152484438082 4.2629691024111 11.313115590500665 -1.0236435860153985 0.14972819259748407 -0.6113252851216762
P 4.158719945290568 3.536477620372828 12.250429997810452 -1.9151304126581727 0.7432488454375715 0.26085307100047334
P 2.9111388768097832 -0.09471825189568393 1.90425428238828 -0.7934018121428787 0.3261310662726771 1.022101438339259
P 8.06224721564145 5.911945259730908 8.249953584029523 1.3974542177522256 -0.132038745737521 -1.1964425443894169
