# total energy = -381162.192643166 ev
CRYSTAL
PRIMVEC
9.31642618920185 0.00000000000000 0.00000000000000

0.00000000000000 9.31642618920185 0.00000000000000

0.00000000000000 0.00000000000000 13.63553144668548

PRIMCOORD
 96 1
Ni 4.2266575904130335 6.584850014556429 7.697993382509496 0.3362920659660789 0.5745366555384169 4.127320428144363
Ni 8.794575871308808 5.7109412908503785 3.4838235297301816 0.18673870838356227 2.088704044414687 -0.24036317857723768
Ni 3.9369633187624498 3.9833125389413095 6.928322424611123 0.9409270835517731 0.6168449293883247 -0.8559225563849194
Ni 1.3648378005553023 5.4124150471938535 1.0508015706166136 0.22043352953284617 0.5403903486740113 -0.14069179342682867
Ni 3.8230141103187036 1.4582629221540175 6.837564595823907 1.8218145374121466 0.24731312753250956 -0.06015147267891576
Ni 7.691296735380941 8.19164471908463 11.144974173321224 -0.130195264770879 -1.0835135228981534 0.20547253734763965
Ni 2.1155461046341686 9.369622960016336 6.2911068240938395 -0.2369094157006823 -0.6800778692060416 -0.8019864684880963
Ni 2.8690027544321826 9.224575521028463 8.684319694197503 0.13475794444089695 -0.0027328255501307772 -0.13517857691808333
Ni 7.813872954454964 3.7996950956236915 4.160186752999539 0.23243081110403843 0.3883851871168924 0.7710512123618205
Ni 5.268308567248807 9.20915683572273 8.448670942382012 -0.001890017933861261 -0.03251365635698916 -3.4691095342147413
Ni 5.220794793799122 6.436867901326075 5.881359221575151 1.0326475892862217 0.2133406272418068 -2.7721114922145933
Ni 5.9371813838802145 2.943086975309026 7.846757143895229 -2.6779895761275037 2.3697515880851636 1.1694572740498248
Ni 0.7784992033338488 5.187637633072174 5.489732999593125 -1.6562090114627734 -0.8240884425934581 -1.459428859682809
Ni 1.2693257994952678 1.8582357303387043 12.39573419875168 -0.7308707834881929 -0.11982831971425814 0.4115824511689621
Ni 9.048904989230957 0.450517215066369 5.023929392472591 0.27417061404498594 0.28636612766991326 -3.4455078356354014
Ni 4.775730482968067 6.085759748385231 12.168703141140297 0.03980967579777015 0.3774384582974016 0.3532685459194174
Ni -0.15601566751381765 5.682116268290902 7.4529499465476015 -0.07215261090484994 1.273895741571574 1.6036536059635609
Ni 2.958533609893257 1.2410690789319547 1.3108845133392593 -0.09631506708366637 0.9052468565413442 -0.9755942959166553
Ni 6.7680389022703835 1.8308733866873854 4.132683731313104 -0.5037444153162033 -2.712426160538819 0.48134522168539684
Ni 2.0278505851279154 4.81397441238198 8.038254420464561 -0.6259576903228704 -1.5540817085727041 1.645051195073741
Ni 3.248209248691507 7.646531307650404 10.53040773645757 0.18723673106590333 3.3300329077938327 0.33666976102047175
Ni 2.2371813646653638 9.141547531031678 13.21419341719933 0.7786197687376978 -0.6036857662985474 0.7268115258171547
Ni 7.316375797158256 8.350359355258913 4.107431558188522 -0.9814029321786324 1.0391612220350233 -0.3950659415711777
Ni 1.261649064333985 1.5976366576064287 9.983676993440824 0.31453256280180025 -2.7526266440171043 -1.4486667360702985
P 7.577906512507192 5.981993393741584 5.534635378788311 0.22262668052942303 -1.613027590979293 -0.6049222098088097
Ni 7.499601950576876 4.366795272811106 9.884846481380244 -0.2965698076757925 -0.6892263684745291 -1.021955142569382
P 7.329595805888667 2.624083226938304 11.917509000623209 -0.6205537456984797 -1.2413296347100944 -1.5513895064525218
Ni 7.901484626125717 3.267335871611547 0.3822082467702043 -0.3090987933807386 -2.4393793756856312 2.2631636783205797
P 5.648129945635127 3.3830179353222816 5.417042516070806 -0.17739300550260417 -0.9698144560100848 0.6681947446152106
P 5.014175094276156 4.633170529766676 8.897661195199676 0.26648687224748296 0.3336111766998061 0.1420133404517296
P -0.0302057169173668 7.240204696820092 12.326315644099072 -0.1813563610257264 -1.2099236095949872 0.6335660987977475
Ni 3.3555251617046307 0.6733297949095114 11.088087143505316 0.33047185973987603 0.05462514354404786 -0.7113409409853814
Ni 3.94494749598723 3.8396718803045937 11.474954535001439 0.30056735887095976 -0.13395318915141444 -0.41062445813106696
Ni 5.833377763531901 -0.07655959530931009 10.405451170497981 -0.3126844538494679 0.21335656808140677 2.7032514360180864
Ni 6.997726072981864 7.437424122340955 2.0861276257278796 1.4953402288674376 0.5922189033095284 0.12957511468837685
Ni 6.566887944907215 7.792137732208274 13.57745764300236 0.1348178511445549 -0.09630066890596319 -2.2374117661674564
Ni 3.242572810860711 6.990282248474747 0.3219020885511534 1.1969475090502935 0.061101238186694766 -0.6806761649116728
Ni 5.646397090368138 6.187224945765727 3.56260975089331 1.1611814071942776 -0.048270919191245897 -0.19062981590785233
Ni 5.296118099356122 8.977131242043432 5.87880931573335 0.3104239399500654 -0.3463749041233777 0.5875096707593173
Ni 8.45456358193239 9.34661138738482 13.01943725475692 0.8841524977648901 -0.35606667748984483 -0.18606199403151183
Ni 7.63498825562998 1.883809320166035 8.801258543798113 1.231831208301356 -0.27253899197883386 -0.43021497866848485
Ni 0.38047445986059913 5.594141255999651 10.433827141316227 0.31510540458613473 0.47048488193212523 0.13768694516223384
Ni 2.4740887656559627 6.285727519625241 6.456846977240359 0.9287053446746005 0.7208506802480295 -3.1467363923226
Ni 7.88446351551933 3.877869227587674 7.001135884958841 -1.5205930898969553 0.6103768051654778 0.460479176869665
Ni 8.842685896033156 3.979697765588667 12.089384952043055 1.9485771223523927 0.4515649050991707 -1.2552498443356124
Ni 8.068313869491114 6.8814663908488 9.281733658845816 -0.6175481261029365 -0.544724714383307 -0.28457741120060664
Ni 3.9866385030827876 7.932070453230682 4.413207844687898 -1.1184838683257512 -0.24051770187723095 -1.3457693877834243
Ni 5.596973449554299 2.2586184612747218 10.210340052218623 0.17995870934725136 0.8117309494693696 0.9008027047270616
Ni 5.551742200515432 6.955401548906977 9.879419663138197 0.771837969929174 -0.9820503359546443 -0.13596379182354004
Ni 2.8240230488998135 8.255834895372539 2.064269426655791 -1.018981918873671 1.3727628856531324 0.9164764067085763
Ni 7.691613493870606 7.915869188126955 6.224006196271484 -1.574298292729895 0.7693897654989975 2.291074545798235
Ni 6.344830927226184 0.8260008654295178 12.602503892735928 -0.6130029299344152 0.7740092665488799 -0.5852535277352888
Ni 2.203129827026422 6.331098515056608 12.159430502176678 -1.9252351051923426 0.06623573119978271 -1.0173441261599316
Ni 6.7667625518855585 0.9977333438863981 1.4959264382177517 2.253272901569429 -0.38034997551724176 0.15194036975745442
Ni 5.737521054703702 5.870009951218993 1.0780185780197336 -1.4081577202126587 -1.3277845211702293 -0.9738377182368649
Ni 3.1540667622779632 2.9867623811780706 2.915862514764973 1.1266628045921177 0.15214220135561538 -0.4532322654992646
P 5.485381296930704 9.25392226345327 2.8762788832683013 -0.15646396865942086 -0.6298858217326829 1.3644883043491662
Ni 0.3858677389684468 7.573453260799554 0.9377588504388783 -0.12143500207974571 0.7251112552965964 -0.971738669615991
P 0.8015070493948966 2.4079328234469 3.9980874591989286 0.12941853450585453 0.46899801297395355 0.36176167099209305
Ni 7.149080732484529 5.756275020577078 11.679978330722065 0.27324296002439397 1.20138343333446 0.24803226508672122
P 1.987594307662015 6.490698211716719 4.097285970093089 -0.4407058508974797 1.285281357700696 -0.12711919694871654
P -0.026594670135190696 0.854020948768199 1.023806294156259 1.5373312285872427 -0.019163203192012156 -0.5290396995478824
P 0.16580723141491954 3.8383862134936018 8.90012911649121 -0.4680035102711682 -0.2119164932007705 -0.2455179833052997
Ni 5.943050732365176 3.8831889069288055 12.960013362095845 -0.580944873057606 0.8457399594249628 -0.517168144921277
Ni 5.471332126271463 3.6592313383097874 3.253533586245722 0.08623017204383858 0.8781335452643199 -0.18279283636193683
Ni -0.08256589525892033 2.5471202303759792 6.101777479893475 1.7019005999626173 -1.100868212126517 -1.2582593205858976
Ni 3.361823065793255 2.720424389927166 8.936031828009455 1.5933360260876364 0.6233822162862104 1.5642460507002158
Ni 2.2174584904706607 3.4651794976855714 5.324879770217666 0.35141169521633675 -1.5407549095568112 0.294405453034622
Ni 1.0950620480489208 8.765052116786837 11.297801759800828 -0.2731519429724844 -0.11204918998947154 -0.9106086350738897
Ni 0.5566173344647503 7.588294327682956 6.085878998640164 0.8041906752282666 0.3736429958107113 -0.863061995643178
Ni 1.689710897410986 3.5125814740212578 10.580586007790908 0.4561720648538789 2.681842631325007 0.5200596075364592
Ni 0.2953446841206291 7.977553245776047 3.240307056016993 1.0188021987626972 0.2840678185540398 0.6953702765887378
Ni 1.7880364591733355 1.8748376017675945 7.686757772552571 -2.2774376717410902 0.5570079026260343 -0.860826164334124
Ni 1.9701446414519637 4.164945583485442 12.825472056896052 0.7588891230779897 -0.8303508785634022 0.8340478677990152
Ni 0.5256392858181719 8.577167750284913 8.851545817317596 1.9564848072352434 -1.0420922796388892 1.3799450052238686
Ni 8.545529167023123 0.9949477324625833 10.690529152983013 -0.8902125879160411 0.3581541561464929 1.2353078539960467
Ni 4.4452023154292535 1.4789919703747139 4.415334784781734 -0.37077261624145175 -0.21300458405862668 -0.10749756606304713
Ni 6.621985289256517 5.916331222119353 7.574851656367161 0.12027234923021222 -0.2004354891443645 1.546531664139588
Ni 8.281864990082033 5.457255006333724 0.2706533598512758 0.2981566925469381 2.2209798458636785 0.24925122509548686
Ni 3.594593973565882 6.164707143721043 2.361959986885171 -0.3523036109029868 -1.7216284174088479 0.5767436904920648
Ni 0.8995158526675814 2.9813774868537726 1.3477561331788321 0.48646685918267835 -0.7029074655060474 -0.4809351307311718
Ni 4.972838111374929 9.37307003769798 0.6900229673148341 -2.9414461461890955 -0.9894648832511604 0.19231157448564948
Ni 9.032116789278735 0.3416463905260394 7.095535504734583 -0.21951487437331874 1.5011486080190986 1.799547755594146
Ni 1.6040556752352195 4.535627547802322 3.1481443101638527 -0.967577853370082 0.2330936414990179 0.6400895017385622
Ni 5.144446681363793 2.503621836604101 1.155244297799956 -1.2460812904624667 0.9688865448791765 -0.2307058579931317
Ni 3.461536775054429 5.66173192783837 10.067549051648301 -0.4263138438418658 -3.3189488820655297 -1.2399888044114837
Ni 2.2862509812848724 0.9023331399403627 3.304488847521351 -1.2605038936457003 -0.7986553472323342 2.8423486312642856
Ni 8.562009924911846 1.7343272623228574 2.6725780200633324 0.7474726537109321 1.0747386049190006 1.8479459443918755
P 2.018795018893975 7.014346577263088 8.35551320221428 0.03240926956864096 0.7616078075607335 1.1601833049470667
Ni 3.731601336771975 5.143859746515297 4.463155068652301 0.14986497528566448 -0.6654313229374604 0.8563894687190089
P 4.3723758120849014 8.324785765431583 12.468302637091215 0.13099976295004537 0.16000180660935026 -0.7278273686761788
Ni 3.6788051496858243 2.0026123866425825 12.883477057851952 0.5181289661726497 0.37098113270783206 0.45864546609503587
P 7.794802230091923 8.922425187593129 8.72046742772393 -2.530452734754384 0.7749664882558266 0.42891734290298383
P 7.314102589173603 4.917172465029465 2.1741445619368807 -0.17881096889605333 -0.6778934599602132 0.2828198050795516
P 4.045080444425901 4.509858313025492 13.989510129354667 -0.9588553858954195 -0.1313867139758189 -0.3840387372227386
Ni 6.638363566457408 1.4080753343945163 6.638526603915324 1.3580219798985322 -1.8909733557959951 -2.1367111684215843
