# total energy = -381173.6296016824 ev
CRYSTAL
PRIMVEC
9.22439325539938 0.00000000000000 0.00000000000000

0.00000000000000 9.22439325539938 0.00000000000000

0.00000000000000 0.00000000000000 13.50083194524026

PRIMCOORD
 96 1
Ni 6.352138580183675 6.303507578948272 7.559183645293115 0.7789776662977487 -0.3524501637831801 0.4161495017143543
Ni 4.552607046608673 2.1152825146614687 5.682702223192747 0.08711334597974028 0.48410941469409524 0.4501790804952376
Ni 0.21382328050775698 1.4699993089669698 4.297355171118284 -0.9004460927185912 1.1632285195312935 0.7185266601005432
Ni 7.063616031869309 4.805189382691339 12.974245632855268 0.8878955097470901 0.24450342599785632 -1.416648017071857
Ni 7.11408268736227 3.1451030019379593 7.762127676397034 -0.5494380606985764 -0.6815086881152973 -0.7483072337970854
Ni 4.3561182459039465 6.275613013747996 3.181781956834077 0.6227800639258371 0.5754581389114218 -1.1829540229846789
Ni 0.2821317574327206 3.3587122765222217 8.947676215467213 2.169663454977889 -0.8091035391488518 0.16848207616621952
Ni 6.719481592740099 8.043458756495303 1.676411711934415 2.323981838049217 0.2853775385043989 -1.8301186864024672
Ni 2.3507720500443616 5.328673699859232 4.038180161176942 -0.5250156659901539 0.02760670597367503 0.48717956897898684
Ni 1.5457500263693087 4.148071280451881 1.1122957873610388 0.881210641527747 -0.49107684715086397 -0.24892623765590036
Ni 4.551011226575722 8.151448728320581 7.341266579059207 -0.5255864508919593 0.5830328659348862 0.34327852458624103
Ni 2.4032127256936913 1.343246921262934 4.8616897138117805 0.9680915597817069 -0.25453664186414227 0.38997387176025095
Ni 7.386783425132039 0.12691934922193418 3.6447524093766877 1.6032082908960261 1.6336686642684124 -1.6019510214501573
Ni 1.8202679696101285 6.7692102967727354 2.169746099751414 0.06770408821519308 -0.5403394408314178 -0.6912099745634612
Ni 6.745116181593132 0.7044844391597297 13.404503619601005 0.7179733587002345 -0.3822065691100063 -0.25151765253216035
Ni 0.39985899877698416 8.525912972469138 8.574472945876485 -0.1600568282170018 1.0195128516764764 1.2360668436492583
Ni 8.209313347203297 4.443547045165925 10.34312213327622 -1.3274721321361334 1.048290438029801 0.6787511799748182
Ni 6.065887208723692 4.404140437184581 5.921087295618088 -0.5644623020215503 -0.03743937579338068 0.7253948479752863
Ni 5.118505123958735 -0.029112185109812727 4.7611087746481635 -0.6201351701038222 1.021091766127822 0.38186898326492946
Ni 2.330893482581863 4.627951890707834 8.299015036963077 -0.3974429264437865 0.7185747397296592 1.8346996209049307
Ni 7.534004741466834 2.64487338016355 11.80175237755756 0.5205437462617293 -0.5957503135015546 0.439380704328153
Ni 0.3994826435322185 6.183479773926447 9.155683516028285 1.0988015594054754 -0.15004315273474159 0.30617030688003394
Ni 3.9965513968606947 4.129336537752885 1.8072892483016663 -0.5961681177652636 -0.5360197304101414 1.0351569859716365
Ni 5.0068899655846115 2.0244960362550124 11.979247230112854 -0.285603795582592 0.07590462174811445 0.11236774967115486
P 0.6052078292022365 1.5167208607987825 -0.08814461217849381 0.26595054012803876 -0.08544675691059478 -0.14415044139939046
Ni 2.8206349692264054 1.820221847643858 0.9127371085813599 -0.053054456622818304 0.9598887122559404 -0.12782625031807018
P 4.156631517391649 2.0408877830674768 3.4733991578499475 0.5033854893148879 -0.6853997956395873 -0.4973194856264661
Ni 4.432726831878913 4.156087278189659 4.194154504270513 -0.8364726751904239 -0.9860324605308438 0.10108446344785171
P 6.283241586969103 4.977750107295036 3.680596556683313 1.6710795008167028 0.9834886110630675 -0.5341849911942478
P 6.416847698860905 2.868804750799106 0.11142052367646292 -1.03359272680831 -0.6154573050121788 0.9661015259348715
P 8.532868164982698 7.133952030431514 7.395174855675257 -1.220905819638104 -1.6492858019803789 -0.18531534567347438
Ni 7.043027186126247 0.5645743769181031 10.704256206733337 0.36670410259903297 0.49509805249511507 0.9148111031910116
Ni -0.07343078249894304 5.773289454704915 0.7215477218010895 -0.15568158196744156 0.16484987873027093 0.08746430156125581
Ni 8.706185289833229 8.66590236449275 12.082421146220188 0.5094005851607162 0.4639589078881493 -0.32206383818183887
Ni 4.488469840313196 5.482794862348064 8.734957094831966 0.38001650343722293 0.4725723605887732 -0.056704908891212026
Ni 2.6487107277572393 6.356935264675786 10.30197211496986 0.5102171675247407 -0.3654370629611513 0.5726880323654523
Ni 3.5000299811744178 1.2873102005703154 7.8845667378154705 -0.7477742441117509 -0.22578733764559178 -1.113614713158908
Ni 0.2948715669559026 4.009640810888206 12.470219250817488 -0.6957675120271565 -0.7162144670275987 -0.09261884917900179
Ni 5.118560470318259 1.1860448114272468 9.55841314598593 -1.5460778644316213 -1.0512070974559637 -0.15760142469797372
Ni 6.2259673292546465 2.9461143906613807 9.909218666316479 1.2909611816942927 0.9868500713361326 -0.006756601997543203
Ni 8.192488053907892 6.288204310539787 2.8023005651946367 -0.49146302684568904 -0.39428124088635325 0.14530589516007233
Ni 7.592496619090826 7.212728348821185 9.848964929580958 0.7427243403926693 -1.0356107856796035 0.2077209670621842
Ni 2.4942113651449915 7.146045209987586 8.067637736092843 -0.14471197032981528 -0.7931539577981308 0.17254467627136738
Ni 8.642287917762356 1.7004615500263998 2.043728896189727 0.16990081089061707 -0.022053894476245887 -0.9615977245272472
Ni 7.712035531270188 5.981373317729996 5.294877367855008 0.8507700656497025 0.18947590480906723 0.3603833025873277
Ni 4.144243157251446 4.05354892277753 10.698329534067602 0.14817216096427385 1.2825886413598815 0.6529704714662883
Ni 3.222218929541899 8.8633505020959 9.483403147361894 -0.255545799854947 0.05091015658630586 0.28196388483715956
Ni 6.471566799643988 7.528230271289792 3.997987634890352 -1.187545241899787 -3.017376478968823 -0.14211618457818104
Ni -0.009404268922513967 8.59324181883052 0.8875545149977767 -0.03138751317234595 0.12689859629747824 1.0640551570632253
Ni 5.900696774329989 5.909044850224912 1.137246848673945 -0.4678243043808265 0.20313720434624372 0.5564147491267256
Ni 4.3839297915649365 9.106210327688785 0.03632381575583668 0.2638689750086617 -0.3722054920332364 0.047575435786118066
Ni 8.814857866759306 8.759825136605587 6.042810544120011 1.3154499108642763 -1.2971007189331274 -1.3528072684668122
Ni 3.5370474713029596 4.681914591244084 6.337749449146667 -0.6493552433112043 0.5530152365268735 -0.6928750209707101
Ni 4.548290030565774 4.238488783128175 13.163554165851036 0.23666798911383755 -0.061146232492017276 -1.0645143560878312
Ni 1.8661039796895518 -0.08845824154913186 6.801692152738257 0.4145086236768216 0.2669285877705919 -0.6472302265484015
Ni 9.289517470433463 6.264608312595903 11.673655995756409 -0.7752963607914196 1.0388863711070817 -0.677881118665039
P 5.6347482924221906 1.0958671429755584 7.380972057381982 0.42539158913791253 0.2114372395715068 -1.0771592985453513
Ni 6.649818974885439 8.216416130008923 6.277994752086194 -0.31164624239294064 -0.1543060417761536 -0.3118542446386887
P 2.6695947540844305 7.217727969964884 5.932022813820776 1.152634803175847 0.8056587751333608 -1.1670630627860352
Ni 7.345900914230046 3.888441507923114 1.8956109688306382 -0.6499093160424614 0.3345136339094174 0.14051464441901607
P 7.705227929048691 6.94512870052091 13.175421347772385 0.18861715635319776 0.5031219512408561 1.425173280934049
P 4.512785340930898 -0.059131128076499534 11.288018244059208 0.2870577544202991 -1.0408823184911882 0.5488428503167386
P 1.2731415325320796 3.74097113297046 5.0529427489055045 -0.5152177060631256 -0.6094702341908084 0.14995804922010306
Ni 2.361444673039309 9.042266833651643 1.8669895214419412 -0.45219174004989215 0.28847391804153544 0.6979750612014366
Ni 1.568294443482231 8.433198595872582 10.936227558529131 -1.2235699967338283 -0.45497058834660997 0.21606291126897625
Ni 2.389127077194742 3.10486619856375 12.248548778968503 0.478804200431098 2.1596657203352287 0.8048635329255751
Ni 6.848752239802494 8.969431024517586 8.564684942194603 0.23313915002497268 -0.38908247029423315 -1.5074033306795587
Ni 6.489342205444561 7.88688390540089 11.796918795492433 -1.8105595333236173 0.09687762445535573 0.4757602713984516
Ni 0.5723800584896884 7.056430229524395 4.420510045453236 0.3924107633365177 0.7263297010847297 -0.6474384859044657
Ni 2.652363587485847 0.9584698054563375 12.164425079809455 -0.2769263224132521 -1.6141426784203428 -0.3264732801034442
Ni 6.439770316097244 2.6635712252895294 4.075901472510768 -0.29304765345514694 0.7648669379279794 -1.42288859866493
Ni 1.9717509556282984 5.808867939485824 12.7074558862827 2.1007221519214854 -1.0086687098731209 0.7594521946703114
Ni 5.254518802489845 7.636552321272216 9.651879310632694 -0.786322279588278 -0.6543537249670601 0.9219294594033478
Ni 2.1479922131403653 8.059094103060934 13.25541344119294 0.11509877544907274 -0.15703758177470373 -0.19380281431919527
Ni 1.1852699623939058 5.809135446890192 6.30818250144943 -0.711716064936613 -1.394705708472811 0.5469934558128257
Ni 8.95007824747057 1.5679531409318306 6.900018650190582 2.091403959844353 1.5090868890295688 0.1802901245447411
Ni 8.205761955800485 3.471775664637233 5.4744661576789735 1.4464291049890314 0.16114928995023214 0.07412516125018848
Ni 0.173043160370884 4.0778183014289615 3.0873970426192114 -0.6450095647479988 0.5179245634713273 0.5573411175957369
Ni 4.611347982850527 3.275351434685283 7.755661376725938 0.6941256055483593 0.4279714340499468 1.2933875317475982
Ni 4.785338488408602 6.634082159994013 5.543333632835132 -0.12367700403638701 -0.23194924348192958 0.03655234520273704
Ni 2.156008210878143 2.9344732063747574 3.08901776851395 0.796413602386009 -0.24791476567225046 -0.18226010378691837
Ni 4.809155871790585 8.565651658607628 2.4561662776079474 -1.5002952588798677 0.7565247366108713 -0.20026399656350669
Ni 8.678484436891287 4.786805166935998 7.564610355844478 -1.2543558717664334 1.7168739334429979 -1.7473494763240356
Ni 3.1246340733072 8.31790290459009 3.9913995732283025 -1.570578934896779 -1.0375301141895035 1.1453431546104405
Ni 1.8987675562021773 2.844415455035372 7.018677555253505 -0.1870726946842133 -0.5571477706380082 -1.3252535272182595
Ni 4.411289341956477 6.62725610898601 12.14251345607376 -0.3450821534538831 -0.1259251766406154 0.362433243137821
Ni 0.3500002307994656 1.629535190295934 10.81446372269689 1.12173682804541 -0.4004997109922393 1.7843378806229269
Ni 2.76422780447783 2.404679404221087 10.052017808525274 -0.5864796868329061 -0.802851901812185 -1.038682739736708
P 3.711849723467393 6.165224699676662 0.9885293357533422 -0.7038870558104975 0.26209337116547765 -1.1141878120535587
Ni 5.899728213038313 1.4975433472235922 2.0199133576863955 -0.48432795846280463 0.43112000698125746 -0.141316314384705
P 1.515835319046393 4.504059064912557 10.504848808003024 -0.09604767235489266 -0.3764552684485259 0.6874957589366676
Ni 7.213032753798569 1.2215126034891068 5.572549131149391 -1.5234891804978279 0.4200691484837346 1.7033648432129695
P 6.050288759731076 4.991706614288429 10.31790264211962 -0.060849270076888756 1.9330975386595546 -0.004790222299791751
P 1.3309877026282886 1.3523790705844532 8.74778269121241 -0.11482083919733774 -0.6367110721846325 -0.5255044327011144
P 0.3833602490027729 8.879520863470267 3.2665937957298787 0.27392353103118633 -0.6168783537294215 -1.293638728526456
Ni 8.251210541363237 1.4886694809131868 8.996603319726072 -1.194267134004653 -0.43060912878311003 0.6092344640309185
