# total energy = -340893.1869178341 ev
CRYSTAL
PRIMVEC
9.07587660665471 0.00000000000000 0.00000000000000

0.00000000000000 9.07587660665471 0.00000000000000

0.00000000000000 0.00000000000000 13.28346281750900

PRIMCOORD
 96 1
Ni 6.557456906126044 2.098660301430497 11.620506308549484 -0.5413668536546676 -0.1226346788148017 -0.6205725147515571
Ni 4.596867913821163 0.3626593185319725 5.779541749595539 -0.0002576245367608467 -0.9497670504409061 0.7992096770739074
Ni 2.5378601167993846 1.335124963619418 4.393810606225017 1.0768445955184098 0.909491233639995 1.5989379456554462
Ni 3.334858211249269 4.325181550929205 4.875389319301862 0.8399475211129017 -0.7041914744247937 -0.2935922131047073
Ni 5.099553485275879 4.489999468086979 2.7574473182567343 0.2831771884189704 0.433996300087788 -0.5034412822534878
Ni 7.248675660021201 6.1712148301082355 2.7480964427034493 -0.06753645228907725 -0.3108782538786646 -0.37155320316121815
Ni 5.36419696800735 4.6033753172684175 11.855901871686646 0.04820227073683957 -0.5667634393509013 -0.9163504226536735
Ni 5.673657128873463 8.118816243148096 12.215100558510896 -0.09917207691648726 -0.07718811644622836 1.7055785630348368
Ni 1.805790842798107 6.666458182836664 0.3342491023381961 0.7615221898254626 -0.653393675046636 -0.30519123079621635
Ni 2.8408673294772164 1.6629365467593757 0.4069904372741061 -0.11294496233086355 0.24971428077483443 0.2591358311990505
Ni 0.5025757533491194 9.071029977423544 4.565592443417767 0.18611007366062787 -0.6288648366673363 0.7963498390276091
Ni 8.371134685598715 2.285278473930395 1.3158741219848722 1.6815343776014398 0.8156115154706984 -0.13198629523303076
Ni 7.094712491152012 0.7257923978170087 4.970273070123775 -1.6775116295952917 -0.4460020662994125 -1.3486235694027677
Ni 0.825067965275081 7.436328482441583 2.388074573881061 -0.9288454697968906 -0.0006481751069601741 1.0908936174123085
Ni 7.6718474774990835 3.8535717805949874 4.073240664940797 0.07227242431216585 -0.2420410805002928 -1.131208772091587
Ni 7.79276538004826 3.9348281028589494 12.723511192858954 0.1203962764025862 0.38252487168137345 -0.2119450324458608
Ni 8.066757015570067 8.968499800654195 6.94205715608582 0.3079148003749665 -0.7154415934173162 0.2993519984066199
Ni 6.950233613220591 0.6780723467914658 0.3935717538755506 -0.27094207980535917 -0.1811642996195783 -0.6555017225285744
Ni 1.8638583006161378 6.605404761651622 9.30499881277562 0.9451979430129851 -0.6649186449671001 -0.3000449107085865
Ni 0.043618662437239046 5.183242142440626 1.3992669055758682 -0.7261684929165172 -2.0406807224578727 -0.7053453855235788
Ni 6.232631286353096 1.9767077489608382 7.191746317115702 0.7154595911394452 0.21845069477486248 -0.8905298620461438
Ni 3.386427341496542 4.298716295068409 0.2848654431510332 0.647577325475175 0.5060758916628575 0.6729183753431249
Ni 5.8707942422316135 5.5291691750655465 4.830756881460079 -0.5388554000867235 0.9775383070169037 -0.3553619381133364
Ni 5.4159566916610276 3.110139509221379 9.248796447577408 -0.07830628921107159 -0.6491703809939078 0.4542280537536307
P 0.17351623719103432 5.708508494616076 12.420595646533727 1.1696344230576372 -1.637723551064076 -1.1939359759174792
P 4.144598836298797 6.195365737462687 12.628694603523106 -0.4828881406924845 0.10055687307915585 1.0645845472041342
P 2.495130890258702 8.419400196801638 1.4456528027565767 0.6849704214116525 1.114331022499642 0.13209299601422414
P 6.415355907836436 7.817243018956548 5.845812892177826 -0.5777315083266308 -0.08297258433848935 -0.8784482482912613
P 4.66991964373322 1.2031980228812353 12.656709111501682 2.1216293343877974 -1.1185329763961318 0.7245520403590165
P 4.078009130451518 6.188123188019301 8.343954250670077 -0.7030522186140279 0.2797223971011505 -0.9983254189655838
P 4.793732750884449 1.0458041726967577 3.766499636672727 -0.04183956174360536 -0.6460457193219971 -1.1981435862409238
P 0.10523025002675157 5.4724540228453415 3.5759879131562715 0.2728696358453752 0.16388262972099518 1.0457144497725086
Ni 1.3837353581291667 1.1094623704359992 2.3560875547604194 -0.13215290271788208 -0.0925496865039632 0.07891281244681894
Ni 1.7735079501037128 6.133794991317404 4.776307975600793 -0.351944170681039 1.1165136319732578 0.47764231891251285
Ni 6.070635966785415 5.594960203781225 9.234411183332085 -0.5057174798821742 0.6274404455159839 0.7992469580697461
Ni 8.84976918434043 2.0832676148941762 10.255430952495008 -0.6117500313639206 1.234740411528351 -0.012983556743861513
Ni 2.25423897631588 4.861947038624418 7.095335096279601 1.2134933292241163 1.0714293380401096 0.41018299971827415
Ni 0.8456302710632226 -0.32345607000978066 8.912752136868408 -1.3925773492758984 0.651164271495485 0.029502894555123383
Ni 1.5433800256845216 1.2664841096841624 11.593221501041144 0.5153028095777641 -0.8615221619598838 0.5009303429061761
Ni 4.140478388369853 6.6969077484789725 1.531809190740444 -0.4411593934951305 0.5655861312133486 0.22134755670668332
Ni 5.730036473663336 7.948452965451588 7.914725193219114 -1.0956586429011195 0.36196016015614435 0.46796880037849087
Ni 5.3172928382787505 2.7902693180149596 4.948660685425107 -0.23467409861226032 0.2970704014612949 -0.1633316423135316
Ni 0.7212354002286322 7.116421987729181 6.7856970482341765 0.5005508480795702 1.238127325722713 -0.5373356210080874
Ni 4.945817213319076 4.452080456088897 7.145878652482884 0.16383403587124687 0.569284148890226 -0.0066565860845691814
Ni 8.027086359408358 7.226403459101312 8.926234351402432 0.0018427096356936005 0.25397408449245296 0.4401450932980032
Ni 4.64648573062191 0.45924298102148775 10.4307324145927 -0.4744798620241313 -1.204315005158958 0.30744017473139307
Ni 8.175930733934102 7.097598619877571 4.7679790437408975 0.15535068099058408 0.16211602473887562 0.4298131152443759
Ni 6.947801278319804 6.015354803051493 6.968065895358895 1.1013358957915549 -0.1369968610737447 0.01786659586777568
Ni 2.0794375950130872 5.440697530987685 2.5042249185071648 1.831779104824026 -1.618652393365238 0.045557634025140896
Ni 2.2568891322525584 5.494190747051997 11.548363073874626 -0.06397213197658659 -0.4805211831222047 -0.40106406813614154
Ni 1.013403293607922 3.1816301883762135 3.6943700158126123 -0.16113026378683862 0.9425304234831509 0.019963073385488198
Ni 3.7312108136830324 2.610966301970412 2.6391314694988113 -0.12261385287919528 -0.09873473226875254 -0.26423895675357073
Ni 1.1078740920492915 3.358745918185352 8.468367273257657 -0.681925978158374 -0.1320397741787855 0.056837063593702115
Ni 3.6758298153076616 2.489594605596464 7.033858739249871 -0.7465676253981595 -0.01535128564508969 -0.13446638134240713
Ni 3.897235822414704 6.665859174987962 6.060221398506859 0.08255555140572879 1.0017706972017069 0.34034926675458804
Ni 0.6772954517634533 7.68282021218211 11.436689859123737 0.7461883876818698 -0.5136287643094508 -0.2931389276173726
P 0.2554822929969422 5.632089614524201 8.12666324596608 -0.42799277420618553 -1.741401229160401 0.2738579679005735
P 8.716580696769377 1.4419934093536024 8.241192639050093 -0.8382757898374337 1.0321680785466418 -0.6323867337776656
P 1.9494165883389536 3.2441357498005297 10.598702383657352 -1.2363308959439225 1.3719267629050824 0.37383634276844
P 3.9106681196280024 6.1493147401246615 3.738205591698093 0.19656983554137114 -0.38251767259252184 0.38690885968168204
P 7.04191811757785 3.9777842263120187 10.50654139578408 -0.0674408072514774 0.1605039430567494 -0.3002796524272119
P 6.1786207453285416 7.814166296824583 10.150092699537959 0.7364883867852865 -0.4895838075451053 -0.4155769170403359
P 2.327299782104431 8.685232619354014 5.783499739335214 0.15288165062480122 -1.0897844435085295 0.7468265354865009
P 7.049478322698578 4.0948811848566 1.6590647778464074 0.0081586245513924 0.21009666638321237 0.0849667319503827
Ni 5.4218015561241115 2.987950983962838 0.5766966215123412 -0.43110226636944465 -0.03176803644021626 -0.6842780233303183
Ni 1.4790955924670925 1.2602762101612597 7.101298854724775 0.23726937014326233 -0.13337880470518318 -0.928224034162808
Ni 6.829560759336794 0.732671004612927 9.275695530334689 -0.35823231768259595 0.6160581718209712 -1.0220680139981624
Ni 2.6065463501171173 1.6341206388862517 9.414388537000246 0.6860256021490443 -1.0736060339764544 -1.3756844301753017
Ni 6.395180234387002 2.2138150224050475 2.585014740719259 -0.3259593165815031 -1.3066976185929429 1.5572413372476084
Ni 4.081312749495869 6.945795509614304 10.647983485440117 0.07295813752528081 0.4693780220211916 -1.4027612317874358
Ni 8.330792414576342 7.105875819241442 0.2876245096056567 -0.8054867683318709 2.336958452814543 1.158402816007876
Ni 7.6564366392097725 3.9051590625952515 8.25284243411968 0.6304416942361529 -0.2625245451656253 -0.12026437881041224
Ni 3.230812363105177 8.54160687381317 12.6238989103829 -0.2544178568980908 -0.8027665411872305 -0.971215193012353
Ni 0.07887844262214826 4.8782019334278095 10.269909698268233 -0.35530460251283974 -0.18649599624513688 0.3033053266274131
Ni 8.505276140201794 2.332237058917968 5.977106336736624 0.4383607477040708 -0.20740292160113313 0.3471783738612795
Ni 3.8794108009775967 2.5082727594241447 11.309154735021714 -0.16995300428479118 2.470899043560467 -0.06413051193132181
Ni 1.26893459633794 3.5708491518845356 12.757185417420105 -1.193405557335306 -0.1833188840687359 -0.2420495651407251
Ni 3.10486642497751 8.653730252038232 8.045620206799763 0.9153494921929849 -1.152360723578854 -0.7651569583645725
Ni 5.635429537074535 7.924002554172786 3.436631459918895 -0.4223129502125888 0.5602297519974416 0.8918768629923415
Ni 2.9044710719574853 8.142967150502546 3.6421528679835626 0.9702852249989162 -0.35336213407448824 -0.10928859652519887
Ni 3.4474626109285915 4.515030735461491 9.601047550944374 0.22083950672201322 -0.1604000704890334 -0.41911012700457495
Ni 7.355643940396835 6.448718829833792 11.47454715516165 -0.11752306861984922 -1.2089339919882083 -0.7613967199911919
Ni 0.7465543728880507 8.971149956590875 0.28379721248751616 -0.7435491502868098 0.9882230404242595 -0.30060386853585
Ni 4.686428663078482 0.08650943957954121 1.328251802349397 -0.139840758280443 0.48264594277469136 0.8443117116188685
Ni 6.176950784053375 5.777240107316287 0.6062122794632662 -0.3391092236998999 0.2691176250021107 -1.230951376799564
Ni 7.865490378406477 8.955330703859266 11.113489728831128 0.5092671449066455 0.0012405572753204442 1.0545994109669643
Ni 0.15029742235266796 4.606742467448237 6.000352379204479 -0.8580267472121159 0.8922910677116246 -0.08403727815757785
Ni 8.114142166752927 8.89887875205743 2.564571328913208 -1.006898762456892 -0.7549203682382288 -0.7226491669093489
P 8.511547570860165 1.5992238937611616 3.5387677436483407 -0.03421161288470237 1.8604659312357572 0.5552718937715341
P 1.8650290886840537 3.278506094088883 1.613967655128056 -0.3374984275693543 0.0863985793009028 -0.20702239833326283
P 4.690213303577094 1.0880523777831805 8.390419107976296 0.08786719342662931 0.3240968094514676 -0.8936491244014158
P 8.595871539379596 1.5865539701734823 12.416105810431416 0.14785180151037763 0.06357746764132922 1.0431050371741197
P 6.560615311146468 7.879440000580018 1.3434892913976453 -1.07305376101741 -0.8425422784232717 0.49724286675225976
P 1.7713751191272766 3.0697064794340507 5.818116947464244 0.02691173678917946 -0.21793081771565048 0.6320193231359179
P 6.822781079594676 3.982068040017882 6.0364571234911155 0.5702881646747082 -0.4537063769222057 1.400602276462904
P 2.415326708234015 8.572927723599044 10.316946335793668 0.5443624459478819 0.1868595502321427 1.0372938298089813
