# total energy = -340898.03452532366 ev
CRYSTAL
PRIMVEC
9.01890127837020 0.00000000000000 0.00000000000000
0.00000000000000 9.01890127837020 0.00000000000000
0.00000000000000 0.00000000000000 13.20007366541377
PRIMCOORD
 96 1
Ni 6.544276937602332 1.8719991762559505 11.42245891544905 -1.1836880729372259 0.37321696401688625 -0.4989809324892891
Ni 4.481509966467858 0.6076809258699928 6.0361295055418545 0.1315774898303863 -1.0623412596959125 0.28773652565487867
Ni 2.564506474003329 1.5417360389329242 4.7533333306973535 0.12720481468398737 -0.059217905121052856 -0.025769909875252395
Ni 3.4682995665038834 4.366861696399032 5.036434830682124 0.19908797397753455 0.05238545558025171 -1.4305548569609363
Ni 5.252680119119288 4.416041763790891 2.8258192109563764 -0.47860571126704665 0.0006247780681924725 -0.31485935001359966
Ni 7.151889319824392 6.104885097649288 2.6051402307660796 0.2780432096265147 -0.5430735519331292 -0.7817125487304085
Ni 5.04091632261079 4.410152421409287 11.528904495018537 -0.0881862673289449 0.2964456233931024 -0.33425266693854694
Ni 5.564093753260765 7.738352379098733 12.292013553917014 0.685361229092168 0.5511259899239606 0.9291486028596062
Ni 2.0221999542394475 6.408488363486832 0.36275012077290963 -1.1923989704476625 0.6850521824921815 -0.05689954140052136
Ni 2.656878058493961 1.5872183568968234 0.3494643776452832 0.1616167165049539 -0.3533562205372172 0.12340600976318748
Ni 0.4662492253713854 8.925997344150902 4.720200593932733 1.0414574742683678 -0.014206630517685209 0.5832285268854601
Ni 8.645698918610545 2.3165317898039626 1.3099160102832175 0.2534580640879828 0.3683102707438882 0.6241741160598864
Ni 6.795047481125277 0.702847467794099 4.7313416423921435 -0.18939311528727382 0.09417590925347652 0.10411193742026587
Ni 0.7864950693050597 7.472853970171257 2.5976292899768008 0.492992319006022 -0.1147881861871894 -0.34101055448767076
Ni 7.617408916101334 3.8118746017675633 3.8954211915868338 0.08164898043105939 -0.04307857635702903 -0.7693272876921782
Ni 7.593328450314379 3.8339077770175747 12.529166458753922 0.5246989060806834 -0.5209386677073028 0.5043571091995379
Ni 7.94364060465778 8.861782768719024 6.82112473160333 0.19448184266409085 0.030037684012670852 0.2469457168907618
Ni 6.83387385011885 0.7269198165701138 0.31062267651993636 -0.26941227342439406 -0.6358127287400792 0.19474563784843882
Ni 1.8301244187095727 6.406477148554064 9.23961609959759 -0.07289231728435187 0.22249735404041038 -0.35835290242086026
Ni 0.12763548757190174 4.966077481749311 1.190666296901844 -0.8393649091365544 -0.9110194973590634 1.3098950424843183
Ni 6.487115142786708 1.9927081478262116 6.90761148316288 0.14647626131908967 0.7041079135720518 0.315985750308559
Ni 3.3142026232694635 4.305650415014741 0.19298644453529915 0.6884591512912014 -0.95621280606625 1.6445300324629484
Ni 5.949209846732201 5.704788609544093 4.7699921428153615 -0.3606815505540369 -0.23189396476396193 0.3674072993136447
Ni 5.400968890081498 2.8714557521281248 9.276681979107414 -0.4709512800455825 0.02982171134712283 -0.1023252778334883
P 0.2001618822057489 5.629634107146082 12.384638569526977 0.7209789782957776 0.05271661366742533 -1.1512885735605978
P 4.009000721881968 6.206293620985809 12.575722927832137 -0.007274679284542311 -1.1242732213140185 -0.11220859838547129
P 2.5406154051382948 8.546905876576727 1.4220705542134313 -0.20998508050601256 -0.540579581866682 0.4137946283289325
P 6.2668014280886855 7.876521943089797 5.8936741597747755 -1.4109969894336667 -0.3973169423888835 0.12683149050496867
P 4.59603197192207 1.0717971811445188 12.536043370799822 0.9790241475338107 -0.9708626947689407 -0.6229968079223336
P 3.969930842560213 6.1312834210044995 8.152721278105746 -0.5844060921333291 0.18782474235888943 0.4416011090182395
P 4.58023987619437 1.1785809695031477 3.919603570955583 0.615903648520978 -1.0591086116912276 -1.3250750926588664
P 0.06836777936254955 5.646535527702169 3.522096409340065 0.51542262298508 -0.36036993285088903 0.43706619726236345
Ni 1.4359443296891135 1.0001239745494155 2.6208213940109406 0.4624504416634229 0.6069335838118837 -0.3944725309615529
Ni 1.9132155540261306 6.416217561681371 4.808363959196327 -0.2574165345150986 0.5100605873422183 -0.08351251600235941
Ni 5.876066559266959 5.571471214314596 9.219076454360433 0.2579824343208976 -0.0894759326746459 0.21895308833257773
Ni 8.67442411843506 2.2796084089306325 10.300373243974391 -0.02393491354904265 0.8683242724833821 -1.0476219512078668
Ni 2.354735854625513 5.141386880238756 6.9820471791477 -0.704641931698651 0.983028126486881 0.7073989256184978
Ni 0.5614933298444683 0.08111329031765212 9.150844860403645 0.09636340382309855 -0.11804963054728057 -0.0833299676779081
Ni 1.3729292680960612 0.9847196915665998 11.355006554542447 1.007888894284303 0.6422116902878876 0.3771481807504924
Ni 4.021077030379621 6.876641478868564 1.6235302562793836 0.9772670556333879 0.26141897080627235 -0.20070494075566725
Ni 5.589103165855231 7.68728736138872 8.081995958010346 -0.12919664830303557 1.3541493843170032 0.07806589106549136
Ni 5.357714240675418 2.926624369813068 4.810040572900369 0.404202099544491 0.41863395869910486 0.6596612532229027
Ni 0.8414048445300463 7.5643236645575085 7.1733948893633395 -0.0482187257970718 -0.589122780882708 -0.5214742284957987
Ni 4.995073248605139 4.663060444479615 6.934908990952159 0.7073547026441237 -0.4186745821290531 0.028854719448163212
Ni 8.211790570492134 7.089992601960771 9.230454699917297 -0.4425585878355023 0.5415643143774543 0.333687024243064
Ni 4.728528647156581 0.28839920245790107 10.312992490314878 -0.3697331192333439 0.158791588351333 -0.10028510747500793
Ni 7.821154909581889 7.363626059629757 4.583184547385172 0.8302655179384475 -0.8284264078471796 -0.12063975987195998
Ni 7.106145453730222 6.037847606190699 7.0194693052487525 0.7557693465020855 0.7371771853221949 0.11873714353260839
Ni 2.1193335184812074 5.268923159899176 2.5513235463476023 0.8980148575692793 -0.24662227211307203 0.10804469681576877
Ni 2.367822280040071 5.061037490839514 11.412572396124835 -0.6573472603777454 0.8731080670252706 -0.9828643472155073
Ni 1.1059697971994888 3.3646363179064105 3.7866126599438705 -0.3202077588097066 0.11715565797810146 -0.5180094098756498
Ni 3.6714142369113736 2.6029269924499303 2.518705788832584 -0.3757708407869916 0.5396768675467544 0.09682543106118163
Ni 0.978613895559945 3.387246702823225 8.062828989512056 0.26562323869560706 0.2534866033330731 0.5601528760129192
Ni 3.535246868952034 2.8654491640329516 7.182027781442468 0.24899488611030665 -0.7822522232839625 -0.12158129784962288
Ni 4.105115150305778 6.939638502659529 6.003591114356021 0.36857252326633944 0.31640406879290023 -0.29462733923744094
Ni 0.9466148346565315 7.537654774170982 11.395966795522984 0.14779806545430674 -1.2593448403405925 0.028861918537014808
P 0.10550039874009574 5.644064348816167 7.943381762197823 0.9326563589025485 -1.0511988699258477 0.24734166677759983
P 8.576397682989963 1.6713105902292436 7.868616876324904 -0.29391051567607446 0.1479459038860807 0.7021322779029198
P 1.7308804316235633 3.149887265152415 10.302393477808202 -0.37197846362409487 0.4083076370724323 -0.34918332010645026
P 3.905508832404327 6.087415486327441 3.712797464350864 0.2892889577436631 -0.10251759634995249 0.2593685160351469
P 6.855555288228152 3.9912154490235885 10.404192519559922 0.75238731740373 -0.4205041791386242 0.37956296083957214
P 6.375370958853987 7.812063857329735 10.27930599302617 0.46088978204452236 -0.7077768777832069 -0.7810625738512355
P 2.3769945024016184 8.425132674683297 5.856555970638899 -0.23981707626578055 0.4440107469009966 -0.93313509831118
P 6.9119775331581845 3.802918833031067 1.5306148320558106 0.31178431063270173 -0.01589661662559843 0.3936747176506059
Ni 5.259922296657461 2.7771360850120312 0.38799402479451456 0.00705227886109108 0.6630962470463806 0.5709180849492232
Ni 1.6255486863329867 1.1895389342713687 7.033738108590153 -0.7550057288631835 -0.384861233124034 -0.5166441540970069
Ni 7.023730735991949 0.7139325990670373 9.1262927060921 -0.7917100262627527 -0.2742965980998889 0.022627250481212644
Ni 2.699366101311317 1.5007631714909266 9.133130836863513 0.6820103103420642 0.1023579308436366 0.6711425143896249
Ni 6.375145486327892 1.7924163934454318 2.577630778802271 0.42772435103614725 1.280520445976943 0.10400523663907249
Ni 4.000126123254866 6.6983648619357075 10.378082801038111 0.36810175427750796 0.9598989966685856 0.1419925145161232
Ni 8.122431298950133 7.132174002142638 0.3507125935497456 -0.5728816364334973 0.39898764522308705 -0.00934184622621617
Ni 7.62899820394262 3.909242657436462 8.323887393455667 -0.34422983275591684 -0.433038564160209 -0.78495470981679
Ni 3.1902739040265646 8.258454364492772 12.416609671837156 -0.14216837797235515 0.9424100958552027 -0.032622928241343815
Ni 9.005868731794823 4.788919208545886 10.24365247341981 0.7625732567977963 -0.12010677018662541 0.010629454689388146
Ni 8.75443980849568 2.2608220380563906 5.649829230363366 -0.16173035926468277 0.5128805732895168 0.408912874756599
Ni 3.5034011293663654 2.5702695517703193 11.359587254382596 0.48566750320983454 0.1206184197157213 -0.024264014753687245
Ni 1.107151273236227 3.400747997685798 12.57742569634921 -0.6748392465149217 -0.6058634906761565 -0.2446893167564173
Ni 3.0836885314908997 8.329847985155517 7.911398033426184 0.846072145953401 -0.058608296561511966 1.0507124172077325
Ni 5.521885296375767 7.777737919957021 3.5261621299306114 0.22618303042211368 0.6927624066522455 0.09956828391364142
Ni 3.164858640885128 8.232633250804362 3.697882005804623 -0.4993306025192239 0.7707768756545113 -0.1410833724382925
Ni 3.430708786953312 4.277763972987301 9.322301384367178 -0.193390409372125 0.05700649929203085 -0.382717961528786
Ni 7.2194408886424775 5.955667379879565 11.448159175863472 -0.5158838788922148 1.158414385972102 -0.24792916384995364
Ni 0.7095295715774527 8.90832029810505 0.38463177848538477 -0.5990505815193812 0.3136658439261307 -0.3403659789251364
Ni 4.628211410846359 0.4723144363233431 1.6572564367326852 -0.3873258926144426 -0.9876052043346024 -0.37521573961446997
Ni 5.877356262116223 5.386746083135421 0.4746602524848363 -0.21416260892246985 1.1403325887697264 -0.23465198712507326
Ni 8.06894921576038 8.854946441727822 11.359177796275207 -0.8224077124569256 -0.6112566366672698 -0.261154404290976
Ni 0.11139966191284736 5.112571491403805 5.693759395457627 -0.5050759896434335 -0.8888090227002952 0.4475524415056679
Ni 7.876891718032593 8.81367595055138 2.3597377371444055 0.21377951455143826 -0.04723913549262187 0.38603211350368355
P 8.589222560274251 1.517971234682503 3.5434405405503293 -1.1972593838637573 0.9114709830741852 0.21013111916557356
P 1.7951851960658793 3.2696402332120327 1.5375052724532763 -0.1927124094684939 0.011910378284340778 0.3270882879796238
P 4.7787368692674335 1.167893571766241 8.146992472162722 0.07587351139986287 -0.7048977564631989 0.12654841204691106
P 8.60670119049714 1.6306353465216914 12.412490739730451 -0.8337997563439511 0.045431907080554015 0.8191825206514085
P 6.224178101755672 7.776827010951597 1.365600509107867 -0.10764720426703396 -0.3864630303935151 -0.19224421158282376
P 1.7839656831673885 3.28175261731386 5.921764428965805 -0.3656975157113896 -0.2849826170588253 -0.004143846965044476
P 6.985111801722384 4.117516139241007 5.99895810488982 -0.306968120190981 -0.9496667774176162 -0.05598191468225843
P 2.541832956779208 8.527722674056557 10.218744072517033 -0.33223846472199553 -0.6472644222204464 -0.7443562195691374
