# total energy = -340871.9308632889 ev
CRYSTAL
PRIMVEC
9.26789360553068 0.00000000000000 0.00000000000000

0.00000000000000 9.26789360553068 0.00000000000000

0.00000000000000 0.00000000000000 13.56449910473642

PRIMCOORD
 96 1
Ni 8.353514073280003 5.535981698204861 10.175653344814036 0.0839092372201458 1.290397852991655 0.6834401008100551
Ni 5.785464129719113 3.0087382907692817 6.895946864479329 -1.4923811462391137 0.5067893727901144 1.7665157648398417
Ni 7.549162843713882 4.602825281477809 6.278627291268069 0.10752636241845354 -0.031005447242578865 0.5913935791947557
Ni 2.002949390823047 5.244942031172577 6.5123292801158295 0.983419962608661 1.6436134341859499 0.44657979317975344
Ni 8.744072383263363 4.0843329663448245 11.958489332586945 -0.8539176101397488 -0.5415038934531642 3.053693311121986
Ni 1.8755899950851351 2.264878603626487 8.499827238500059 0.6037518436497924 0.13342971254777666 0.33116554337279097
Ni 4.3379581463596475 5.231614799978346 2.005036520492686 0.4180210077054543 -1.0014341397978945 -1.3348180309782431
Ni 8.47968717861954 4.814133258688142 1.0675316080240957 -0.27311363353538126 0.06586163568981561 -0.7768405653500879
Ni 3.749224464591701 6.3637714310326015 3.889240096017263 0.005230395161003896 -0.4664526208442806 2.9071692272840965
Ni 7.550043293618924 2.1526166067866286 5.744754906478043 0.8657297722833284 0.979966456842422 -0.6822854183803218
Ni 0.10670033380810699 7.49273063874749 11.335988079987162 -0.10770942496353708 1.9570280813332233 0.16847076331230987
Ni -0.1043277530113594 5.148722758391977 8.122720349487006 1.2959077270662909 -1.128625327635127 -1.3376878963268704
Ni 1.2925468000718883 5.593322156757507 11.346649864942547 1.2852787865975348 -1.443592921091817 -0.9028269342459418
Ni 4.814958101230761 2.689765192012789 10.580159834872024 -0.0261414342820582 -1.2937333451227913 0.257289264908615
Ni 3.8547301668970704 3.8010505263706564 8.82815627598435 -0.6299282449348441 -0.33285810058386545 -1.9872526845457195
Ni 7.3117472098455885 6.493225370755142 2.5046037966141146 0.4830727458994648 0.43499748765879276 0.3750103084718832
Ni 6.4033082657159035 6.197097630061084 0.3445385836308212 -0.8164702639265682 0.6702827374924907 0.02401307508514574
Ni 5.028694266600265 1.3926307845409402 5.240861377560045 0.30919855218339654 0.10956344745314033 0.25768778589861424
Ni 9.310618727424226 6.429758834442144 6.002534883255295 -0.82613581204079 0.29616228782472864 -0.9037962401377467
Ni 8.900931484767087 2.4865480860351155 7.780596978964125 -0.7589893961012799 1.2084735074120219 -0.3699544912155306
Ni 2.8158826899899037 7.300412575804876 2.036235031180543 0.5549926719682183 0.8544868523796574 -0.8993649438392705
Ni 0.6918065619672759 1.6179240134008515 5.273742010961222 1.1261231300385637 -1.009394532295552 0.03026574086307691
Ni 2.7984683176575262 7.461822213133611 10.581082917088262 0.7331644646183759 0.7179234792989055 0.8278854477420451
Ni 1.8065627225297596 5.131577154977981 2.0551841667158173 -0.21338639287807767 -0.23980036409523217 -1.0281802975434873
P 7.315917762027371 6.117171314470649 4.648540094126392 0.10684373452913212 -0.21051472775723745 1.121974912198145
P 8.637815981565273 2.7536673193314405 3.966585303201861 1.641784608507327 0.6011907677908356 0.3677371718492376
P 1.6316961034944721 6.190851069682147 4.029714488182822 -1.255367086639767 0.14929264772196224 0.46585715335212674
P 7.367206285969563 3.891449561884235 8.591401442939524 -0.015428675850244397 -0.5093918434099679 -0.20154594859972386
P 5.480930409405327 4.868341169157582 12.507905828753165 -1.5868396197300154 0.48278735344856205 -1.7592043187800925
P 0.6233186808274112 0.6589083195679988 7.385964502893849 1.1639085763174535 1.0729020659308943 -0.4925143509283389
P 1.746377020599764 9.10531634535566 11.957417964070913 0.45435249514663684 -0.5097906215102833 -1.0681288129119668
P 7.909183443832855 2.635214369475069 0.3736305020721912 0.5806821063145226 0.8516511827030752 0.022676358551593206
Ni 2.830257193176449 0.941404842153244 6.6164781627780584 0.37846150024527725 0.20570033708772964 -1.3273204370496172
Ni 1.215020868959413 7.052255453095057 9.041606990226745 -0.975065934217011 -0.09381132682520618 -1.06613955039608
Ni 6.61834193620863 6.827203189472315 6.719297102688986 1.3891927490743818 1.1526818543636987 0.5284622297778576
Ni 3.591382966351825 6.479332798042936 7.756221491645665 -0.03503693699947514 1.3902255612142704 0.23643684693963798
Ni 6.408998752470603 4.39147096479879 10.527001049973647 -0.6146713187757736 -0.0899731840260386 0.3393491076248478
Ni 7.3217565350818665 1.6757464024278368 9.616850325870683 -0.4732914981429848 0.9781227187654639 -0.479913888555509
Ni 2.9575702494456744 9.12806902448072 8.536736625308837 0.22482034574663215 -1.71366673935961 1.3118030581403086
Ni 1.7773225177885932 1.8676844817272222 0.2789589675457197 -0.19819400140835544 -1.185403512966436 -2.0492499521841228
Ni 6.527850221757677 0.5786891385354657 3.5149006000741694 1.1410460698969833 0.7127799874247531 -0.09725274840658736
Ni 5.221976190491558 0.020648867246693913 9.85361813396674 0.07917969295496041 -0.22048829403018158 0.9377949656806945
Ni 3.1372376374368804 3.2810475445584917 6.307966662472226 -0.07482398708942598 -1.1572177945608393 -0.08358939198688185
Ni 5.881266347281533 3.6979452085432465 0.6017986315694114 0.3107733528696841 -1.1818250515865583 0.6901074855279018
Ni 7.094192672256319 2.186333204202909 11.86448786677768 -0.2374647739835201 -0.23611803014763855 1.4784460242152602
Ni 1.3965789072730277 1.069514937283877 2.596421746658873 0.5636210370671776 -1.6145941641354644 1.361730796208687
Ni 0.2579430917070289 3.479491685261459 10.061399677610032 0.6495786721759199 -0.5856708177783655 -2.9992100924724414
Ni 5.404776126565971 9.026094389689261 7.301308781129272 -1.0994224808189257 0.12512042135113288 -0.21955626913421541
Ni 7.088761686526264 7.957571117035273 12.262972079485177 0.4802028805508375 1.5613661580492593 1.1102817921309331
Ni 7.125064026295249 7.541377812974554 9.957468590450631 -0.6066037112762908 0.5175692370144377 -1.3951811054473326
Ni 0.5380531316549206 3.8914773655654464 5.743032931821654 -1.5009868856302537 -0.8649576700039942 -0.39607021446597596
Ni 3.2973590375361317 3.1045590441191777 1.33349513497138 0.13403597867320785 0.7266176646387937 0.8533496534514207
Ni 6.487710973981452 8.728205749185115 1.3012298897143602 0.03206756995850606 -0.3931859509396454 0.27649232019962705
Ni 7.856754968960976 0.23734890503338502 7.8473749337094585 -0.9436290558639683 -1.5887982861182832 -0.6039619027780695
Ni 4.994180630322578 7.255389148029096 11.638150146293574 0.3438076576168337 -0.4101531749216033 -0.7973338002074333
Ni 4.2905343341059075 9.040950823350144 3.4176025444625484 -1.2796131036713252 0.050422418316609936 -0.6695224622876985
P 3.5445430314035344 8.13665462772103 5.720515657197521 0.7874484227729213 0.014947879559083934 0.538268417235002
P 5.472515161891863 0.3290009597802457 12.268343750695314 0.47315008746911413 -0.6587724228600461 -0.9908291105885388
P 1.9856462332155167 4.978360335713015 9.22532444778115 -0.37392401738623987 -0.5724982849521495 0.03773916642198662
P 3.046004491486946 1.7850612090592348 4.626063598234704 -1.303859892033832 -0.17927145347223963 -1.2087727838199955
P 4.908739917958452 3.2316960104073944 2.786107727780095 0.5358706064267867 0.15185475202218363 0.2834420120445828
P 8.168082055384199 0.20990111094101127 10.945926529108121 -1.862137405400909 -0.41841464359944713 1.2235026338310027
P 4.901510960843361 6.758203720598153 9.535463390227253 -0.18208578299258318 0.8223357215684096 0.13260156021952646
P 4.262081900332411 5.0212150763542684 6.188097578452796 1.1168018526376378 0.4678428163235878 -0.08652327780422518
Ni 2.800868702135485 1.072869914816778 10.523596025814566 0.47715123820870725 0.2341611635315838 0.7977989127693098
Ni 2.1549613839021644 3.6017908110188075 3.7877510988576377 -0.002091078201073818 -0.38212943601516763 0.49239299485912624
Ni 0.42607658594217146 0.321718248881479 9.5505468872847 1.6032905661971872 -0.4842094306070692 -1.0855467512780983
Ni 1.7556078427621102 8.666240611657559 4.410619360049417 0.36026940271728275 -0.6746417857921349 -0.30245249170881455
Ni 4.459265607487105 2.040623378865152 12.82846281054936 -0.6537171198243258 0.5774908530707344 0.182045416672951
Ni 5.885381292100893 4.019643068058503 4.6087419048396985 -1.1597472458509122 0.5068968449022561 0.5315568095427814
Ni 5.676214198343875 5.272337925060022 8.147719566053988 0.15700595720581992 -0.8621006601711733 0.19019401392201438
Ni 5.585639072849289 7.622953813650227 4.776711357355691 0.5551855047053148 0.5700022580031733 -0.2994435296791617
Ni 8.951932704003422 5.159019388334112 3.542979537730053 1.1028862709978104 -0.9928965346405287 0.3473202987557825
Ni 8.33306909969553 8.27971383544992 4.3020895440175675 -0.834839253352059 -0.0689418172770361 1.5064751624383346
Ni 0.42670772950568125 2.8296084406148383 1.8710867255181833 -2.147393073615463 2.3204769102197518 0.1891552882448549
Ni 3.6846921204989136 5.010334569106683 10.777414904808497 0.8102533364825788 0.8307488853327692 1.0665617255351632
Ni 3.4070445599170216 6.173974235186531 13.008423063982665 -0.33516797966396467 -0.9945381840090098 0.6002625995496114
Ni 5.094097792704358 1.4417876929235545 1.5378345828806403 -0.030296336990696206 -0.3476242031494465 0.25006780745951124
Ni 0.44139085355367824 7.520265551040995 2.551617967964666 1.5141547904707795 -0.8312718477157748 1.3120923072459532
Ni 7.186704787542 3.53287475318828 2.7571205365379567 -0.4341310258934394 -0.1393152247942762 -1.7131394061012302
Ni 2.0691221521073357 3.2093603865005127 11.567479676178577 1.2461039161702863 0.28775452337700763 -0.5705041373402562
Ni 0.9531287277309226 6.257283331991079 0.0023837022692323497 0.937915550418959 -0.7155184694018387 0.5539518894085299
Ni 0.5017665473052885 1.5754399885090897 11.54494849971384 -0.1371521557046864 0.8339252261782218 -0.4390693437353213
Ni 1.6479705248971628 8.539224127987927 0.37987613566175443 0.12868911253899773 -0.08139701232125336 0.23446789613872523
Ni 1.5563295916227868 8.204338055684499 6.758294545956778 -0.1352881059127541 -2.183077157280634 0.25159838517142474
Ni 8.909587697517722 0.5873379369711096 13.36785515284932 -1.2356256423467817 0.5892443940622368 1.124800297462082
Ni 4.3203120766838365 8.360854245119942 0.025630360130490137 -0.5884193270577801 0.6555644574457097 1.4891266438575579
Ni 8.634081020389143 7.771796187071189 0.7381423234962574 -1.9003141735809468 -0.46659146041499 -1.310064478182647
P 8.544710721080405 9.468543636707738 2.489547176448504 -0.19497832268453516 -0.5464447823982073 -1.1942103126247883
P 3.1539198461640123 0.3787222828914612 1.553162752332753 0.601425509509461 0.152265357197041 -0.28280592112248065
P 5.2778245181525 7.055286054347152 2.453573846907193 -0.5040537190265061 2.0260909975691557 -0.34154894348964404
P 6.889965365861279 0.22510045667017556 5.766133156961862 -0.34138902087301204 -2.1642649096701367 -0.461187001569967
P 2.157899306216887 4.184426218707613 -0.19530325151539746 -0.018982454639773758 1.3039344540255093 0.897692441232854
P 4.340043422450538 1.6070064345783175 8.607217103602219 -0.2569442228643704 0.23360786213127507 -0.45432909810786914
P 8.21179871014302 6.095502978912852 12.638179977071454 0.5360338714775285 -0.4521531735024729 -0.052317835567109894
P 8.39676733335196 7.18886420678279 8.114541433263845 0.05382835867436536 0.24348218382219358 -0.33474760429709444
