# total energy = -340878.22102188476 ev
CRYSTAL
PRIMVEC
9.21360236923735 0.00000000000000 0.00000000000000
0.00000000000000 9.21360236923735 0.00000000000000
0.00000000000000 0.00000000000000 13.48503839257486
PRIMCOORD
 96 1
Ni 8.290076848650328 6.481575713004711 12.489478290463493 -0.7473520689726677 1.324694569390996 0.9095490834611238
Ni 1.348447546978789 5.839369207412001 4.898561829852884 0.11632853409111578 -0.3952713727137644 -0.5066926993112498
Ni 2.4896719652484207 7.984664360523915 4.066170910233415 -0.10103227005367761 0.05738702255990117 -0.221890830804663
Ni 3.6285929829499466 3.4789825092502755 4.767028443811714 -1.69956269585806 0.9274699296056027 0.303683021681806
Ni 5.5420094076716895 8.357677048523124 11.68792806173052 0.05081656843123506 0.27863867711866847 -0.005323983316074702
Ni 1.1656128234847467 8.347477590807548 12.030784629492075 -0.03084063952994043 -0.8391977874310708 0.5593344938766819
Ni 8.666378792660794 7.719552168737099 8.40347141589777 -0.31131996940177353 0.6595054443713286 0.37814525455643905
Ni 0.4535478641022669 0.8804721030781285 10.450028078896992 -0.12810932877612774 0.7948385445894053 8.150397021276287e-05
Ni 4.354772259653557 8.923816053754678 9.346642082439763 0.1554015888331775 -1.527056329023796 0.03180428899479039
Ni 6.825187796152606 0.6994847068397078 4.861774680059764 -0.28807256883805876 0.6094329531949697 1.7030629957018346
Ni 1.798237182714133 6.054543674882262 2.2343897657260574 -0.1935989258385053 0.6904905798989335 -0.8834451872852204
Ni 6.097377711846776 3.495318226079289 11.854036411659198 0.2845864100616711 -2.354194614187171 -0.4067688318304027
Ni 7.4992365111988235 0.8125070445553432 12.50510732399821 -0.7367197860698022 0.45713494298778046 -1.3481430302219233
Ni 2.1918791262013064 5.5457132757852055 13.225923362819042 -0.6302573461394887 0.5149328278328551 -0.0008916585763339483
Ni 5.488054552764357 4.076475403014897 3.2187304926621647 -0.14054498343631924 -0.9520507042687604 -0.8430423579881416
Ni 4.612587278440611 0.7817216352824826 6.401199010860739 -0.05609555744198726 0.7225442659003685 0.2895895197032174
Ni 8.979309580241505 4.94391762975936 0.932876308723012 -0.0073348430985164005 0.8127660756021035 -0.19447104403081347
Ni 8.351651352636958 4.583914548168818 4.657732086855049 -0.38542610448856846 0.4142877659152671 1.2289554294154577
Ni 3.1037954111147736 6.986361340704172 7.816696705656661 1.892969046069785 -0.30529921712899033 -0.7739061653121123
Ni 6.602789864500761 6.232080577069659 1.8979513933074745 -0.7061478268202162 2.032496129764551 0.6560154289401993
Ni 2.1929847584739974 2.070775537932525 6.757042151025281 1.025594539094182 0.06890505050182971 -0.172054109788194
Ni 1.8633036419620126 4.051875084947518 9.427039975868961 0.15230443796509252 -0.06007382536344493 -0.2561281547209783
Ni 0.8510125311722703 8.37147902472722 2.3518982063881375 -0.1701437801393586 0.5730130198050389 -0.05322800608620511
Ni 1.1898814518703194 1.6776864105816973 2.685477598021586 0.6534751790168487 -1.0752155445554192 -1.057361547093134
P 0.30002713759817834 2.473944346169388 8.84231529213347 0.022118686275910297 0.09592451651346705 -0.07662093108884868
P 6.843633427902004 5.5932646771132015 6.288315798539418 -0.5654496056354842 -0.28316510423411234 -0.10460327523438759
P 3.0712529678885616 4.964012496315523 11.285709175887945 -0.7699276402803384 0.41109394156831786 -1.097614995296542
P 3.0126544574359255 9.367469430376584 11.341955453680429 0.18131290938230066 0.5501854803875621 -0.04414455572769817
P 1.178244672200244 6.29673242421528 8.544821895160208 -0.08140523985136948 -1.0839801781219267 -0.47261015580524407
P 3.0538669004004917 4.112694073547808 1.973386840552744 -1.1847864482077273 2.4521171349672737 -0.4280431678281467
P 5.921259704409333 2.6100108245285907 0.4016329007380494 -0.30023542945283777 -2.099007226112908 0.44142627400327206
P 2.798751467079259 0.0038918255998731874 7.553805913377728 0.40752705015266594 1.119649349388762 0.22091381160337437
Ni 8.62012650925321 6.4289568304268805 2.956311436819579 1.146360025910729 0.37509721175873467 0.9077909631194365
Ni 5.4430829600726405 1.660632032775435 8.615253435011322 0.19474898028254847 1.2823271601683788 -0.8483822821438164
Ni 6.528297890128188 4.563699904783113 0.4729719804129976 0.263535760038959 -0.08410438395008742 -0.6231875837769009
Ni 3.577171868667531 5.541355241910347 3.4997582610143714 0.7640310722902455 0.465653779092069 1.0557726053394592
Ni 0.7341167950613066 6.312690383351123 10.769380747261588 0.47646732476780523 0.003004848264594825 -1.115386203237034
Ni 0.20539330729785285 0.7432106205041921 7.18374987034774 -1.2157805825963965 1.2454953360520098 1.353832624407533
Ni 0.4611251306111109 3.7281643827080657 6.99731907788677 0.19330736274001548 0.0009867893933015264 -0.4561846632593692
Ni 1.1545288599510168 7.957318388979352 6.728561985040981 0.8484745847473065 -0.7310769859617281 -1.3214632069378918
Ni 7.785337288962229 2.618339920982865 10.396061246306706 0.6291106341295551 -0.13769800090582737 -0.24709484087411634
Ni 2.415668311796287 2.6586310037201883 11.621432572770185 -2.2481198966135802 0.4091836119194824 0.3659494838211955
Ni 4.33758889141548 1.8268730585768362 12.52023790164999 1.9669605099555867 -0.14368121507245576 -1.6183469463096773
Ni 6.354953176974746 4.4330786653669145 9.369148148710622 -0.5606796950506666 0.015518150240257144 0.1740459434072422
Ni 0.3197304260577636 4.409086445049515 12.080747230534765 0.5564024078315514 -1.8891352741459917 0.1477327594340101
Ni 5.007040018927758 5.3743771279271515 7.540132006245218 -0.20510975469158227 -0.616657495967867 -0.4980123979284327
Ni 3.2131148020771207 1.158177446450898 4.3305718119248 -0.08707452232200488 -0.6032687333657868 -0.845218539703854
Ni 6.878083086798609 8.237457966072498 3.324790111140527 1.3349396441577717 -1.460116372668137 -0.6186305605338378
Ni 5.670032411247064 7.8019402002571425 7.071378934312765 -1.0030994433154594 -0.2727089418977949 1.266090129484226
Ni 8.41357597350994 2.5059708276683446 1.0976873834517324 -0.9318932554842789 1.4421957836339743 -0.7113859352907039
Ni 5.6807386170876235 3.483322115920589 5.982555957607334 1.0258650191467493 0.04637035973442337 0.6607657991409911
Ni 0.8624097571832625 4.005659655949024 2.849321244511702 -0.20739855072575897 0.32914028541264606 0.5147045138721329
Ni 4.651523961643888 7.875851717686552 2.3586278214879184 -0.24356471623367082 0.7479002281666539 0.7681574357537932
Ni 8.903444779130341 6.03734187943964 6.7207810979219165 0.15254046523529857 -0.7771164447192939 -0.34370069972532424
Ni 5.994692114520576 0.96245289337773 2.6540573715521556 -0.44849912168965334 1.452342128039357 -1.1825665577382731
Ni 3.2680186580185135 7.802695715643481 0.08353788908364161 -0.5752290536197513 -0.757847826297669 -0.04342104729811232
P 7.535961929856718 4.489346134444626 2.6467896820796653 1.2568542127082547 -1.3596230058370646 -0.4092825993911918
P 3.155234952601734 0.32025928682820093 1.9976195358894544 -1.0982701123820375 -2.237150799196586 1.1480024466101584
P 5.181112606660722 2.0935699899545095 4.3057724800483355 0.40043491919257485 -0.26405486576722265 0.519685512026492
P 3.9946033332221114 3.301417966256062 7.95963837403155 0.11770356006177148 0.2542563916195621 -0.08051898059167424
P 9.582975587528653 2.1086434432722005 12.59575350723503 -0.30003796873005106 0.4163593037323152 -1.3294451967021041
P 0.2682420524787595 7.734505845225249 4.627862509648067 -0.3693222569481704 0.22716133517498296 -0.1419405782322652
P 5.535661235705987 7.176917062902508 13.579703577434787 0.4969788144575957 0.5418317091062281 -0.6137794030891236
P 7.691505963419831 4.911135632874065 11.121906990608055 -0.6831526514766234 -0.581188870747612 -1.0306580696600185
Ni 3.873508958555602 2.2760545965622 1.8735436395275882 1.9189988944746434 -0.5969281358597398 -0.5437466667407539
Ni 0.16592223516277535 0.40057333647672033 0.3432868429876778 1.2402757395242834 -0.5274193903356401 0.07885367707410935
Ni 0.8958560547923999 0.7734763826088876 4.874625812509345 -0.7597599557187174 -0.7846690602555711 0.3614605948119065
Ni 7.15805681905085 9.303434894583216 9.47903786165363 -0.1929713195568354 0.2476849090496315 -0.5091797273991618
Ni 2.601174979949333 4.788318314582612 6.926333800539083 0.27459998827292065 -0.052397025544477505 -0.2815363103814377
Ni 1.8526250769282697 8.157069286245571 9.382309779556783 -1.47831721194688 2.042940207916011 -0.12850604999391418
Ni 8.796815760031542 4.919621360566969 8.940606922535949 -0.8204014806601743 -0.8005579635716857 0.9179748456309739
Ni 4.788659217866692 8.380425432533748 4.700816733801372 0.3921384835117376 -0.8479415950619719 0.28211403726177864
Ni 2.5408719530762984 0.852415762798361 13.474803030122295 -1.218577171504927 0.13360609022464087 -0.06935447933442249
Ni 7.04690392123629 6.782722303278989 9.940981160146535 -0.15677841457604613 -0.12837698061521763 0.7329947718097312
Ni 7.437680434416739 7.651030608637059 5.658173583762223 1.2028538472323993 0.49541764061806287 -0.6947483267340229
Ni 2.7380061872971475 1.393842965375037 9.533504071487084 -0.8023687915281794 0.8110071839294678 -1.032310517661777
Ni 4.381989240766306 5.891287856217127 1.369635146764462 -1.1809935568241985 -1.977172674601898 -1.511602970583203
Ni 5.475238432003411 5.595862912954026 11.728639284731464 -0.5780400407059851 2.6325502128477822 -0.39046623801563723
Ni 7.507703811687184 8.197710485869246 0.8023518121306741 -0.714093564029854 -0.5101516043941279 0.19186728785937923
Ni 4.964030923520069 9.411694721284235 0.5445478496663472 1.3234064467071918 0.1859241829020669 0.18624299969406632
Ni 1.6883649756154402 3.1329564623070056 0.5532482542922 0.11409398833364222 0.33315223478551653 0.12224284269302174
Ni 8.258216211992275 2.3965869414900904 3.721587713406007 0.03336314884147802 -0.5184961197040812 -3.604517453534812
Ni 3.962411006882251 4.154560682273717 13.026897576051663 1.2457092518350288 -1.2717756099047774 1.3327377514104466
Ni 8.091302593224986 2.4932836973392125 5.808760699302771 0.17316534057450178 -0.9686672297795189 0.6874006281197
Ni 7.486005778335619 2.8377250046916256 7.812193096865899 -0.17824275509740917 -0.02996646445510323 2.012121165652625
Ni 4.1475767717512175 3.349752523777214 10.198383409551784 1.2327100113618834 -0.06220218456035739 -0.4012399315923735
Ni 3.1460950591474863 7.220119643957919 10.954031471763523 2.282735944025552 -1.5497339731269697 0.9681254983434359
Ni 5.890827176103506 6.101385628835281 4.314402861296918 0.044623809356961856 0.18789287659266352 0.6909785752789455
P 7.050303740474816 0.29604686141648984 7.135418998267497 0.3021411311159829 0.7514303528070994 0.46152355897377934
P 3.453377908535201 6.466308774039299 5.3640514438604425 0.563861692323074 0.49103185284554146 2.0979080795114577
P 0.8054024358430747 6.982565336567932 0.5227245113238764 -1.0222328217108008 1.2316419751086853 -0.2177685811061733
P 4.93389323048696 6.74719465291651 9.209458915485143 0.27464806790203666 0.286293622560765 0.6471173551196211
P 5.830726848480464 1.2779266351856322 10.696979339244628 -0.3136108223184792 0.9613154174001379 1.2685403907969315
P 8.223029464913875 0.679335480030137 2.0863649529774717 -0.44282366857143096 -0.9654078423019568 2.229373726354328
P 1.4089993411131796 2.9266546938250912 4.617668580093854 0.0035218971103294183 -0.2780126134988954 1.3926616814595885
P 8.433799830497916 8.335370917421578 10.944929354078592 -0.119192228792156 -0.8544040628578641 0.14323692844618557
