# total energy = -381160.9319038324 ev
CRYSTAL
PRIMVEC
9.30912548582541 0.00000000000000 0.00000000000000
0.00000000000000 9.30912548582541 0.00000000000000
0.00000000000000 0.00000000000000 13.62484612933829
PRIMCOORD
 96 1
Ni 2.7291470541194975 4.3854080693524615 10.363399010924814 1.7681594710908517 -2.680316424488468 1.8307948865338857
Ni 5.88000680875872 3.2463806928090846 9.310266005729211 -0.7797435979294958 -1.9944558871623776 1.0151602311347356
Ni 9.062350026305113 6.885597178409319 2.2766984134813204 -1.0136383951735706 0.27888884545626164 -0.4531502473084196
Ni 2.227738929014236 2.666208055682071 5.698101839232536 -0.0006777427933149617 -1.9093562291785569 -0.04361979357247972
Ni 2.827051128452646 3.0789281408356444 8.400644343191654 -0.17173323611366553 -0.45256994932491734 -0.39992764053885316
Ni 2.6412130533444746 0.45332835301095276 7.371723442867505 -0.264001643931784 -0.8997074147803538 -1.8121942407135627
Ni 1.9994605501231586 7.384138092818127 1.9225746196551223 1.7865590566439618 2.2387119730361187 0.7095038877766426
Ni 4.638634904952946 3.340365625248703 4.697478819022288 -0.6309433164629198 -0.4065713711076159 -1.0200170450064046
Ni 6.249541860078361 6.667521601217312 8.49070454826236 -0.08030172237454557 -2.4994323751134697 -0.10091554197015522
Ni 4.748315023217961 1.6298137892958646 2.5376415833230097 -0.1376154684943501 0.11730015397576574 0.28095112730192906
Ni 0.5743683972918212 4.324209877409311 9.67402195185288 -1.739509668564643 -1.4582523228762048 -0.5119806871830667
Ni 4.524477097256132 8.197755673565219 2.584769962777132 0.41655625023446974 1.4439245933996228 0.22194276708852098
Ni 4.667614213063538 4.868877509353608 8.727831251072203 -1.8984442102517434 1.9251754555990008 -0.8930953087804747
Ni 3.285171819341958 4.8476154663967845 12.74776025514543 -1.8013570408887427 0.22989621760764278 0.7525235858712782
Ni 6.547378025735368 2.8082746220411257 11.579934167528837 0.08321915313165668 -0.28559865337626944 0.22263439383890687
Ni 7.45531566744504 5.240926024595465 4.609830608404346 0.24242391776100827 0.025483231872769015 -0.5082610722396343
Ni 6.834089786255158 4.1970379120707975 7.535194481805642 2.6433717289433183 1.911577919420224 -0.7378461863647616
Ni 3.7483939110808056 8.754850988236031 0.2594862916793676 -1.7001514784819947 0.5583428193873738 1.5281068817754972
Ni 8.887301227811196 7.4930455536552 4.897083229123695 -0.4545954643953784 0.16555307544488262 -3.7328435263074353
Ni 6.138083698816519 -0.3992981878089376 0.8670417218700833 0.2524710175843652 0.44419149545323505 -0.7438376280615061
Ni 8.357099977108101 3.2053739943744057 5.739929602548472 0.19496135340367068 0.5148718926879327 -0.5181346225996045
Ni 5.43725548429748 6.729064230809064 4.689563269492433 1.5446115642987397 0.5157185569589441 -1.3175235055638534
Ni 8.92273175998881 9.293058086987667 9.184332154100533 0.46835883672805795 -0.812509222396291 -0.21005038652630922
Ni 7.045648975500678 7.007928398416156 10.68021741466994 0.7812561779192804 -0.2528970493781903 0.9120934471495323
P 6.852438072887338 8.550906663762262 5.646368235325376 -0.6813798758469168 1.4347439553416195 -1.3496450686887467
Ni 0.5600649257492822 3.9332731462482795 7.444383961208526 0.35403216355831935 -0.8331955471010489 -1.072567565409611
P 6.1069260553066735 5.217215681595889 2.847647568926364 1.0889321228105633 0.6387517567637451 1.0911797811941595
Ni 3.2880948847922395 8.104338597789509 9.174998824736035 1.1557082998948482 1.6053641608967641 1.0025499985698927
P 2.3816932488128106 7.516634878021484 7.3932638286809 -0.39235419906696944 -0.27999133449182106 -1.1263645566254086
P 4.149496207438356 1.1971814844029545 5.83951397405925 -0.14310708773654063 3.069480912973546 -0.5723915841709561
P 7.7397001465553705 1.151175785500756 13.622571373272855 -0.42422739362648226 -0.43036615953436846 -0.4603755614122652
Ni 7.257245401248749 4.809857652809711 10.137253352717368 1.043415626436003 -0.2998016843495288 -0.26373682030617157
Ni 4.346775197955432 8.507749557305242 6.005314156231975 0.5908739592458598 -1.416206044438432 0.21425851107038582
Ni 2.950061914631045 4.580071195565304 6.432372156692946 0.00011621386289012243 1.180062817479813 1.060053234992684
Ni 5.683388766161932 8.455953582256308 9.629810121461094 -1.9095971415447692 1.6469517545305636 1.6703709047854522
Ni 6.585201003201907 1.8148233522222685 6.864211324081512 0.6640043606829468 -0.36880289410959066 0.6461549912063517
Ni 4.698203999909476 4.085430804798751 1.8502948445526886 0.47856045985140816 -0.5291104048848178 -0.0865657010063864
Ni 7.334781108686306 3.8738995429301455 1.1409571582881008 -1.0326270204609314 -0.21460740976937237 -0.3850322114842595
Ni 1.928748431778137 5.1205683392238495 1.4797264802872483 -0.41957446823550315 -0.8732805880473928 -1.952125244714967
Ni 5.295486809958837 2.106496876707027 0.35292570935660855 1.4611795238253287 -0.3934119509075225 -0.2997826581861353
Ni 3.086217186210072 2.9368057197227624 0.7221377340166157 1.6989042363384548 -0.2903757630499386 2.4671663159909123
Ni 7.216955505488183 6.706005526604138 6.318467557213482 -0.335226600816042 -1.9098735351346077 1.4952294143211862
Ni 8.272982717844592 7.9234343592693905 13.509076375321454 -0.7758866860772509 -0.7846518338643905 0.9763985369855056
Ni 0.5309701844807816 0.15226657532043422 2.650686950506103 -0.3491511813169342 -3.021237761696442 -0.1984256578031873
Ni 1.6151612255419066 5.890609902860218 3.6317440504507417 -1.6459135430740361 -1.5739871892473796 0.7388733420776952
Ni 4.945426449473555 3.236745747773922 6.958413159148493 -2.765688105186753 -0.7821162119267304 0.6592730166455484
Ni 6.033700473039436 0.9859760419316728 4.467096577737059 -0.5606935790077375 -0.4372279196512083 0.9308401316294163
Ni 1.142481062155015 6.238948075102501 6.004401861919466 -0.03938081579046766 -1.0361918549940543 0.7341833928011937
Ni 3.8712836786259124 6.07601975818905 2.840930103866099 0.14975030408467113 -1.3999993527715826 1.0742197563010532
Ni 7.766417337135968 5.268536891237293 12.532024992138776 -1.384500742915351 0.31509486306317347 0.07502067648126434
Ni 7.112972572113527 8.625398287116246 7.8610324973812675 0.029516264291562067 1.3417594952930827 -1.282136127203495
Ni 8.828337226021128 4.55019821139348 2.742436761880076 1.343317583808822 -0.5608465596458341 0.3913141878382293
Ni 0.7423413293884168 2.1289877242480446 3.7050999604769097 1.308383490935798 2.511628145848713 1.5481254909892692
Ni 2.490675182654987 0.571358756973108 11.874231003618338 0.2401209806594445 0.43903129140853425 -0.5445776472824815
Ni 7.151828862525865 8.985950032195372 11.903470036334225 -1.335633842011319 0.8483791968200227 -0.14808011547109978
Ni 3.951081503593465 6.565577366357343 0.6551110985116142 0.044620724033168316 -0.9957268050004724 -0.43010339279128507
P 1.901519239287459 8.007570236784176 3.951722902349912 -0.2603763884743709 0.7160311473721991 1.1928537985968939
Ni 2.3604684423585387 6.9064589289637155 12.004811039852864 3.427586475270291 -0.30126747026177797 -2.371037396776123
P 2.191405411649752 0.886855264877659 1.1285825375777219 0.22442439585979415 0.34676236936978344 0.47023445648421597
Ni 2.1564403357540307 6.1869938449177235 9.482933529884969 -1.7885714590883004 1.77145562534362 -1.2821525822637272
P 9.052891954657069 6.790997843677604 9.828691212500443 0.33936556268508006 0.5058730316234321 0.525311857074334
P 4.260768186187441 7.913855268988056 11.697121164708204 0.47012467037922906 -0.7606158759611094 -0.9460402364086222
P 0.8144702966555176 4.129863261468154 4.795400580694148 0.33168850575579645 0.9320261815177174 0.034835619621946465
Ni 5.447495522499103 4.331107939506949 13.126680766933141 1.4288162770032746 -0.45725475639509633 1.4820347700077832
Ni 9.118912273680621 1.964495474227437 1.5689013875097955 -0.7435743470977904 1.2198375262745895 -1.9460106471767968
Ni 1.1336373927990684 8.469321486672245 10.841631136842116 -1.647632839757988 -1.1142142944161197 -0.7877312441206628
Ni 0.7134485961462572 0.15144457952661308 13.352839457916483 -0.7103829479474862 1.7607498088903417 0.0020532829846029153
Ni 4.861365044963872 5.283943494167917 11.04822483847241 0.3447093434954967 -0.10092145550742619 -1.377820502681698
Ni 4.2515521518059805 2.93040104128393 11.931059491987087 -1.654834242602434 -0.7140938211401702 -0.5760821456486659
Ni 3.2476001882676417 6.464638517066259 5.120340265645722 0.13923114972090214 1.3352582038394551 0.6858494815824961
Ni 6.8226023252180665 3.1358999897392166 3.8102567745944977 -0.9679002697065072 1.2260035458759855 -1.2221864861227403
Ni 8.447128531151638 1.325172652797597 11.03007576712888 1.9903740037835203 0.9785464365664438 0.7929151023144473
Ni 6.859326825859339 1.2413998311826877 9.395653029729722 -0.4861521561557369 -0.6846840005194853 -0.27983809674340837
Ni 5.713475860223427 6.452601817616533 12.776740494168585 -0.07513946144731576 3.656882854510405 -1.2787145031164557
Ni 2.694060959590484 0.7932231482997149 3.419549978836722 1.4425680793717284 -0.1793699267233169 -0.688336252560092
Ni 1.7180922277194877 2.535601022983196 12.899418944561715 -2.3386237563321077 0.07630494251032666 -0.3395725364895636
Ni 8.645208106473566 3.0790398503432987 12.788662691372966 0.44841710349880837 -0.4103033273462224 0.3192165985410309
Ni 6.741724641676524 6.404129200420308 1.113413317350864 0.6562206029724699 0.04157936610368323 1.4879063982972116
Ni 0.5262923488477677 1.2674560738429979 7.298148768388848 0.3290407837203043 2.2335625676246953 2.7861764549480923
Ni 2.668656355724823 3.512714777307646 3.1276381407356344 0.06590405889197683 -0.08147774496051774 0.5756316883748086
Ni 8.976864325572842 6.123272879926718 7.788956592130303 -0.6619004269660664 -0.6992436435012152 1.3440356929217692
Ni 7.087800696388811 8.714216654826865 3.0072897644896575 0.7845801000861907 -0.3115146019110828 0.34480318876088356
Ni 4.6712633903135705 0.5858335164273832 12.293139795495946 3.163815973512706 0.9546338916149043 -1.4886767008043331
Ni 0.509804025518028 5.566875749678744 11.501864116279668 0.3220702659397421 0.596260934589386 0.8926533361470499
Ni 4.268252723200264 1.5623412466728106 10.078953091585277 -0.16840237196821964 -0.46270678064860316 -0.12105267903966248
Ni -0.0013302740536471325 8.23134299886654 6.8434193919694 1.3109962459682971 0.9953622225722019 2.416255130963342
Ni 8.328288233258991 0.9114881422279436 5.884339275830571 -1.1492625442695046 -1.726478803522614 -3.0301319788622783
Ni 4.761682927633897 0.8152587795970425 7.959935440895356 1.233499082922082 -0.1602756290960272 0.5793268778382088
P 5.00880297681596 5.221963335671187 6.123128588479332 0.5601857861333837 0.060316023281238064 0.4442570585838478
Ni 1.8815790921712088 1.0122370853560154 9.372667867617336 -0.39565549552606055 0.2526851904777003 1.9959622965045758
P 8.122947539939547 1.5953048605563969 3.558959720738737 -1.398610442843856 -2.4701235988470236 -0.42342572366079334
Ni 1.3085186270315037 0.44469972445724015 5.29055483519591 0.12495818474165576 -1.6633137408283547 -0.2652177757270722
P -0.06353571339081207 5.0356877316580375 0.3652007224226625 0.6867591378809592 -0.05773257882477799 1.0782677011181816
P 1.440047263168525 2.555699425235289 10.919415397934202 -0.21818252871514038 0.1324236398807655 -2.304779296978837
P 8.328260305882077 2.7287467617170704 8.769795858535016 0.05079137162025446 0.623597674731126 -0.6182232977930902
Ni 1.1613320415716382 7.295896890897055 -0.033876839108658366 -2.176655055804374 -1.3787705252997933 0.8228329729198023
