# total energy = -381171.7749766172 ev
CRYSTAL
PRIMVEC
9.25661745345868 0.00000000000000 0.00000000000000
0.00000000000000 9.25661745345868 0.00000000000000
0.00000000000000 0.00000000000000 13.54799531636547
PRIMCOORD
 96 1
Ni 7.961079828074746 6.800753567811878 2.490758603340972 -1.4787972369070919 -2.776036538300613 -1.0307727408610117
Ni 1.5890187299303933 3.9568244600019566 12.67824099821655 0.09919675950683561 0.08137258684122116 0.8606135341026856
Ni 0.7348948969406501 8.61075552732365 12.538006020074338 0.040001480093602076 0.043504865261170235 0.26531753452973017
Ni 5.012375066780485 6.662172747216946 5.349250221802149 -0.39546214856833184 1.78239181264015 -0.3613317825435261
Ni 8.878475418663351 4.700001252620003 11.773654714924671 -0.8781741686942681 -0.2484325858489334 0.8628066850992624
Ni 6.538365488152272 2.8803446410555607 13.004625628625279 0.013462553262809072 0.7330186830691311 0.6914655422176931
Ni 2.752390417350815 0.6291898790592946 8.109667052187355 0.08278720780056065 0.16384740560768557 0.8779710515445267
Ni 4.046243385053526 3.605915347188297 0.260116505725066 -0.1293689122148417 -1.3288525574234278 0.2777040811195411
Ni 0.2545801227982188 6.56782004503779 10.726855314330795 1.8958116577249027 2.3701596221568595 -0.20391727704537782
Ni 5.633271942221384 3.284951391987663 2.1079595175775023 0.15253635147024053 -0.8035427572316225 -0.6338514912486503
Ni 8.184932609081176 -0.25717660400701436 2.498968297401866 -0.553982228425833 2.8554645998209534 0.16243278464834607
Ni 8.310026537978372 4.295440784775401 2.9773613977512636 -0.633287134104748 0.36072654485935945 1.5729134965672265
Ni 8.226309689306902 2.5902792750704693 1.4829638119075315 0.39186877479011867 -0.220995058463271 -1.8157246224643244
Ni 8.593751120975853 9.250073071589872 10.730676446034863 0.13412236773942707 -0.6391402504514154 0.1732707558041145
Ni 6.742001816538347 8.481634969813884 9.28352000760321 0.3518834926464327 -0.9250705761354907 0.09959785159999622
Ni 9.135207705030357 3.391097024862026 5.06615138614768 -0.7118394778883548 -0.5146394649621523 0.9989555963504151
Ni 0.9170808655935981 1.1353241363949291 6.516274570488135 -0.6628905587934777 0.6366745625197422 0.006280176581756926
Ni 5.302107194535572 6.536292005832236 10.360436738895615 0.5037981513722742 -1.7303776243563875 0.5664726475833599
Ni 6.965234404172266 7.691795568377519 11.640437178509332 0.17195023722047806 0.6666934774793356 0.24384290959572197
Ni 2.617558526843448 5.724338545187983 1.5961435484202682 0.9762273015149638 -0.46868690949143793 0.60423881058854
Ni 5.808999568844469 5.402597034117336 3.386348380084443 -0.2315509796022464 -1.057237877031076 -0.3453600897056181
Ni 0.60386007093185 2.2167007059989112 3.2216722290948026 -0.6177885242485167 -0.7573199788186571 0.7290332160588218
Ni 8.833201302470055 4.04530846668601 9.244095148008267 0.8391247681012903 -1.033818212555555 -0.6324921490072783
Ni 1.5225099331917258 3.719114522597784 7.415332801808916 -0.7685577565160054 -0.6983707539779586 -0.059082150874136964
P 1.084283147499033 5.814007398912057 8.471480460416206 0.22026589360673032 0.14261857813589632 0.011984168945069682
Ni 7.055680813766353 1.926265075313813 3.351787872985836 0.6038261485311536 -0.7282713981921328 1.5826800890356871
P 8.423512668530364 0.912513650519018 4.825308083719702 0.4645921705967741 1.1559756946236222 -0.007398863567232419
Ni 7.07207428335914 5.207773005591416 7.9892801132889915 -0.8360535853751343 0.9063346902888842 -0.7581656146484039
P 2.9552121633968746 8.704654655245298 3.1194800975547587 -0.6226864757707663 1.8227982414816544 -1.563312740252669
P 4.916059961691294 7.03499227365349 13.12593452662666 -1.678816464449644 0.01350137692054449 -1.5386327210074857
P 6.516131092916882 7.505034053694241 3.9065508446968247 -1.668238688933798 1.2196498357438155 -0.4078666928802718
Ni 4.8869571562707845 4.049816439408589 8.926760712529447 0.3946352817916623 -0.15895331074017785 1.2710551867989852
Ni 8.620910036721328 7.205175186393977 8.273734117745484 -0.25096743645564523 -0.49597788399690707 -0.32692116627414014
Ni 2.953110911224338 7.967142912537353 0.612864908436008 0.38010006428996473 -0.04761040278911155 0.06579838655204798
Ni 6.488000232333888 5.453489917133229 12.392784502084789 -1.1016876227040187 -0.7011542302603666 0.16684042679773844
Ni 1.802235657429136 4.645924093184053 10.250142290057678 -1.8031979507522236 0.8077570524232863 -0.10512520917612862
Ni 4.534604011127099 2.1751199801881813 11.683710013999093 -1.6790985144664372 0.9056039827704467 1.5322227037160836
Ni 3.289570444120244 5.449287412788155 12.865962424134594 1.1434243403211726 3.400764212871124 1.9597287680938378
Ni 3.913031402608688 2.931061648338951 7.1164097785379195 -0.7689645050361208 -1.6064800196687623 -0.8050411961540199
Ni 7.602182254358445 5.791337942654159 10.057232530030792 -1.7487702679309622 0.8016871920801225 0.8742768905223911
Ni 3.39870596444716 6.011238147988019 8.736153998936603 0.2812961693461736 0.35919930958155555 1.7524351183770595
Ni 4.404807720539821 9.19864330475897 12.306619278084527 -0.07029833130493054 -1.5814469879595345 0.1827874370452981
Ni 8.274490383395248 0.8166724842458355 13.455624695144696 -1.2472336588993551 -1.333400067584794 0.13934762069410842
Ni 1.98192511634229 3.0289781482556695 1.6517175029059936 0.6994842987571115 0.015428161629612141 -1.0645565221796762
Ni 5.104543207229604 1.6566290641515797 9.69143692495337 -0.28298924077788035 -0.48619175114442065 -1.6202328504784806
Ni 2.9997179803376564 6.863069116822973 10.971545666991842 -0.6698381937559044 0.18142449525950044 0.46879361027263133
Ni 8.417255195100253 8.019109563183266 4.859761214055307 0.6008642376893523 0.6436767048691883 0.08419925765673886
Ni 7.336489562251282 1.4148091885773353 9.094634099203644 -0.15877590462204913 1.3208988497939895 1.12702790124102
Ni 1.670541760254324 4.547878000622332 3.6440581652594664 -1.5072603773437911 0.8934778889308741 -0.19836472265826485
Ni 7.914620864841431 0.2359567340496419 7.216935718927934 0.39434114759001115 -0.11953778505703286 -1.1674150468088154
Ni 5.296553224035474 0.45031129983915463 7.614095521081155 -0.02630572777406437 0.17770745141922942 -0.4762441530134056
Ni 6.884016842225839 7.39619474512733 6.507684429447984 -0.19797468630869777 0.15563118834548034 2.102213648865347
Ni 3.3491275211162894 0.8297354228620648 5.866566473077979 0.32801568488989963 -0.09457340180221133 -0.9059873342517945
Ni 2.7716904648386538 5.704871878585141 6.688767009294913 -2.151036069684689 -0.16171261865286987 -1.8170178873544516
Ni 2.7721440390961614 2.8255639786895994 9.142024278157475 0.6329693457540131 -0.9549223693896005 1.0832078187322765
Ni 4.413240499082469 8.384218327242174 9.523956018861181 -1.9358504188143437 2.097265817941769 -0.3131827336421251
P 0.5034313250255871 6.302229175723127 5.06617823033843 1.3460128712527981 0.22531116934012166 -1.8751603000231383
Ni 0.5415658121410064 1.542587536549578 9.505449263493105 1.0277630075004107 0.6291705408332132 -0.6504849860402733
P 9.353164020689182 7.958163993562195 1.0221471768674424 0.05029643426170692 0.39650113135580745 -1.5738054122538767
Ni 1.2732014540598493 6.450908966010737 12.988490418660746 -0.2255443683968503 -0.7313086423565599 0.08866346407567956
P 2.029383794265623 2.47923689153852 11.199599101019844 0.36872961766949397 -0.6987235093316869 -0.8615314179312646
P 8.58619772109572 2.4546235456055876 7.676605459059752 0.946311230681822 0.05907135224085956 -0.4909017550255803
P 6.305441221995683 4.12161076473985 5.29634495014172 0.13299211078972578 -0.4955585370713014 -0.8288002462468307
Ni 4.413231242464969 7.32782536827113 2.8202728961265064 0.5843862946389871 -1.8904851033056669 -0.3754114005650438
Ni 4.943774274486781 4.897574496543471 6.79230135037248 0.2772356261235548 1.0307439445056055 0.41331640314093343
Ni 2.4329815738902076 7.352447970821562 4.6554297136949705 2.445902778626446 -2.4399357624097333 0.5655167114279938
Ni 5.166257076103187 0.26262597472936006 2.7793845653047886 1.828121967687413 0.06639873914020823 -0.351306279986724
Ni 3.460910434048252 1.6106236751757725 3.311333677524876 -2.5086176411571635 0.5224535616899324 -0.3349813175744554
Ni 6.521250002394472 0.9342148645863989 11.680268403612532 0.663187006987974 -0.7594848476804598 -0.7886401290881773
Ni 5.388795417424594 5.501939053129079 1.0654301946364522 -0.3059877585555827 0.7142066925689505 -0.06622981766251175
Ni 9.073484579539272 5.171218623083274 6.583919154194072 -0.38135347708109163 -0.022659903491360975 2.202635024807903
Ni 3.5276599028419233 7.946287753309487 6.9076082575867535 1.8651584516154203 -0.19297800442505472 0.4576687040040634
Ni 8.698684136957693 2.3840788636368493 11.59642011097256 -0.7179790151271893 -0.3562538537999865 -1.1236206753316842
Ni 7.526120628359611 5.823967519342232 4.848692150848612 1.316220984702346 -1.1693685709907602 0.5730497865802453
Ni 0.903802247789615 7.231945324204447 2.806290775392511 1.577121106890671 -0.6732647029389501 0.37775290421402685
Ni 5.019743334310615 2.4678142255433193 4.658220583871269 0.5439685529435729 0.5009478264076728 0.9680604494334554
Ni 1.0562726229435415 1.7035601148774038 12.99903092900818 1.9628048359160002 -0.3770846745024087 1.0199134295490049
Ni 5.599263129525788 9.054110479111433 5.253546979129719 0.111026405151912 0.7521656883112272 -0.5832118147149118
Ni 3.7430706486882044 4.966156775602174 4.715609761048776 -0.4451913974726591 -1.7290833310249962 -1.0262439997527228
Ni 2.287726732077658 -0.16261747925760453 10.847717117706917 0.7169238343897975 1.7180126750331317 0.5724458344476593
Ni 1.286179231795077 7.867467655295603 6.526380945474812 -1.864348554119615 0.4642630693921295 1.1090096102867288
Ni 0.4562346093775086 4.924724155671447 1.2720739980483295 -0.46983439283231987 0.10826041237100065 -0.6755570985175527
Ni 3.7181055512902668 1.2092752536037272 0.8557835445075223 0.33150338632818394 -0.06146324951180382 -0.640813010168148
Ni 1.1731189056480926 8.30996174165587 9.108886513168644 0.3613644355536745 -0.18641937737093053 -0.7200286985673664
Ni 6.43967143236554 3.1487124956202717 7.219117503672722 0.8002640864803509 -1.9879401975310473 0.21635627413967898
Ni 6.373125609156872 8.142555814165432 0.4617173039228548 0.711112369914343 1.5685487918406276 1.206891507636883
Ni 3.786039867123959 4.417091251962536 11.153848269025291 2.4559048841444797 -1.4697212427477526 -1.5992721890664134
Ni 8.20044670001145 6.505236054119191 13.498491165126199 0.2578937312618333 -0.014741677085548804 -0.058271224937067385
P 3.7030172647650015 3.9880840573000054 2.730855822398437 -0.38242202755492205 0.2042877730109191 -0.32738216507095874
Ni 1.181634993748242 9.195958885683922 4.2488272360298325 -0.43452131935332255 2.1717920712851178 0.4923482576641199
P 6.383020933264546 1.1356758878599353 1.0752338782308744 -0.032163986327054285 0.3630598209782263 0.2363805397804058
Ni 1.3514383851712226 0.3951205693179358 1.6564318981988266 0.43341445944238904 0.34939826433073373 0.042713736818442566
P 5.388341843167086 7.026328079673338 8.114964614382698 -0.04462946578391669 -0.37739423532302746 -0.6318853686612149
P 7.42008607489525 4.6507838173716385 0.9880078458650933 -0.022492267565245132 -0.31881087846218 -0.45743113407196057
P 6.141543552537806 4.281740990875161 10.645269339007863 -0.22732999954236333 -0.79099294559107 0.2528296864753646
Ni 2.240268054154325 2.8591377303626886 5.206670542447146 0.6179525606302066 -0.1434223049841143 0.0059009388654672566
