# total energy = -340889.1844533415 ev
CRYSTAL
PRIMVEC
9.10443723448239 0.00000000000000 0.00000000000000

0.00000000000000 9.10443723448239 0.00000000000000

0.00000000000000 0.00000000000000 13.32526418328341

PRIMCOORD
 96 1
Ni 6.4782076970211255 1.9572537106492467 11.605812187860742 -0.048765856549793436 -0.8982138609539627 0.5899995270607065
Ni 4.761256503089293 -0.03506665050347775 6.076519925649894 0.1162683702771417 1.447373985400804 -0.8715749182101957
Ni 2.7585989638854604 1.9187237322167205 4.997400112871929 1.0027055503111504 -1.2209865522773682 -0.47304004425381113
Ni 3.295305539640994 4.60989523384526 5.193801943624362 0.8940260481248602 -1.6566550978612569 -1.2092828906871949
Ni 5.1634541229463995 4.306590011373338 2.5804369627151926 -0.5148158426390166 0.986814847222823 0.5583261072168255
Ni 7.239338650933977 6.228564027687509 2.4675328364057036 -0.37662496125717077 -0.053577676116139984 0.40546399697605007
Ni 5.123376390181754 4.466354676197054 11.637113243118545 0.09731856864751627 0.09142945685659093 -0.08420594252495821
Ni 5.755342692860616 8.014408498273152 12.27784529797955 -0.11910635394656909 -0.13472297743790346 1.0926067434486733
Ni 1.7414603390028065 6.460690759756433 0.28443172405731343 0.015343829445921962 0.6588837516269298 -0.15151896594931968
Ni 2.691444634745973 1.4993733525848312 0.5654201499475234 -0.3552518948980334 0.7266156077562648 -1.071800348226283
Ni 0.6442053976710265 0.44296000630278415 4.578401164517804 0.1802708412710315 -0.40334926462589243 0.7913796395065275
Ni 8.721477303808797 2.7042272646418293 1.3330598660487998 -1.0175950658284731 -0.13228222920689475 -0.1259881686680669
Ni 6.9317088207693685 0.9154238519506638 4.957691109815818 -0.5733135817645933 -0.05490102291325384 -0.9539126971781635
Ni 0.5485387024027243 7.54496550490408 2.1974824814249536 0.866134978141547 -0.3453320646811601 1.299491073542175
Ni 7.5993098908359675 3.926589009526273 3.614851257275473 0.6110185525145349 -0.7142848541050536 -0.42160306862975777
Ni 7.653362934775926 3.91663785961447 12.59891782974048 0.1479415330107065 0.01964271393159198 -0.40561132118719184
Ni 8.199000963471514 8.957282228525816 6.815459724215052 -0.027036949513134078 -0.36508070806299703 -0.18551152084468053
Ni 7.122829167474375 0.48854865493349975 0.4456339795224517 0.29485925274258895 1.8905470668918536 -1.2426599234857438
Ni 1.7743364619044728 6.6387553434481505 9.14623480872213 2.235313745987847 -0.9592611059742705 0.1165661040232186
Ni 0.14635291831403946 5.154604609941576 1.5394146676004858 -0.18382204895739954 -0.9306508984367456 -0.9763440295984863
Ni 6.3660501345659535 2.1015954587752557 7.141262011126193 1.1669705030722288 1.0099468052545961 -1.76145789070096
Ni 3.1141272384105423 4.323770084459863 0.6191053746226732 0.11072250075824802 -0.39717244639121924 0.1863029063977243
Ni 6.2719102534241005 5.608697522110923 4.780918445769559 -0.5715186946476997 0.2754746775683901 0.1687075619134643
Ni 4.952030881178885 2.76303282482512 9.754079815356773 0.9411911358464371 0.5306718358346668 -0.4923683122687778
P -0.06251652880547831 5.645379299782153 12.36767058630969 1.482558503721737 0.11512422937036947 0.8853370049912946
P 3.969170462534053 6.01134125939317 12.691048361581752 -0.09921115768453882 0.8027696265110239 -0.17017771870108758
P 2.544062004579211 8.474774367706207 1.6961593905891201 -1.4072660616363248 -0.196917448688777 -0.2925948821884445
P 6.567230884429737 7.816377883697093 5.91680351434359 -0.02222718682931656 -0.24906482011629366 0.435555674155108
P 4.655499360019297 0.8117607294476528 12.80295373112516 0.5262770492010808 1.5034590013198301 -0.7203333742919789
P 4.23284406966647 6.3076269607470685 8.239290829624032 -1.0853351494879242 0.5984417442907887 0.9658963519026011
P 4.663247236117142 1.0973851347844228 4.01762063579174 2.0643798658470254 1.360337001184954 -0.07970394088954659
P 0.07196966599982896 5.7303692214900055 3.5939438275797144 0.059177538801420675 -0.18876036679928138 0.26098316882043443
Ni 1.091967994622005 1.0307861763170483 2.284523632844727 0.6741213945122907 -0.40517217676724415 0.7002281189016715
Ni 1.811109283948181 6.474046969198899 4.893237156764017 -0.6214937410142458 0.7518556132699761 -0.23327721826473372
Ni 6.228573132124756 5.435467394597767 9.230530061867979 -0.8133864827949218 1.5278294597443944 0.68965599981278
Ni 8.511173907822757 2.260577141995665 10.165151530199273 1.0424488916473595 -0.9525309863392886 1.1125307360661099
Ni 2.284121216718376 5.173204975238753 7.139143408578638 -0.584430260503045 0.4588418983765581 1.4129073190825021
Ni 0.836186113695947 9.084188979322363 9.227065823495206 -1.2713295235062945 0.22477972231668383 -0.39684643051036816
Ni 1.628037259770195 1.2873674268334596 11.356363353484225 -1.3007288026040178 -1.3464772124837263 0.4374523769571885
Ni 3.840115064547035 6.7066835497536985 1.5085397000058773 1.2496859770945896 0.3052971602464613 0.5732963553734127
Ni 5.753503596536567 8.037533768882467 8.185829574105178 0.03163511040677777 -0.43931668385943695 -0.3539948825624807
Ni 5.400014715954984 3.2107526309210344 4.903524260410262 -0.1857992272884284 -0.8689688480459165 -0.2426463181844595
Ni 0.8971166495328653 7.400824054397521 7.182930289078023 -0.2577186391365497 0.3993067191254026 -1.5832544734819185
Ni 5.110821371217092 4.689832192880605 7.30649571140464 0.7885051461722097 -0.7216662341707895 -1.4617135419519276
Ni 8.229491723814267 7.254069630400855 8.847855086801248 -0.9790992237461204 1.3021938171853187 1.5962028061124702
Ni 4.784418191447598 0.3841489834571447 10.633720497592561 -0.8689912166434196 -0.25386532682873053 -1.1370315494209513
Ni 8.402776477950908 7.466048242840484 4.66740068038957 -0.1417919684695429 -0.3692806050769576 0.6336681715932506
Ni 7.332486148415824 6.0430884320761145 6.988728090364648 0.271303576909836 0.04340562067914461 0.0789925166448188
Ni 2.3332487601072964 5.230180543535243 2.8936478129126795 -0.21478481588750106 -0.6470235098542341 -0.7429624245454044
Ni 2.2039566467518372 5.251821790873172 11.63503470009488 0.2666251975975602 -0.25771452537149164 -1.2371366796746692
Ni 1.1392018150633907 3.2901524281587613 4.096319391361389 -0.7474094045731644 0.21492082724473308 -0.6743268256548773
Ni 3.4743898203044603 2.5539767367420234 2.729400123188165 1.4949365656711155 -0.16814269054892977 0.448634361715937
Ni 1.032015275345496 3.1780039701408365 8.482117096346526 0.08148108739462742 -0.016887776894274138 -1.1079850256769563
Ni 3.901214942916762 2.8160570673560827 6.939424831336846 -0.6559670922007671 -0.7528606574957228 0.5282233742941742
Ni 4.038100156936855 6.73042792209586 6.056692282211719 0.19466850475360023 0.5000973054819193 -0.1764337269131284
Ni 0.7501591965855744 7.2232966325034225 11.021912761631436 -0.5843173890742647 0.4237797645661024 1.6677620064076955
P 0.162350325002081 5.5563287990617996 8.190054032988138 0.4234426929416578 -1.2566518668894615 -0.8468691879333995
P 8.700509784827203 1.4103774784879637 8.100867876152794 -0.08333382433265002 1.2021748188875039 0.41599060753898676
P 1.979213613290847 3.2979185131311017 10.402767327484874 -0.7031856588680986 0.40462221780104507 1.1425555645629744
P 4.11299325773694 6.129862823484528 3.82677615353534 0.92556937014878 0.031122432436417363 -0.19154024353726368
P 6.859191978090949 3.743161912295624 10.416425804243964 -0.06052299708572157 0.3418646749578499 0.6573781136156808
P 6.531541490418512 7.961939626414303 10.252045189735632 0.2812792000653091 0.24354234763616767 -0.7749366634591557
P 2.2226389519842433 8.412017481757387 5.769719509718555 0.16938273360361794 0.1693624218886438 0.6356448357036473
P 6.695375838691978 3.7986989795069688 1.225942520053988 1.7860384082538014 1.1128055869940512 1.1219576858069646
Ni 5.138999604498913 2.8561621134324717 0.27974567020589064 -1.0916790894280812 -0.9012742450468414 -0.009127673332881055
Ni 1.7999017216961868 0.9968994608808804 7.05232986809006 -1.7271025531495416 1.1649997524991034 0.11040985461383566
Ni 6.75438169649472 1.0344370556534006 9.137573757568337 0.18662403718256892 -1.3512617783565632 1.2926573384497932
Ni 2.912809921988043 1.6469926981200345 9.298689520879622 -0.16267215435266177 -1.1395332327968826 -0.7218030168589697
Ni 6.38326662540147 1.8117374901182766 2.3028454023621223 -0.3077782747971022 0.71209016044658 1.3328807047462141
Ni 4.467110344488618 6.870791031144597 10.473444163395518 -0.5908207374104212 -0.12823377016913398 -0.19629035662773936
Ni 8.236301842875593 7.378181318962338 0.3243419351766002 -0.4134225897014944 -0.9129434538546536 -0.735445804453385
Ni 7.76116857622667 3.889160668000726 8.439302569745204 -0.32253537850161873 -1.0313360695636495 -2.5396110042148843
Ni 3.1322996951570743 8.41704313111815 12.255911798205968 -0.4165721910740697 -0.8889982558929657 0.3089684384504614
Ni -0.04951084019705118 4.596775739771235 10.201702203974136 1.0148434712252652 1.5340774975366356 1.9454547746733268
Ni 8.863834284614795 2.31700644405729 5.975515298823229 -0.7177339889959188 0.24484178317388156 0.6556467327468707
Ni 3.496895989180927 2.569053684824316 11.838684573340258 0.843249074682309 0.6323859624467174 -0.2771348388796324
Ni 1.0530647342623205 3.378592931583515 12.612629112235608 -0.40957724781347526 -0.2829043943735579 0.27390399064716053
Ni 3.2720437024729634 8.547700910060774 7.809990210524065 0.32289404739261807 -1.4051276751370831 1.6661854059491947
Ni 5.760177149039176 7.828796336103041 3.971048707938266 -1.3506441993772222 0.2624042175376771 -1.0289763110822212
Ni 3.236044757595315 8.651191048256079 3.919653249230928 -0.3532310078132626 -0.9879556456954857 -0.9053473866749504
Ni 3.4807538219406458 4.623051145668276 9.579158993846708 0.2427926139543367 0.50667675847165 -0.7022376931325325
Ni 7.214456223935846 6.177633805723532 11.343637171099305 0.009457288758157906 -0.06995097526784082 0.040975671081413305
Ni 0.9500935489901392 8.900324869103821 0.20946942953414527 -0.4730025061476563 0.10198280689240502 -1.3932908304031553
Ni 4.439696883935609 0.41143042967006166 1.6053344350491772 1.3596826554304067 -0.9884618959079428 1.2438855683627288
Ni 6.103414433279781 5.84398349390482 0.27755423216035446 -0.5746068466547201 -0.11034609125543578 0.1622209257478561
Ni 8.151785351904625 8.895290115305809 11.482007318834508 0.06351987493051642 0.10843396183438746 -0.5212978508189344
Ni 0.08054149366859631 4.838270937768106 5.621302615480449 -0.4463113700097152 0.06724514630090354 0.8345566891146338
Ni 7.617363989898278 8.667187544500395 2.7019502448861643 0.02623502243712901 0.5007477945817247 -0.18063028149297924
P 8.357226978400359 1.5256578629191184 3.2589997752280957 -0.8301372198906994 0.9451213241387787 1.0736520567230412
P 1.6665581337654733 3.161652400843857 1.9785617355839074 -0.46188042809256585 1.1915633619202448 -1.8775079743197083
P 4.78168686027327 1.193955900671428 8.14258895984066 -0.8717178715459633 -1.141435077805286 0.39777022787621813
P 8.797544877013843 1.501549313087046 12.654683418326742 0.27083229370037226 0.9780800384529865 -0.3198750580606362
P 6.1260207509659725 7.9703794397429775 1.1923562510469963 -0.07639750222413294 -2.625606177429781 1.6409590272822383
P 1.7641577010614755 3.2047254934630156 6.409585732597299 0.1852495254325455 0.2809624401558387 -0.8776689469230755
P 7.081604275616512 3.9896554463415157 6.155832320290043 -0.13860508610112904 -0.27310000668862644 -0.8268593204703759
P 2.592060597749409 8.453315209113232 10.097112249759302 1.1936284719793895 0.6892932171567226 1.3739242529510856
