# total energy = -340889.5238059655 ev
CRYSTAL
PRIMVEC
9.08248723751474 0.00000000000000 0.00000000000000
0.00000000000000 9.08248723751474 0.00000000000000
0.00000000000000 0.00000000000000 13.29313814398175
PRIMCOORD
 96 1
Ni 6.17982404661565 2.2169079163068024 11.731912005804965 0.6616772552116669 -0.5991138306571488 -1.881717898635998
Ni 4.8514830787452325 0.15255035951705825 5.920351925657385 -0.950150401922254 1.6196924045939785 -0.2881119067164264
Ni 2.7491416531683126 1.0957203114114245 5.041688521020895 0.7767940283828687 1.090643191964399 -0.7407613031290275
Ni 3.5254036501321275 4.111569194664007 4.8424105825037485 -0.26583484048578093 1.1876213465533612 0.3706427755318068
Ni 4.991298883271617 4.424851417967148 2.5391091418215135 0.1118275608969687 -0.0018447665182226292 0.882926338667273
Ni 7.31248283256318 6.026293686753756 2.526773308009136 -1.3596376611250842 -0.22993632681695886 -0.41628756995411526
Ni 5.092359715866464 4.485558760922479 11.709579078576828 -0.7110100400085239 0.29035288023180317 -0.56093449137395
Ni 5.66063276105334 7.737288913458855 12.504867977509093 -0.22203892634675307 0.9277892606182344 0.6399442344099495
Ni 1.7952262109312698 6.592559502318681 0.30755299051794943 -0.20654931535158622 -0.12978568803728618 0.20973002707241298
Ni 2.7264899306472783 1.4101923405085732 0.48501479531595904 0.016699829253184143 0.9318150939481757 0.7513123391719964
Ni 0.7051633806579176 8.859348437104039 4.654950776041282 -0.6983589269034166 -0.2865113949985259 0.16984861749644298
Ni 8.631269024133626 2.359702776561694 1.5654002357151484 0.2551431650998896 0.9759007714134804 -0.6972065584665283
Ni 7.0397629961000305 0.6593912792878278 4.906616499442681 -0.21455084549982406 -0.5305412237940734 -1.2302654064761327
Ni 0.2742711252388484 7.106537440356102 2.2768750365734935 1.1911319308097807 1.6229006271186306 0.4191147549902653
Ni 7.607273112380826 3.9190749656701023 3.727236492235948 0.32318406782921116 -0.6376356408814309 0.3966170881083815
Ni 7.446830979929313 3.9979382000927726 12.528489709639288 1.8776792097902502 1.3073056844905873 0.6361009494044594
Ni 7.874498044222794 8.896377736509917 7.1435858129846315 0.29366831775828134 -0.28283548880883547 -1.2150089945376945
Ni 6.890837457135556 0.607241455562377 0.4095665759967002 -0.4863778990132978 1.0160994551195532 -0.6450964680348503
Ni 1.599671183826062 6.6247750836266635 9.194238805174539 2.016780004580875 -0.19343154702270557 -0.48729475440061243
Ni 0.1587264506615263 4.963179503590333 1.4032233482509993 -1.6166016814837962 -1.7807578765811525 -1.5985533086225179
Ni 6.616664422756061 1.9478937345303333 6.8912552515365055 -0.6709874768689993 0.9171466933027237 0.17377494913404265
Ni 3.4768123448043275 4.47142641118602 0.6343844678936164 -0.5206833571633871 -0.507818585385577 -0.24685264295632323
Ni 5.948075308906464 5.575675177868996 4.6850065419460964 -0.6304005565855725 0.2801301740625305 -0.29603553243887726
Ni 5.385279003366814 3.1456194571822294 8.914470958817116 0.39579382087613774 -0.6007225699051654 0.45100337616874586
P 0.2974160268027424 5.754200541892031 12.258187631209458 -0.2649907473179307 -0.36866534009046187 1.0674109609093358
P 3.9354961021248056 6.148752858666789 12.739372341767151 -0.547947592195979 1.0235895928490115 -1.7488787684843685
P 2.3449074052759022 8.334743989303343 1.7268986614021036 -1.5017600163508524 1.0292411347078338 -3.164245604850957
P 6.355443014805995 7.752156944640464 5.772611651243429 1.082563243169742 -0.6553582549721745 -0.05271275701268341
P 4.730994806506243 1.0396813667623541 12.672813152452438 -1.04556095491378 -1.1537984844666451 0.4476614562797065
P 3.9743600639000682 6.331274516959774 8.438404229671054 0.3813964145038851 -0.21543581920793864 -0.2497155663264151
P 4.800330512089874 0.8792710230152626 3.7005439712587753 -0.46451118084719356 0.8242409090109224 0.022870476840270288
P 0.27333017958801475 5.518173952816603 3.850530344702182 -1.140511280439436 0.494526239152045 0.04752529927447299
Ni 1.3356705348609847 1.150578532753464 2.6876468585920628 0.5752059136912998 -0.49037107933309093 -0.1975774508702791
Ni 2.054876348634288 6.232248161447811 5.095033600032538 -0.4536068752298639 -0.2890493309290313 -0.4187851395649885
Ni 6.079217338369661 5.673384572769271 9.21896405947246 -0.3040465756688119 0.6410860613238766 -0.4431561122101852
Ni 8.665319267810995 2.282701451969341 10.173092031904767 0.0017190395736357488 0.8070790525196553 0.8781325168230553
Ni 2.799013589159892 5.0337504274028575 7.191786571372413 -2.087749136700585 -0.0211753485260345 0.14447877127308664
Ni 0.611301327241167 9.101832674420228 9.09321066953281 0.2766517285956268 0.24379431574597368 0.2749056924387975
Ni 1.378439966036426 1.0357214024403127 11.518849576802586 0.6316285154554026 0.25152176629721845 -0.36402835553908275
Ni 4.249768316508457 6.771802382812911 1.5298541064326416 -1.4798066520082127 0.4269987857240323 0.9893162734884381
Ni 5.769913244362516 7.891936419218939 7.9096163883686765 -0.6776594895725362 -0.23036827214805486 1.1358303300239987
Ni 5.464523702242526 2.778251023930107 4.693727545941565 0.09907283233446162 -0.3782462989106776 -0.011785679781018412
Ni 0.5996630284286356 7.552959840257415 7.032122808054845 0.6621901902923434 -1.3017479878971516 -0.4166830056203211
Ni 5.054449415223803 4.823499936368607 7.051251433877439 1.6986856925697458 0.12294809629016244 -0.11428579262947415
Ni 7.974741452989697 7.343045401241319 9.177157371916598 0.43283184746604164 0.025397357027182068 -1.4902391601954463
Ni 4.568645351789528 0.37556719424640367 10.230159114079653 0.3099089479868598 -0.1593726576657836 0.8566108407011955
Ni 7.952153307877502 7.216626265006245 4.530102001804559 0.8853359765500302 0.1261977135757117 -0.21537745516617746
Ni 7.2904487191565925 6.03939063297482 6.85279818517782 0.8641799112977053 0.046600473467358454 0.6322085563285886
Ni 2.0401718022182673 5.5424423580195725 2.5341237647197508 1.8720212401735246 -0.48774598300541805 1.2942038570013066
Ni 2.2865433439606795 5.3131731392551504 11.395794593743851 -0.8734633934821603 0.3781876777586003 1.5127993048841495
Ni 0.9570216527832311 3.4120451301702075 3.9368820896375203 0.8852516443663399 -0.29601933448896117 -0.2182591475893467
Ni 3.2403497963539962 2.6576265143864597 3.09676930097558 1.2147637112961078 -0.8923131791988117 -0.9097375453228461
Ni 1.2065357350197397 3.46689426902527 8.385550513204873 0.10723428509933144 -0.4292775544558801 -0.3931098462860714
Ni 3.967166734214158 2.8060161866192814 6.8471625020084925 1.963844075813792 -1.738920371720076 0.3041013401661472
Ni 4.388058263222678 6.941481404520195 6.068982283795101 -1.3967006274156526 -1.1696382797123792 -0.18061485487401152
Ni 0.5631723205005044 7.60882621765392 10.987602198026794 0.0869120286022116 -0.0655343342573839 1.856838104675183
P 0.3424515384789847 5.508982475995719 7.9383561019105 -1.155163740245288 0.7907152664496511 1.118988061655679
P 8.676726871454306 1.7215399940855798 8.083862992776773 -0.4171535174988364 -0.05114489830493127 -0.3035141002041095
P 1.734019331192196 3.04741052549821 10.53708450474748 0.23143990794567884 0.45226758759315017 -0.5573891972248529
P 3.7954441529370153 6.0437320617499015 3.7886904156208003 1.8401336474363081 -0.12004969169644486 -0.27661856136484614
P 6.7807486324854125 4.135982919658611 10.439167120895428 1.0402701388284858 -0.8453198411684086 -0.7069883204436405
P 6.451926273964353 8.081333520153633 10.515563551855102 -0.3794246354894949 0.8154266531534021 -1.052782926583516
P 2.487711348017771 8.085892928616166 5.997811007593387 -0.4992107891119079 2.3025012995779375 0.665202494756106
P 6.890428745221584 4.004459425742373 1.4718424456121324 0.5890433337950242 -0.19519146713660576 0.6181307380792838
Ni 5.1540570499023035 2.8608017480655037 0.5737080053940086 0.06849341688570784 -0.22856927126610316 0.05976220766029707
Ni 1.2952897977605364 0.9224173774002558 6.87693852731441 1.6237871434886422 -1.0749376083036843 1.6015141910230548
Ni 6.922072129850005 0.7637862928519896 9.016615332108337 -1.0523399255088264 0.1151849074049758 2.2046865080202935
Ni 3.161958851254138 1.9504005009360292 8.955081482838086 -0.8926674772144367 0.11730581040272055 0.7963668083084736
Ni 6.429392623774022 1.9008101220407416 2.485457982998738 -0.2736808188927609 0.27021625738292815 0.8470278249984508
Ni 4.3641168275508875 6.955386692082224 10.53103647666939 -0.6506271680450925 -0.20864759264151164 0.32017870534398407
Ni 8.11497505191703 7.564894228145403 13.24939031548253 -0.006030522464796066 -1.4087261911216191 0.925189361101542
Ni 7.784481515792173 3.8345987542955475 8.219226562186952 -0.26715510195910114 0.24301629992936855 -0.2762058993074598
Ni 3.1915495938257217 8.353290427710702 12.83090837026905 0.4794307782715033 0.1842560511710246 -1.2515315149437607
Ni 9.084485124293856 4.929510724366005 10.15843017317754 -0.10262635401367487 -0.7348680775730442 -0.04821821157643953
Ni 8.888421477917925 2.1534758272583248 5.900731029040629 -1.0803916894397199 1.891645185052039 -0.7793013681857547
Ni 3.4911445092542843 2.6997874189344313 11.710231201141788 0.19657832018180338 -0.19518143983427677 0.09873601782033319
Ni 1.3233546825199574 3.3453070158620446 12.931803901600912 -1.14783763889752 -0.08584656345217474 -1.063222376749285
Ni 3.106301371058108 8.546674740428369 8.297961733543247 0.3259135509452322 -0.42783413714113416 -0.5427138546008653
Ni 5.337268977205553 7.831319901133381 3.372668007880735 1.4587575446473973 -0.4845709277115461 2.0882646428844227
Ni 2.9504731419909933 8.208397512964087 3.6358058205829824 0.676933410039789 -0.311390931849025 1.5894408047982884
Ni 3.4955949278730922 4.4813081570171684 9.759861580661482 0.7064905548716156 -0.5390988835560974 -1.897703218320661
Ni 7.550616558617309 6.396395948586004 11.28519624157429 -1.6289663736967364 -1.7466254536738175 0.6017949770337377
Ni 0.48504476752298364 0.2066874313931115 0.3566174934172594 0.8545680992395541 0.4064268751099516 0.6787000150219086
Ni 4.683602389459428 0.10684456030190162 1.4976312591350773 -0.36132766877846806 0.7740270071606928 0.023746194577004266
Ni 5.837432452550715 5.622250171087867 0.3416877013242056 1.9423748501964229 -0.3388706253265325 0.7861425594773042
Ni 8.097663831738565 0.1948493178670826 11.58366674511508 -0.8236791229701814 -0.13190222015965672 -1.2594692817335986
Ni 0.40390727836123247 4.662476524750557 6.071614388521081 -0.45455844050985583 -0.7036970512868784 -1.1426866908241997
Ni 8.078091072302788 9.000608357059793 2.4485694621410077 0.4176155447369194 0.7130188429084365 1.1070113489097775
P 8.582341666787672 1.7059181164848665 3.812033315400796 -0.29707065857161097 -0.3710027299743869 -1.1689155426137416
P 1.8741621052497577 3.4690922308737426 1.6926549607521213 -0.8641565142589376 -1.1128906905086897 0.3492231722054502
P 4.878267332840874 0.9388657613158906 7.978075633959011 0.33292520637637507 1.1140821397136298 0.9204055665596537
P 8.330366230580353 2.031961233990916 12.602639133320814 0.9537242353164411 -0.7265315326828907 0.487645709982128
P 6.546938170232412 7.83167411812549 1.513025166312664 -0.6924147935048398 -1.0880954858418808 -0.7017034178956173
P 2.0813790456336374 3.015848883252583 6.211936087572093 -2.3468186334380747 -0.008494924844888596 -0.8655852762856641
P 6.875506219118112 4.029654244617011 5.960842560850256 0.29592780321641937 -0.4592576457577381 0.34747456494545964
P 2.4908629709988457 8.38279942789949 10.468080309938516 0.1986133483339612 0.9238207628887897 -0.013673383722034515
