# total energy = -381167.939136816 ev
CRYSTAL
PRIMVEC
9.23525853632654 0.00000000000000 0.00000000000000

0.00000000000000 9.23525853632654 0.00000000000000

0.00000000000000 0.00000000000000 13.51673438215715

PRIMCOORD
 96 1
Ni 4.193287510940444 6.1358871576246985 10.031525063472866 -0.5107013062500108 1.4263122796344985 0.8624567579590114
Ni 8.972108869917339 8.156173797301012 6.670399897543704 -0.683411818675281 0.9002877127638559 1.0284885728125255
Ni 6.857641065888548 0.1969686659338285 4.35349707818118 0.8058562358561476 0.385443073769433 0.23387448552910045
Ni 3.0946796516502015 5.503826078169561 5.003908615919155 1.1899417671564216 0.2659189155591549 -0.6590634717379037
Ni 1.9888590556116466 1.5603892458319697 10.321162158446276 1.2802250262237114 0.6642596712268625 -1.588264267991684
Ni 4.955870496239233 8.494572132680835 10.87133327884769 -0.38256343822879274 -0.033829546954935286 -0.8570787814765497
Ni 1.3180468322436842 7.3306709970646455 13.15174205143092 0.03836574426239199 -1.8850155955506633 -1.9315332794962283
Ni 2.2549360830836216 5.140409427999497 9.133459915086489 -0.32346971739043 -0.84827378159041 0.07990937203213336
Ni 5.148656513679706 5.415666302242052 12.681792078904712 -0.8170533901235477 -0.4975501135800334 -1.6547427113298923
Ni 9.112244679672632 1.2887802986260142 3.666697699134597 0.4112268676017563 -0.173505754633056 0.41414404124855125
Ni 3.460072647100852 3.2068326286943742 4.6554466195474795 -1.7682654005410967 -1.003188146374524 -0.9269035155791715
Ni 5.22587250849742 7.65324009968313 8.089968077453 0.5215035390718373 0.10551318864316668 0.7278661923339141
Ni 3.273557370059999 0.8208519241461616 6.97990665079367 1.4014443127482252 -0.3362892377526015 -0.4584863148093523
Ni 0.00024011671633304455 8.811175258424276 10.305779912187646 0.14893012217622095 1.2939837705707005 0.5570467262837697
Ni 0.710084235850064 3.497087562449422 4.756119246973436 -1.2379481198323712 2.464156582630311 -1.61342559774866
Ni 3.177344448877012 7.911162394058101 4.570318778926591 0.4159972924072062 -2.195916218026831 -0.9507821219689819
Ni 6.492035659496525 5.816171749827249 9.878353686598187 0.286349672609681 -1.1768929043922636 -0.9515963903401612
Ni 2.5179377695348695 9.039101433774258 0.4181281675123792 1.8795913392112984 -0.6636986565170698 -0.5210281420973156
Ni 0.2168854240278225 8.23012051067327 1.3021261704249714 -1.0606296763214442 1.5286231592902835 1.8626439127236822
Ni 1.1204030689266269 6.650374163401528 5.292612026276358 -0.033749842756935426 -1.2004287827306745 -0.9776264958553357
Ni 8.112398672861833 1.263817395385698 8.591317004743084 -1.7647920972805156 -2.7100003247061455 0.6662155094016526
Ni 6.166169569657622 2.520837640647507 0.7085271712972274 -0.11555643181178162 -0.8755557572348147 0.13582186692903706
Ni 8.441977336545579 7.521794668007429 4.408482882695615 -0.6627095531309233 0.15202161661735109 -2.2077841731090104
Ni 6.498426458254313 1.4485687380873347 11.206602708708528 0.6722092650912422 0.4066353915763319 0.8895937233851196
P 7.102763292231304 5.648727281218232 7.6502146290573325 -0.059224332878956065 0.04667709234156477 -0.1610886119156258
Ni 6.832631986356629 5.644913119531865 2.7080908148281675 1.2012407371090086 0.35954152341232276 0.4360392986597458
P 8.740996530446782 1.0454035361058325 6.043129146579411 -0.9413950243271271 -0.07322373248184164 0.1148097834537442
Ni 3.011617738315609 8.368492386089347 8.921787794380588 3.1942231250496538 1.1127132843905612 0.6952987999208541
P 6.919969824293614 7.945406731910522 2.3473431543127297 1.2243577827424463 0.37057772662182625 -1.1624085947331593
P 8.328503717561574 7.2595318022218205 13.145118524163456 -0.24290394272122037 -0.4449216887510402 -1.1191785803999306
P 1.2713718366918685 5.66138882037564 7.162003780253995 1.0806305449234035 0.406221701077681 1.2822024616650562
Ni 8.42527075424379 2.8218239445709785 0.053597745188863746 -0.9950192374104864 -1.4881213425214952 0.1962790437738297
Ni 1.7973382685610821 2.5631905353053277 2.8503950632371144 -0.815372402876699 -0.5617389895531165 1.152828407243892
Ni 4.9378986835475365 4.179342270876487 9.042668090537635 0.8530141244888728 -0.33456916973770123 -1.0847096000887835
Ni 7.295540074413457 2.728473953467347 6.837088922022104 -1.4529136842721107 -0.9822686226130373 -0.42741813264963807
Ni 5.58444988330754 7.292732555884024 0.5032283023583064 2.8842555559107166 -0.23129669749959522 2.77311653644034
Ni 7.536423317187103 0.5020286423024731 1.1437396431767026 -0.5784557880871651 -0.22457172007093582 0.692715098354078
Ni 1.4822774309571662 1.9220696674377782 5.894972514972761 0.466787635586196 -2.191554084403393 1.1536408758428582
Ni 0.985845355196917 1.3416890935441685 0.4697366380590069 -1.4506840236106437 0.7588145610863125 1.2297730402207465
Ni 0.21070149505641456 4.580826655843658 12.83365204909788 1.1746912687552544 2.6902815061209795 0.20872935372204052
Ni 5.285624629831067 0.3938948496793827 13.202578454381955 0.33361529046486416 -1.1588216487128493 0.5391917003802197
Ni 2.3856426940936823 3.8377670066344103 6.624254082293653 -0.3630310246228199 1.8044696183757956 -0.19059819133896852
Ni 6.503579732397153 0.2414078054462507 7.11374863200354 0.2120769300380348 0.788233637678378 0.14375294885065565
Ni 1.271140955233856 0.5499134566942746 8.271457526915833 -0.5410084418739843 -0.08967570739027782 -0.8700996192162499
Ni 8.483813056737452 0.2961728872868259 12.654406767406927 -0.3824037727224769 -1.2857703815219728 -0.6144841424656321
Ni 1.0443691871739365 7.43163084102437 8.765805204873146 -1.594706681182918 -2.310976169818168 1.939246846090402
Ni 6.6545762059373565 7.102375411381844 11.690758355583336 0.4920291837618042 0.6259458632483283 1.2233044017772674
Ni 7.289481744955207 5.272843032315492 0.05166942325154299 -1.7107683347658924 -0.32688028573387573 -0.2186134456049719
Ni 7.462393486489962 5.035986362169584 5.282204813674984 -0.6440034920809877 0.8670320360345196 1.1342264758719884
Ni 7.501006101527979 4.168952605265923 11.50698502673784 -0.13282524619455835 -0.14699870948146296 -0.7753254142571422
Ni 1.6426476916926784 6.416879127284283 2.5788710804077075 -0.41265614384911514 0.15058745527398582 0.8590474751671463
Ni 3.502222366075621 3.6733055264629155 0.059197082308583934 -0.35161275548354926 1.3434469102978346 1.1495224827991106
Ni 5.075273151064999 4.140665009030225 5.933305301683669 1.0454246864462318 0.6001944653158373 0.6346055958058554
Ni 9.037651498217938 6.548093677501972 10.97254709241123 0.3025882459557305 -0.5758443186062471 1.3308140520251726
Ni 3.035167647032888 5.750019594477495 0.31580242884705223 -0.9162509209613318 1.2643106689863 2.223630396112648
Ni 8.992481849772366 5.028394979830132 9.046695586691206 -0.2554473266038697 2.055863600845898 -0.11425545361217097
P 1.32238740365432 0.49616148269145843 11.897442513270331 -0.0006193787515537721 -1.0915543909247587 1.855173058267934
Ni 3.972675660180299 7.471905802560078 12.744590911958289 -1.914782799510767 1.0917976172838164 -1.912977627981228
P 9.05828306530594 5.430636655979584 3.980070331517525 0.47680876726762406 -0.23609051934381275 -1.8093464868521227
Ni 3.7894850761348278 3.797196516832446 11.010826314623877 -0.24260852296798863 0.20228282676574838 -0.4756216889380583
P 6.308346371501747 0.21287270428756452 9.468242646833836 0.0655693012603774 -0.5701087016740505 -1.2639512287643524
P 0.5579074962965008 3.887942165089696 10.586386771575269 1.0060947784983578 0.34004459102997564 1.139288206665612
P 5.649863217991654 3.357034870019014 12.291050146415946 0.11632699142921901 -0.18113858858796544 -0.5120421365486214
Ni 9.05829230056426 4.093352780654295 6.955116446883947 0.0666656196483497 0.8912343443123361 -1.5272296213768664
Ni 4.370235060361257 1.4623662140181644 10.09804108800045 0.16568188771326306 0.2449369139908491 -1.012905630772604
Ni 5.291258137406573 0.45649050704991123 2.2908159851846026 0.13725294294860876 -1.5005449129968287 -0.4974243866354465
Ni 2.232946933022507 5.479943700152743 11.684541179681974 -0.236468985729154 0.10599372782401101 -0.997875733022675
Ni 2.1136643365549066 7.80695173916956 7.004669148928431 2.1856616301783585 0.0735741738427249 -2.915020347897399
Ni 7.1927331787896325 2.9862023074175883 4.4309476485602355 0.11492805419916335 -0.1820726703664606 0.22057416887576853
Ni 6.771466870499946 7.279526136485708 5.9222894855589745 0.32918116595291047 -1.0682743373508956 2.017601986261538
Ni 2.3805263609841245 7.922835760575216 11.010569574442567 -0.5841973185566326 -0.050902957497454264 0.48062377013834
Ni 3.9494859265375197 2.017691532088253 12.457495360074684 0.2626890957679476 -3.6018283367384227 -1.8074526122635193
Ni 8.0013446915578 7.363068283252966 8.985802910954979 -1.7204968749075662 0.5324222428668701 -1.3614862842980489
Ni 1.6010613234754592 2.853288469668928 12.354429877217887 1.0817952546554659 0.40264761057317755 -0.44489340661626603
Ni 5.271180685817802 4.522579881616253 1.3902499288450307 0.2674839460534296 1.0689893611400492 -0.3658718365057247
Ni 3.1839199528012094 2.8578783930542166 8.363614322644457 -0.572959283748968 -1.2195115103937384 1.6660658496521952
Ni 4.92784148723651 2.5821505206373176 2.875415225079018 0.5072408585052361 1.2984852579854798 0.4500260998571411
Ni 3.256416730617148 1.7554379015609658 1.3510776571527905 1.3305841954025535 -0.33087089495050753 -0.2254831761416117
Ni 4.932625351046529 8.440074873331554 5.732487380081855 -1.3751054177433801 1.5991947988612587 1.1719777264788334
Ni 8.93918517400475 3.8178003781454852 2.30684654657733 -0.8403699533623011 -0.6918326957491245 0.7249068525952741
Ni 3.237216628568825 4.461322413176365 2.5241281631871018 -0.42444233785076585 0.6176432569199041 0.38273133126522474
Ni 7.298569239142582 3.4727526567749005 9.213438175667864 -0.7069245570852406 -0.6017913774893119 -0.29693696120722407
Ni 8.818249466297779 5.962864592990098 1.3840189000561882 1.7210085244366617 0.6514576343661876 1.0375221437697035
Ni 3.9339245162674743 5.766947822978975 7.410900456672341 -0.49790261182344575 0.40963998273061064 0.034823792547404545
Ni 1.3259152723327516 8.96238414290585 5.046161769787114 -1.5926102036652057 1.1635128835409316 -0.5001944931814161
Ni 3.5833079341296266 7.63798345293766 2.0279020336873996 0.8566807747071827 0.007747248045586658 0.30377146763055424
Ni 3.1110629999107715 0.7941038454724924 3.7341197025034196 1.230095713667488 1.2308032812574736 0.11793624489786786
Ni 8.944661682188807 1.9411866521612167 11.074908848584005 -0.9651679583770088 0.7508868215988036 -0.83958371001558
P 1.7751828838501984 8.802706526544375 2.643170642938369 0.1519542537145254 -0.29410386263380317 0.40162611128719866
Ni 0.40154533767208633 2.675094160374847 8.615323135221395 2.8672099132823394 2.0994525411804426 0.912686600648841
P 5.072687278735259 4.789598905436919 3.62762147412889 0.08505903455387286 0.01563025033808921 1.4456989116912262
Ni 5.192163815627589 1.7426378335287505 5.114583028106214 -0.13140548302889626 -0.7863104525137361 1.6487222161674249
P 1.6089482340811678 3.8708477019384473 1.242444237054561 -0.9390398938313892 0.5455639224551507 -2.226831933769081
P 5.077840552878098 2.409118720744398 7.447490550138167 0.41686401128287565 -0.47171798300827794 -0.6286943725277431
P 7.250444308034447 1.8495451838468784 2.756549138761672 -0.9567144282930168 0.04416126789824652 -1.5332071791165403
Ni 5.640424783988101 7.469458459105145 3.8084071969077034 -2.05606337556153 -1.320140117251094 0.6089336449610481
