# total energy = -340898.0803233072 ev
CRYSTAL
PRIMVEC
9.01001231990077 0.00000000000000 0.00000000000000

0.00000000000000 9.01001231990077 0.00000000000000

0.00000000000000 0.00000000000000 13.18706377618041

PRIMCOORD
 96 1
Ni 6.324533192187568 1.9287193060032333 11.277959630140806 0.8028063932862303 0.406593482594803 0.7867866208192064
Ni 4.617036721973151 0.1969795952782088 5.973660782188545 -0.1417729423061494 0.5844765403599482 0.11961517526218755
Ni 2.713842781252765 1.6222257123475416 4.784636468640593 0.5412910061114097 -0.9778306414463417 0.3862833102825412
Ni 3.3142069411157657 4.187259127906171 4.866712276091197 -0.13548736640775375 0.4732814708406558 0.009234117003758289
Ni 5.051373382341976 4.45953269426068 2.909831275161008 0.5309076059945567 0.09014210550373508 -0.8037613010003318
Ni 7.199585601742813 5.960807999422579 2.5673760187967303 0.18046341689781178 0.7669647009972728 -0.2141140150727216
Ni 5.085917770091511 4.509637373518678 11.562945423066996 -0.14242523117816763 -0.4175993467870034 -0.4626841549407838
Ni 5.514145642016364 7.75310670685625 12.36971635423907 -0.397073973140142 1.1309724877110652 -0.07564674010103746
Ni 1.8848495553635658 6.367646101781079 0.266476524341455 -0.11451847746557052 -0.05805936603657743 0.5763814220566396
Ni 2.7509189825019393 1.6226491829328906 0.37612116789952427 0.36829741522808185 -0.4326647257605581 0.7279219852725141
Ni 0.6611060598244676 0.013169935204354426 4.706673731875348 -0.7180006123937441 0.25167783225910856 -0.03516754904006846
Ni 8.513551757993634 2.3413958964320774 1.320407414154352 0.22434237766894913 -0.07140313433333509 0.613918242659833
Ni 6.784656508200411 0.8213806663666162 4.848092184353275 -0.7128046700151014 -0.9510775417222136 -0.9178735441664192
Ni 0.7083212280883922 7.320923439463988 2.256082791506668 -0.25055091774351684 -0.30011638737647023 0.778838312506407
Ni 7.5843041235261675 3.909273213655677 3.759197040210476 0.5957361724341675 -0.9668664291253543 0.34228659298661696
Ni 7.4989252455098425 3.8565195907361347 12.677212762280918 0.6968707723936644 -0.27119327658421677 -1.1244231166283214
Ni 7.994277710218742 8.871582622887544 6.7825815023322 -0.6397375177157821 0.19428283927940732 0.45595146420264054
Ni 6.81184872578729 0.6188644184352805 0.28956828526041234 0.3423611549782942 -0.07676825529999037 0.25377148156334356
Ni 2.023738897345589 6.432229871053032 9.174477617569016 -0.779687804990896 0.5682919601802857 0.41693703061265613
Ni 0.1502545716917946 4.8303397568146975 1.3180467908913427 -0.3595217259179808 -0.1333186408912091 -0.12293009856803346
Ni 6.252254872279699 2.0512734954057295 7.069004392244839 0.41921374246197485 -0.2568460067236093 0.32957325918500663
Ni 3.5789571470709896 4.262555801986208 0.6749913900176883 -0.6158380853903652 0.24737123446395462 -0.1576289355017995
Ni 6.027319911359738 5.705347116307671 4.817761779428586 -0.08026984069534564 -0.022917270917805693 -0.11852091375674428
Ni 5.156799538068972 2.8583183309564135 9.319205447621382 0.24187678700828663 -0.08191740360109763 -0.5396141326296191
P 0.13584305677124667 5.513343750907937 12.273925505830633 0.5590771264502371 -0.7228276014687423 0.9222395344445987
P 3.926085896895278 6.065630484315142 12.594146754461596 0.1921123139906498 0.5290805800881468 0.1896157728210412
P 2.390482444282746 8.334378650328727 1.3439992307645194 0.464357943098781 0.7582936555858361 -0.03507987442226862
P 6.331903382375132 7.701668545755026 5.792378430608102 -0.2918245796813232 0.5888361028802246 0.129459415046119
P 4.72103929573238 1.0938065019316023 12.65964774300139 0.11845097975075729 -1.0835754864843403 -0.9031082129317866
P 4.107862898159457 6.228044968815171 8.205149843700134 -0.6358312406828405 -0.09600139249798949 -0.03503050924157193
P 4.684539735280276 0.9508085942704481 3.7327697726809608 -0.014329015028162417 0.3922863219435115 0.18262520043582095
P 0.20140711539821957 5.508469334170195 3.590125057508013 -0.3242847570925576 0.033410971360277944 0.1556540711636158
Ni 1.3704859643762322 1.067929746163041 2.593077980323679 0.09636186116120178 -0.2255762500760502 -1.147094332973592
Ni 1.7056494176612977 6.561947020356644 4.7801792154794835 0.5596869921200942 -0.22105985026293543 0.21127628851361033
Ni 6.032383538359017 5.805727665060297 9.184012012748088 -0.08749849723330093 -1.3899615089196062 -0.09681154710411069
Ni 8.716745558861527 2.2839931070861503 10.11756373016494 -0.5895161596663847 0.7960675319005 1.2001027668498234
Ni 2.4057544153926735 5.283858733698586 7.0087922810156815 -0.8239568021116003 -0.5829405633313961 -0.24775175773182495
Ni 0.44196273491008764 9.225081451516978 9.08968529136346 0.9405522167108576 -0.7956453567614168 0.34016311888571094
Ni 1.5228632950022445 1.0503692318897382 11.428766515596045 -0.18760285615607047 0.7671485348733046 -1.3704792318252785
Ni 3.9523410731869175 6.646695197501174 1.7828120653206065 0.8402018032155529 0.7510470013257516 -0.6730284185584281
Ni 5.805457364686669 7.849576910203737 7.992982971429068 -1.2318720888416204 0.8765901120366 -0.6171228656400598
Ni 5.335260854749993 2.831081063307263 4.930076089676844 -0.46942507320904314 -0.07858499679375497 -0.6492027768937401
Ni 0.8839452918475745 7.599224704150379 6.9104038460166874 -0.051864550079775196 -0.8405612434375008 0.5617076220945487
Ni 5.106091187976541 4.662465204767402 6.988353067763251 0.004776595453036935 -0.2016734753165236 0.3544743933020605
Ni 8.079079947437995 7.314895741132105 9.104243669487012 0.6259263228643027 -0.27619098690912436 -0.2212387990429609
Ni 4.560931374420634 0.41582378777910817 10.323466841777822 -0.24291062758943974 -0.8872635325900462 0.6775790140435879
Ni 8.094135678249021 7.256501850416212 4.629200238786368 0.42529337299715136 -0.352598002214954 -0.22241456451861694
Ni 7.3521701626552725 6.112041058466904 6.921005927671585 -0.1233021371954715 -0.2975694525849004 0.10376021050780194
Ni 2.214652051238362 5.269704004132983 2.6563102477274967 -0.0027107140629437183 -0.7348361958938442 0.2429275968703042
Ni 2.3310253720972534 5.037948463785167 11.467866365642442 0.07659187762312616 0.06466992937455959 -0.6319707292861697
Ni 1.1146376507257922 3.151882556740279 3.728167458319338 -0.7494850561552705 1.1998813948676368 0.6296706203980833
Ni 3.5756594825127395 2.664612073202828 2.774149497612692 -0.18553877453819015 -0.396746157487078 -0.6643162354964107
Ni 0.9960478668031589 3.312332858525285 8.310553474395995 0.559698819194636 0.9302886300013204 -1.2765758595068981
Ni 3.760878308534436 2.7089593545025696 6.892127035753273 -0.351102391506034 -0.6577552944494414 0.7495159093932059
Ni 4.086473128593105 6.794612571962339 5.968346676843037 -0.08375085726541061 0.5089670971677235 0.1877949175622185
Ni 0.6843654069750738 7.3563147683842205 11.319947189178784 0.9619517654325561 -0.32402816099706133 -0.629398083462987
P 0.1837231639542937 5.798258364735736 7.986429088369857 1.1734836216003983 -1.4680731656213684 0.08844826274107993
P 8.429073881222731 1.7512310706672698 7.915851858813349 -0.4079253140323491 -0.2809372433448581 0.2027911338607346
P 1.8496294166799636 3.176263650441437 10.392659232420115 -0.8396230478939475 0.4819388894053378 0.4713233186730205
P 3.9869845710734486 6.096940277593607 3.916070367051151 -0.65537316737051 -0.08302683461519249 -0.6141385862007552
P 6.821579539237863 3.954620606337839 10.36689149780225 0.5288738633939795 -0.02846391176764775 -0.6375613360000698
P 6.332651213408833 7.80264375532963 10.265733384974823 -1.3527401626743027 -0.4756373726673422 0.11122900808102135
P 2.447993353778125 8.514659989525503 5.728486630292636 0.7504049968663786 0.0781913608997621 0.664044984112895
P 6.891605356032173 3.9889397437760175 1.5633795190064457 0.13631089075031363 0.7747368887435239 0.9247237343190333
Ni 5.425541179541422 2.8268463574537726 0.5631690264494305 -1.0199987901739593 0.0010515811929659308 -1.3259310129012585
Ni 1.5846359403884756 1.12708047792509 7.101313395904478 -0.63420681770554 0.2566192354247838 -1.1116521901158984
Ni 6.982930842268293 0.6548855472260642 9.207287577921111 -1.112299336781594 0.5480643202795012 -0.600001889689057
Ni 2.6748294273259297 1.7107580947228487 9.117074828223089 0.8994783294886831 -1.1801252952866321 0.2909979700149698
Ni 6.2431637697133775 2.041344461681163 2.5671390554691844 0.79923076011983 -0.5662283927830377 1.0653293957899588
Ni 4.175221751267314 6.801171861029022 10.480960057475349 -0.31676967966243513 0.42093509602845575 -0.29024669367124206
Ni 8.229727355672795 7.2740533546770605 0.20741138769772138 -0.6186130770323411 -0.6987011407341838 0.11918554392393668
Ni 7.61516341618192 3.851419923687038 8.238842785272745 -0.4291397433264352 0.5055714412226132 -0.32317455474751433
Ni 2.902116001496447 8.279003113785002 12.31570223057718 1.2523033601127787 0.022240299455439115 0.04675705364988077
Ni 0.15717696426038288 4.876750330966459 10.10040776545083 -0.10927111302370213 -0.2001444402665069 -0.06420224570952168
Ni 8.502018942052212 2.0964316778263523 5.726653993759445 0.9537478894655251 1.6114342783502442 0.292663787753167
Ni 3.6821758497466988 2.58450405247223 11.429874747127915 -0.10533115453934762 0.25136904276943806 -0.07548836014630225
Ni 1.043332412162981 3.1833094801806485 12.582938298968529 -0.3369045027390972 0.7477968698195702 0.011269659376548334
Ni 3.075090220592839 8.328170751747761 7.96960198911033 0.7908127112594638 -0.10090602888845848 0.1616650532443861
Ni 5.610300494927952 7.912962347819277 3.6414100483975154 -0.4641728236711683 -0.22781953758427217 -0.4232141218706195
Ni 2.850299419872145 8.366409244603531 3.5168979832887137 1.5047738634765118 -0.3204188463792482 -0.19994029467550084
Ni 3.3191894780029574 4.3505205535768985 9.1410225403252 0.3935759872892125 -0.3246287706955377 0.22379910357096938
Ni 7.257538001848449 5.976746711454119 11.251335043338544 -0.07925348361568932 0.4487346347392272 0.831576009219755
Ni 0.6907201687590453 9.085966859223598 0.16705734391769633 -0.4322770034038361 -0.24570053162975106 1.0956843539327326
Ni 4.718336291996109 0.17820092732109344 1.4958350596420322 -0.8945243279175177 -0.3539267483287066 0.5081826535932151
Ni 5.990351830260013 5.707527539321595 0.28984128863777564 -0.10163082286962496 -0.46551776773483694 1.14718612135645
Ni 7.938758013475749 8.78607760469686 11.263190417725825 0.004534140424927675 0.8416935572697312 0.7205748008788235
Ni 0.175393407440354 4.74674486126431 5.80617185867429 -0.3326400710357884 -0.407895232125362 0.1761557906613934
Ni 7.867687035236748 8.75141608678542 2.558620088693705 -0.10794905177816892 0.29705960282801747 -0.1251340481978877
P 8.432578776067428 1.5815725361540358 3.5631049311590095 -0.32128119437954344 0.40858068822816085 -0.4531538468528453
P 1.770539527356694 3.223476115701625 1.5973625829800815 0.07947588403914055 -0.06006482650238042 -0.44636176363167646
P 4.621595788274994 0.9448709960631076 8.225773762207877 0.8583882443165926 0.9914009239316088 -1.1864718063299502
P 8.433128386827137 1.6275776597453566 12.37075791167878 -0.2141171003965151 0.3515986144161622 -0.372640522688126
P 6.375151442155457 7.633597901663284 1.3590855956178896 -0.5495715009526471 0.15043961684221188 0.16864945498201922
P 1.7262372961192236 3.1089858874456686 6.099834293593907 0.14643820899230264 0.8446981484240097 -0.2932327728827595
P 6.901146959221207 4.001355540937952 5.925000407926961 0.7488355954967296 -0.16449275250116832 0.6151847680770824
P 2.2796592910956632 8.461176555597168 10.128970405932002 0.5802337059231942 -0.10809560465836221 -0.037953596425637864
