# total energy = -340890.51069414953 ev
CRYSTAL
PRIMVEC
9.04993389858048 0.00000000000000 0.00000000000000

0.00000000000000 9.04993389858048 0.00000000000000

0.00000000000000 0.00000000000000 13.24549304191208

PRIMCOORD
 96 1
Ni 6.1838199787363 1.9007214618089712 11.260033906391708 0.036586026654149895 0.4256929224284152 0.8311049831206073
Ni 4.776310876097751 0.15012845199071945 5.904364348311315 -0.976099517687848 -0.1433965939525014 -0.2071902913696948
Ni 3.1560287725517395 1.967048428915891 4.580053099951295 -1.9534735312127454 -1.0712732720782194 1.0512811452270088
Ni 3.530768444261841 4.575320889404125 4.817796679060615 0.4186319018165758 -0.6701729513875039 0.18081257270711443
Ni 5.0926965726536135 4.612126971437668 2.8138598137107604 0.36004006031529606 -0.6064314473644845 -1.8029606379304368
Ni 7.392438679395209 6.127619887900718 2.357353082305239 -0.697277778024096 0.398673713527094 1.4142550913596483
Ni 5.042822385762327 4.490649705852161 11.46140489531145 0.4303036817275493 0.2528749378910032 -0.4692623223789338
Ni 5.352239633051943 8.310554495058604 12.517401887131783 0.9575564645783381 -1.2175466733578837 -0.03587614507131886
Ni 1.6277030495178593 6.373769045813273 0.4657820088769206 0.2766643270011171 1.0980345993324638 0.40566222902978527
Ni 2.483048522180354 1.5871412448278315 0.25297190323959884 -0.2586768892847609 -0.6521675159490188 0.9433086964100722
Ni 0.3925942867196861 0.024490931693920935 5.023538786156457 0.7813695635686931 -0.024720128454499363 0.061667137992493806
Ni 8.835767421249091 2.260438242893137 1.5362788051315142 -0.8244923629000963 0.9081550313270748 -1.8136816238923668
Ni 6.82332452282736 1.0600097326055964 4.828326277399938 0.9902824940564494 -2.0358946139231384 -0.33514972483151956
Ni 0.7631230240874699 7.725195706759697 3.039005884536163 -0.15699798678601995 -1.189970563511828 0.0381014348574118
Ni 7.572668117235884 3.913797855618544 3.7512031193885313 1.3010249936881981 -0.44976693265848344 0.116818843463973
Ni 7.621465361967841 3.6939478062354896 12.553734657611267 0.5505906862457808 0.0684713053985208 0.22999931884441033
Ni 7.994295497580309 8.747919710823814 7.024297314646173 -0.8557937441165391 -0.6194821099008557 -0.4177448712259321
Ni 6.774952624998668 0.9974565880233845 0.46087784958162253 -0.31668329059621586 -0.1137700293353202 -0.8842154897923417
Ni 1.8215797879994453 6.49479381469318 9.346894124994238 0.14689895067880507 -0.17067702693500927 -1.2838806206984277
Ni 0.04291750253938409 4.882584252375081 1.4938137992977303 0.4290350994277708 -1.33243667523026 -0.21421454520632782
Ni 6.15824486493576 1.9457177342138838 6.869457466956741 1.80640591616656 0.5786391077425648 -0.11179233678365909
Ni 3.253288414453509 4.559972201150156 0.47282557259629787 0.9658269321172462 -0.6623984496484076 0.4645404914232322
Ni 6.162326385220276 5.494423147885728 4.642412575943509 -0.9858738234657923 1.7104351197961898 1.494488936610736
Ni 5.4230463175443075 3.0380900312040273 8.885633463199678 -0.34467437649250315 0.1274773516190837 1.2988493261931178
P 0.06649167590775844 5.669104976115742 12.355647889780775 0.013601907054150769 -2.4206293487716373 0.5694345584251612
P 4.0483251261935695 6.151095416987271 12.472446339430373 0.5522745017061068 1.1253564270758682 1.2932080687469405
P 2.2116138483588443 8.452167864043332 1.7133579609077987 0.23202740501803265 -0.480545865712553 -2.020950848129113
P 6.397063576217587 7.722544076064879 5.712648734095676 0.3018490537968608 -0.1350397373473739 1.7097571198925587
P 4.507165835606579 1.2755158136148859 12.894063764847274 1.1180542369875004 0.333654885453548 -1.7045524357631676
P 3.8918246155945844 6.192797513375413 8.248034835232607 0.32125059825192415 -0.7123616689404118 -0.4114071019333624
P 4.777514517334648 0.9401343053579145 3.5072612404058954 2.1258994225180614 0.43882971692068945 1.132523634248269
P 0.20930597114915156 5.482730633013012 3.632245355459807 0.9360980375942458 0.29811761177888657 -0.43280536510348044
Ni 1.6552148492183694 1.335616426052743 2.5720627691126716 0.8564149226403057 -2.3290638805578143 0.7502931538788628
Ni 1.8383312160407757 6.517282900961525 4.874686374875531 -0.35326494637499156 0.3229022749227342 -0.7180034406072215
Ni 6.138706057187931 5.588207615088486 9.259686244910677 -0.793805989559833 -0.41967037038341914 0.10276107981932625
Ni 8.528069661440759 2.239569094830842 10.226739579284766 -0.01353762947511862 0.7057328507699845 0.3870942362196108
Ni 2.4683785789847863 5.099556422710516 6.867709019686301 -1.456013663353673 -1.175582413110956 1.5458770612747248
Ni 0.4193504169218431 9.046124089748648 9.190796336463238 0.4873140376743221 -0.5456580248308538 0.24153842983226145
Ni 1.3962962342737688 0.9884609535160469 11.277782637172182 0.6518227310150903 1.1679670626575434 0.30690564238416174
Ni 3.910983326109709 6.862899884699179 1.374683181627467 0.10349281577902823 0.24575401057550583 0.011024376134961659
Ni 5.6021264137527575 7.737892764318847 8.117897687695317 -0.5607879384937567 0.5077437662835835 -0.12941596340269323
Ni 5.248988934768023 2.810710436639781 4.601484248921945 1.2757266241327254 1.636927537525342 0.7543894354354234
Ni 0.8060278567190973 7.222598565915121 6.962612963738714 0.26488816030179546 0.3503878819375127 0.25632458700250044
Ni 5.044523773375385 4.708192022036653 6.979315522135839 -0.1689405038598768 -0.13253214043417177 0.17920486190036233
Ni 8.073925867831884 7.154380162578791 9.311330598914273 0.2130025271760977 -0.2302440878653648 -0.7381912284090061
Ni 4.37712733235111 0.477410269217442 10.524736714718436 0.5076154682358355 -1.2974552740590688 0.1790300268853949
Ni 8.233096108993912 6.8091342261397285 5.004081427815636 0.3613988883360356 1.3071372772335228 -0.6629939171405614
Ni 7.100152957379628 6.030649843890534 7.062311562883671 0.8083777167264207 -0.29638571668944436 -0.1463963000107737
Ni 2.451020805357951 5.1988975494580485 2.814217286108185 -0.9295368394369605 0.1330399333085257 -1.1569663406716653
Ni 2.4264230844415087 5.219160351934838 11.516837551734334 -1.6091619373762995 -0.43697003800413126 -0.39767098329419254
Ni 1.1172234160617225 3.2827278501198762 3.673306716512818 -0.8667458722526685 1.1444792639482484 1.3825343632175995
Ni 3.973156373459217 2.5901454424618784 2.4054209023477675 -0.5507745201218127 0.2671373613472883 -1.2195081679596287
Ni 1.0257738318598633 3.0658280792573374 8.28218204662404 0.4876850478604956 0.9902254155662688 -0.4204095625422889
Ni 3.860131746334326 2.585167978700273 6.935790769017539 -0.7321630199370551 0.4660636129359779 0.010914332919658622
Ni 3.81363318486682 6.725802432836343 6.040633731202903 2.1987346613122325 1.4547329968690366 -0.39560613034536385
Ni 0.9362790334261982 7.3217043943757405 11.43472840452948 -0.7713492032182135 0.7961503214222934 -0.32519569894260125
P 0.13427115743965587 5.465897755564674 7.983376752074169 0.025598674404710753 0.06460950845026939 0.32157070059550424
P 8.324744791746236 1.5470409867775161 7.962303075500943 1.061174493081321 0.7071127618366466 0.19473972431116784
P 1.70763206759513 3.2024368346781253 10.512960940451888 0.5610332217353434 -1.2433176116744007 -0.15461277438329502
P 4.1472318561037245 6.373995294166074 3.499896404025542 0.056920881556760033 -0.28677056219718355 1.7631974990998862
P 6.87659243501065 3.922024245726361 10.506616936639368 0.36868642313638444 -0.34523179165786994 -1.322364892816555
P 6.242029154944746 7.887062828287104 10.45122409992658 -0.2501590816217369 0.597336684152068 -1.1735201312652888
P 2.5479727494999125 8.651510762728574 5.81580440807142 -1.623985118432061 -0.07959132657108228 -0.5431540274620775
P 6.970005854914815 3.9382055279186345 1.5484382966044103 0.12717061901194227 0.21876951156686197 -0.11201216610394901
Ni 5.312302273815644 3.201368942452908 0.35043335867206604 0.09637497378732435 -0.5466407004590972 0.0033792008848780516
Ni 1.4724514298263311 0.9262879061665396 7.4240727240837385 -0.18006618145939313 0.8510120064571796 -2.8435763330237998
Ni 6.641719495001659 0.7895497366879497 9.022432267236818 -0.37961772533690746 -0.7718443976870771 1.3747356931087875
Ni 2.927907083390308 1.7386099920605396 9.26208357245695 -0.5570230721346858 0.09903092335293266 -0.2269636173418801
Ni 6.654126954669225 1.9822342183558435 2.6768085165118953 -1.213587945820452 0.11490568560166017 -1.177611784836159
Ni 4.091095114806929 6.712281831273 10.393791408064942 0.6783099786723414 1.4083490102878584 -0.22644528294456487
Ni 8.15964684374084 7.23623681662192 0.2881336122449905 -0.6704724849057937 -0.26678229200071474 -0.09235659665655062
Ni 7.768599190760897 3.681974743405301 8.325335752443749 -1.1339343985528665 0.6619392506238019 -0.9333757535670764
Ni 2.929771369817382 8.367750078646505 12.57625179867536 0.4913964352738117 -0.6865773608874562 -0.3006061825286952
Ni 0.3458758118532579 4.697368300838689 10.054494898311118 -1.5135611227508385 1.208813407249944 1.0871202664128052
Ni 8.760562468778291 2.3137785545493226 5.85703771787256 0.03593836576782197 0.4315753493511212 0.14269596834105103
Ni 3.4630568372357837 2.8277424126385835 11.71314872249205 -0.036507350897414546 -0.4284267764198106 -0.5454037427282026
Ni 1.0829060659089813 3.4473461516173347 12.93401198400451 -0.6459534167185069 0.49539630046182426 -1.5696021728058065
Ni 2.9429028242139084 8.26118710447759 7.874299706208937 1.4593339859761576 -0.39431183701397254 1.4940546772867946
Ni 5.928222689610807 7.7869886568765 3.6541932556682535 -0.8820063979561649 0.8822977039443385 -1.2412375892169205
Ni 3.2761575979545574 8.492177622752529 3.7165129119503755 -0.37575824238150124 -0.964516440835939 0.3145125081971422
Ni 3.3627926172088274 4.29080906079076 9.399372882922961 0.19432320559903954 0.22572511694908867 -0.5271147146110277
Ni 7.186597928017545 6.220390762482931 11.43105956124047 0.1981783176790716 -0.8698985589490374 0.41054449682275107
Ni 0.6783794410626102 8.815205970946606 0.09722525215214373 0.16591045878430136 1.0182460691489108 1.0442054693271499
Ni 4.339398157038141 0.20151578786553354 1.4915486007894942 0.5614870214433103 -0.2002215733613455 0.3789073295334442
Ni 5.99083013379769 5.654887529625775 0.2991519070263625 -0.2563973492219649 0.5134978951585415 0.24247611115518236
Ni 8.113184482009782 9.02320965657704 11.089391968749297 -1.281243954406529 -0.8375713075712414 1.0239125234060689
Ni 0.22896061805361445 4.793505750910569 5.789459144877949 -0.23961755866046477 -1.0581632170588227 0.5191460945832543
Ni 8.039228420446436 8.917452126544093 2.2043947159176938 -0.3177143029638915 -0.09836320786194673 0.11989465417581932
P 8.668841386553071 1.5234840082839545 3.536890724688616 -0.20655368622696038 -0.22468227750687111 1.8940064861953636
P 1.9914289514136454 3.2746915086284116 1.6560709729853653 -0.5187267476576486 0.33115603029109414 0.25845294619941295
P 4.625846671551476 0.9598450618538719 8.107500218394028 0.2633766087532754 -0.851172957515076 0.7215518200801122
P 8.624008012962175 1.5021352137137234 12.549164440884702 -0.37700677007662164 1.1654995749536572 0.09833389728590808
P 6.3051705452442395 7.751078518320045 1.3234460746589123 -0.45512562586723554 0.41262580483181194 -0.1978294189800851
P 1.9287129080174175 2.9910484736898004 6.159062073986075 -1.141923330295614 0.6433290917217823 -0.822614429151093
P 6.854881643075938 3.8928744079515774 5.945318920141804 0.47804083990251217 -0.12361375489861935 0.31185475885932096
P 2.4061240822282706 8.405424954354803 10.260859640873864 0.34106789008816746 0.5379195185360155 -0.5965535261291403
