# total energy = -340892.2899106197 ev
CRYSTAL
PRIMVEC
9.06395918757633 0.00000000000000 0.00000000000000

0.00000000000000 9.06395918757633 0.00000000000000

0.00000000000000 0.00000000000000 13.26602047005645

PRIMCOORD
 96 1
Ni 6.361503295015166 1.9597548086452143 11.468501201526959 0.43122670776245087 0.24637853153338213 0.8584643489701668
Ni 4.473516912905018 0.20009867576611298 6.112610609326571 0.2855670288073856 -0.08057734463343541 -1.4401422435390552
Ni 2.618659300558152 1.5500729305246717 4.738184512655453 0.5986998830481818 0.19451141035044564 0.958716032104078
Ni 3.295057233139526 4.123947210179848 4.557660362520197 0.20250188475508996 0.1102671583883843 0.4950761981182441
Ni 5.212728080632642 4.5659421017630715 2.764771224350514 -1.3602261866387024 -0.10611559811385594 -0.3624029041205178
Ni 7.3125573100498835 5.892860364278988 2.728741081344762 0.6395595973770212 0.20287160938968288 -0.6094859179200923
Ni 4.811919818270856 4.431287928410591 11.463658328289059 0.5240183350738911 0.9197095689338934 -0.24583268633224112
Ni 5.398240127348126 7.926939635867817 12.613755974274445 0.045023358788225686 0.29904038070347205 -0.1446168395128477
Ni 1.8132812328929198 6.766335955126584 0.18522653201027353 0.052132459029181184 -0.11163652793208514 0.7262394553637687
Ni 2.656972654809696 1.4783860796196655 0.4452715127239702 0.8669739291030747 0.847076161737883 0.3590931230209945
Ni 0.14662494386585068 0.17410414804952842 5.179956430849845 0.913854395704697 -0.6014072546770158 -1.220228333955105
Ni 8.826863858772665 2.287870120664588 1.3344159693143252 -0.5031124381591593 0.6377775657759338 -0.12709014348299402
Ni 6.8521988377442495 0.7499075456202776 4.5707804430215235 -0.7347750036386056 0.008232158101805177 0.6329490340390389
Ni 0.7501921539295983 7.637581812085871 2.762356585700736 0.452539353197298 0.4717051274924715 0.6726921182649318
Ni 7.494389389453769 3.6782814152439207 3.8043891817537756 1.4163513117670445 -0.4606678958417034 0.14964128931063259
Ni 7.918038828232374 3.881531629518021 12.44109934046054 0.07711972510213816 -0.8598239483218547 0.7337347352995491
Ni 7.902856697082306 8.723163105048531 7.257428499255292 -1.121326737091185 0.6663669473778524 -1.05220751369602
Ni 6.720998032730978 0.7568605084890637 0.4260260088010217 0.16722454961003458 -0.19517501207637353 -1.3092813201597193
Ni 1.8436092393574728 6.521627192864179 9.147292027252712 -0.41221262855379337 -0.14103529280917645 -0.4198349209857415
Ni 9.503470262408635 4.708971373135053 1.1811253900766776 -0.9208393116629625 0.6755007913583205 0.07928665084646991
Ni 6.381552772092151 2.079299362518792 7.015177882645364 1.7014002632874312 -0.419995872043638 -0.14222417091095507
Ni 3.5178855986280415 4.547206898725944 0.35565252553998256 -0.9386696549761642 -0.2610911551532084 0.4058663746207914
Ni 5.996506734249748 5.56812590892766 4.777425109902012 -0.30816034072686926 0.9684245176410935 0.7019823825886169
Ni 5.320870174215602 2.6730249260137375 9.444995037989802 -0.20462741573852503 0.16695458377809957 -0.6608426751255135
P 0.05554484650789838 5.7798690526869025 12.394416326564832 0.20550081948241383 -0.13294403116060974 0.6790653687811272
P 3.8388585110377114 6.393299662820802 12.528070745251133 0.09907591765825519 -0.5338440629150613 -0.5901661345455578
P 2.34314214200973 8.508401662977066 1.6119806761772553 1.046646474668475 0.15997301025394386 -0.9565095113710623
P 6.36284476093171 7.755522045234933 5.629886818446135 -0.6422178609354745 0.804551401001795 0.8708460104639713
P 4.638598796269903 1.1815776816255663 12.627831396043366 0.6463264837872095 -1.2114863260964166 0.9166656399012472
P 4.185790601724273 6.024441855565873 8.097392821274212 -0.5784624729553844 0.5523220671145906 0.7309083215943477
P 4.654016590351256 1.082318267760258 3.9100531889746883 1.4600700928112338 0.40184774037970145 -0.0530274600396248
P 0.3108520959068843 5.7339329090041895 3.5672859874006377 -0.3766527291713126 -1.3154951622799151 -0.21077132385273378
Ni 1.5927188571282946 1.2254925624745678 2.7497277717715485 -0.23252208526626406 -0.45337984682072247 -1.2126096410675824
Ni 1.9694351167456756 6.258464210290409 4.948463827053061 -0.39572388687015075 1.398465175515243 -0.7655984167773654
Ni 6.125042735347725 5.881711694837446 9.284873859328458 -0.7427752482352628 -1.0326661012289828 0.25225324514660424
Ni 8.618365612298033 2.299734842858879 10.388620232313718 0.6085502934797004 0.8425872727285939 -0.5959022656983866
Ni 2.3492512503053393 5.195923500840268 7.115375416256363 0.531408199780059 0.5837903129262011 -0.8245317007784639
Ni 0.43182331691062364 8.983924138514977 9.199467800239129 1.6625285259228981 0.5993298033226969 0.14112553853013757
Ni 1.529978133653209 1.1230698269547084 11.421817281235361 -1.5309505218718795 0.7280435984520429 -0.8501218905427423
Ni 4.098468421724421 7.022202450789425 1.394113015392281 -0.14612761973041932 -0.021154265480111956 0.7391872737736883
Ni 5.587042391142699 7.939737945828352 8.007449344361763 0.984171496062705 -0.26847150677767956 -0.06717881183934236
Ni 5.4830243988572205 3.0903839773188224 4.928206785317368 -0.6346068813574361 -1.0893211307188657 -0.6231153357780688
Ni 0.7213669518499294 7.468248931998966 6.95938105808017 0.8279715796979481 -0.8203917104681613 0.03203980204436417
Ni 5.364295601284243 4.335717545815777 7.377976433378608 -0.005078185853855771 0.6041339095795595 -0.09359124039460011
Ni 8.056635823704426 7.2569046024311294 9.251920930367751 -0.11463109178403484 -0.7327191495508414 0.1592101639459903
Ni 4.61591170715431 0.38790481047806363 10.331868066480931 -0.04823749485014918 -0.10873452379394177 0.21666532073966557
Ni 8.284830052859114 7.179335242202902 4.863163816282809 -0.10370621734141493 -0.8580583717809996 -0.292595910629709
Ni 7.04909521683256 6.280797805009075 7.070205177100327 1.161687914517051 -1.2959969443459876 -0.6399979704660204
Ni 2.3669259701516863 5.572240946266245 2.5329341901156983 0.030042569108677294 -0.2810542285386966 -0.17364845085850736
Ni 2.2875619460621386 5.474196102892942 11.31263827075475 -0.2774289730812835 -1.0842537434982875 -0.30888410626677126
Ni 0.9971533099775499 3.606739587681244 3.634889524823193 -0.018016491182078646 -0.47072373741580864 0.025499172712368987
Ni 3.7197218353144335 2.6090515041288556 2.594767611305338 1.621593221161117 -0.5672779170934746 0.6138426522268912
Ni 1.1760214748225861 3.4630758391865735 8.06567349711919 -1.6964768578438847 -0.7998200569643967 1.197846109605163
Ni 4.027098809380759 2.5542780005229697 6.784454808958813 -1.9370485528875026 -0.22424287597660733 0.30554912835626735
Ni 3.976975116688297 6.808147997511814 6.034115818895107 0.9254426147629287 0.6397526872244337 0.3044805778824369
Ni 0.8110792978105412 7.422620962918703 11.1592697414706 -0.11552403591194944 0.36167451059492556 0.003859997176038513
P 0.02111902422666132 5.540807136816433 7.863552652123478 0.6886995494367817 0.17868164240704068 1.3990724700819388
P 8.60330131261361 1.545776614008175 8.125556354354506 -0.12324583003623937 1.5391435992056333 -0.6085664914296165
P 1.7293671014377994 3.345878850666946 10.376853400875497 -0.22881146918389628 -0.08497495948049882 -0.9046668156681581
P 4.010602404190835 6.1555973407846665 3.8894644063434174 0.19365883254216323 0.10736952512561508 -0.5492097467378542
P 6.75919355551688 4.025857047012067 10.502389231579043 0.2485079191715591 -0.2118144204052675 0.3706607732539358
P 6.220023960614327 7.880160544007818 10.492187745842086 0.9919930489896528 -0.7339818183133487 -0.20685759062062442
P 2.1457381812232676 8.479487634100222 5.633137154106083 0.9811746182179103 -0.04791816383751747 0.6025246561109108
P 6.934698991611662 3.92347056732779 1.670192139392228 1.6663021340327175 0.3030361321264265 -1.5811016888049738
Ni 5.2934245066798375 2.9653194724778467 0.5964982285210981 -0.825429787112701 -0.19162560416221838 -1.484481688886379
Ni 1.4517742963022933 1.2065851442184239 6.887691487987494 0.2962255369624963 -0.5579417272942133 1.1640039642447373
Ni 7.029716472713847 0.594435271476468 9.380535787908117 -0.9388838278694991 0.09169685158536466 0.21928321797848685
Ni 2.711818670086746 1.5118048960676056 8.98802014153988 0.22783342154134312 0.3998960159699694 0.6120706479281329
Ni 6.337302524764014 1.9725440546468538 2.369815560247592 0.2734998132302064 -0.40720720491940193 2.299743791437459
Ni 4.116061565940708 6.988883337889337 10.243954009965197 -0.06673195410991087 -0.26589834673386464 0.5557004966685204
Ni 8.471357262970901 7.181347441077717 0.8891100135465518 -0.5955793351413291 -0.6639495961856113 -1.048600513071052
Ni 7.547123502308153 3.8054215666719804 8.493357304002211 0.5825628682770032 -0.14888512787089844 -1.053135167716612
Ni 2.962246790412251 8.635659645870769 12.224663785181063 1.4040863783567625 -1.1048390238488068 0.8634335200499841
Ni 8.93405423667159 5.010139535357918 10.194020660409542 0.7726111006497727 -0.21193474803321566 -0.04146855155743181
Ni 8.679909893198905 2.296009555752803 5.703433593716511 -0.7646715340877217 2.056595079695284 0.4589861372639063
Ni 3.565752365555509 2.502042405407841 11.369152054468584 0.11501135794158902 0.2552357248136959 -0.5018749662076324
Ni 1.605444655417665 3.382950442549798 12.554098809615631 -1.213464275758394 0.13686650614346751 0.747014740237907
Ni 3.313683668669907 8.249027415221642 8.14225851141136 -1.3413252359691417 0.27536746256656447 -0.6202051041098093
Ni 5.758487173652269 7.7416995079192 3.4968961890135866 -0.6415820271236886 0.4008452672571161 -0.38031860805867407
Ni 3.2806727303722676 8.462275176157547 3.68853728473425 -0.4439441553291193 -1.3862130976207674 0.2637373345268038
Ni 3.4105773892634734 4.119270207389738 9.018771434884858 -0.018034488904207648 0.18107945321525587 1.0200985489766172
Ni 7.028773820988709 5.984089110562827 11.569866173043707 -0.19035007988390443 0.7738948524582027 0.12295735226154307
Ni 0.6692129323648611 0.17173211000655964 0.34028639602433497 -0.286643549701016 -1.2643219818402096 0.20014906825219725
Ni 4.615168462524874 0.3578469099885983 1.7192100290994317 -0.23242849711119323 -0.16590531657797877 -0.27873895014195865
Ni 5.761514535923387 5.431658943796066 0.3762984111122955 0.9341437420813525 0.41719825469384275 0.12440873999608898
Ni 7.8837770636071465 8.321865388906383 12.006995531491793 -0.4678042497761685 0.8749168380992352 -0.2684355113334216
Ni 0.2889807630918913 4.76192302100293 5.742767549739695 -1.1378219065327306 0.030254942229799506 0.38806559899394455
Ni 7.819803641722265 8.990812747275605 2.3575311767564355 -0.06555464597235808 -0.28283008949219685 0.3209837177437827
P 8.696125315663068 1.5781258833064384 3.4820648330727773 -1.1693258906782829 0.6160897963898552 1.1450233093771764
P 2.114059644883276 3.419886075049216 1.7096584292152877 -1.6120600848597013 0.1625968210300361 -1.510063394010225
P 4.955728590107855 0.9282128386178993 8.12663133987952 -1.139326516102715 0.7079092895960131 0.6750642180415342
P 8.560211252024104 1.5232073563582236 12.448726661871154 -1.0771179037844547 0.328696255896692 -0.21042833869101824
P 6.337501931859716 7.383972242188024 1.313756487803669 0.31237694991137815 1.0457823268959667 0.38867932131854355
P 1.8941861299947134 3.193006119934384 6.0144026146931475 0.08982894513869046 0.17762543322838442 -0.5011851392294594
P 7.077356640668925 4.171487674587075 5.9926989651177225 0.7127589043788306 -0.8745661396280356 0.7336254634151946
P 2.4189621581711123 8.580351368690044 10.139736610584016 0.00378954894941928 -0.0076960830926770685 -0.8962950466646952
