# total energy = -340894.7152065687 ev
CRYSTAL
PRIMVEC
9.03913818014352 0.00000000000000 0.00000000000000
0.00000000000000 9.03913818014352 0.00000000000000
0.00000000000000 0.00000000000000 13.22969241673435
PRIMCOORD
 96 1
Ni 6.340603038602858 1.5953627262217165 11.226809617743399 -0.13437844961429116 1.274807711862882 0.5762916905563107
Ni 4.650419750903107 0.5596898890255211 6.048999530944368 -0.2726235812728402 -0.5906608147937892 -0.060070225819019135
Ni 2.599484450945168 1.5043386028581496 4.828560378113847 0.4540334212443212 0.8222526749363 -0.27130537668204885
Ni 3.5101143675306483 4.418809908505423 4.9440154846578555 -1.0634833437201554 -0.24596509814504738 -0.6355677026088086
Ni 5.108369618030054 4.810719830717355 2.554375534834588 -0.2696804394841162 -0.37173215194124365 1.3269072607715986
Ni 7.450374212568948 6.028608138700488 2.4524276127535565 -0.6271519677412877 0.7888622724013123 -0.12446581848626952
Ni 5.176886286857844 4.731753917936411 11.599411036487911 -0.2214874247186573 -0.21696176893416183 0.0334294833030392
Ni 5.719198432371304 7.875087167917561 12.239780658928911 -0.8822694218095645 0.19837397862964545 1.1563875853500603
Ni 1.7596942617479963 6.542365646110124 0.5152426378434625 0.47538489033690384 -0.6236778931497582 -1.152646373140073
Ni 2.7021871410799094 1.599285712273334 0.1780213105842862 0.47097699107719526 -0.9137566937845683 0.6392376952612282
Ni 0.3826384779880979 -0.0608993869252589 4.639758991112144 0.3100259331806984 0.4581641555832432 0.1883255932547079
Ni 8.477590935822082 2.219189821535836 1.2400802965898745 0.8385313574916655 0.5259129809934426 1.1544152921150375
Ni 6.835224690087899 0.8066698823037808 4.776276193966922 -0.07055775561390429 -0.6664795616963167 -0.7211491853250548
Ni 0.9712734958949312 7.325823924999276 2.592106706209384 -1.015776524562496 1.15180048020001 0.15117058147096546
Ni 7.623103107638897 4.044869793368642 3.76005106296901 1.141201364527925 -0.08424887994775168 0.8010233332438786
Ni 7.834040440589463 3.7141819553216986 12.612580034803676 -1.8148375918736808 0.4692857194177015 -0.41203573665629684
Ni 7.885536411870717 8.842772125880483 6.750397799989284 0.05308042476474729 0.2642520693796933 0.661651287069738
Ni 6.644064991886042 0.7911126212589908 0.608402709603336 -0.01147611896039959 -1.272650556310563 -1.2664092033865415
Ni 1.8549487018676851 6.277753909531668 9.205339197122921 0.2921050870362195 0.4821456060995051 -0.19908797397753455
Ni 9.11859239403499 4.63035286372663 1.5441035803656973 0.6193761804506108 -0.3345072061515142 -0.9311232100874738
Ni 6.4813605012659625 2.0980924848226583 6.751759998141308 0.39200735725051195 0.30657885517236233 1.7756097567213098
Ni 3.5677569529019957 4.305667013555894 0.46807189427119117 -0.12597351338004753 -0.3119779147007466 -0.9785952875265082
Ni 5.7934368757859 5.627125768957074 4.852492400856387 1.6647638430113199 0.3429823335020609 0.2186666674404105
Ni 5.442130763122044 2.9881945181749052 8.973819746108916 -0.3770052274147249 -0.8856949025513456 0.2616799377771429
P 0.24880861097006204 5.398779055510161 12.487294865284705 0.3145765286658583 0.5033345814722944 0.37183628161927573
P 3.88205683308815 6.265623385842104 12.708998715945135 -0.40459059323216134 0.06710939205398765 -0.12627767488402766
P 2.366211407087813 8.498841950124739 1.3184514340662195 -0.14974053389265823 1.2606249926045967 1.159552356231287
P 6.233498288083006 7.680456440582476 5.750762199637762 0.2840027696440593 0.8983411305604464 0.10270014467440378
P 4.623898918932034 0.9723491533606972 12.381497174172836 0.2647765744245956 0.00134340140177188 1.4206131723671922
P 3.9900474191680435 6.041958946069702 8.12383792840207 -0.1533004833297747 0.4317720387429596 0.6676535273997598
P 4.812337836485189 1.252101446705188 3.8551988412559584 -0.8927230130427206 -0.31183161893086936 0.22995561009066848
P 0.3008659127439564 5.548539499987577 3.578645498979826 -0.23001191724990067 -0.29003714876359726 -0.2926491324651476
Ni 1.4021421044720044 0.9914398135934532 2.633753632325104 0.6090187484756866 0.7212972808671448 -0.927348830646706
Ni 1.8996562802347359 6.543224364255063 4.6746455456425995 0.1726449492946575 -0.5797775922223821 0.6534291562702618
Ni 5.883692672388204 5.623419722226283 9.390965134816021 0.26570628532771656 -0.18738534082862568 -0.8801906849036648
Ni 8.596428487943314 2.326873076911225 10.348160172703132 0.31884790234770244 -0.1624448688332041 -0.1556746399889061
Ni 2.3926237693984724 5.218222266613712 6.935772449635761 -1.1516215314199845 -0.2886073582956062 0.31529438066848925
Ni 0.5079914410448277 -0.1039744969030881 9.053449131646056 0.3411115988419093 0.19281062560925502 -0.08833590553293175
Ni 1.3973242437219766 0.7521720131705852 11.339421011356903 -0.4367337536236091 1.0929713258769433 -0.04024496356297585
Ni 4.165994247496924 7.2624686041794915 1.6663859481188912 -0.33701120352029057 -0.8475690422139016 0.22714822254886038
Ni 5.4592689694673595 7.7155644540029416 7.8893952200399236 0.030116873990038453 0.8592626765017459 0.8922450449650376
Ni 5.429141521287542 3.230832109381282 4.861740343320465 0.061455279092003844 -1.4030427675835966 -0.6416876994636174
Ni 0.7808070996058825 7.410267555631098 6.861685863745745 -0.46831024287830963 -0.5811531324136701 0.6916645456023766
Ni 4.961085897465412 4.514046270348377 6.954889323369784 0.9730463326838211 -0.22226698319715912 0.5150413283862615
Ni 8.373803549083208 6.987705915214017 9.469707780879281 -0.9801472053946605 -0.3943113227933403 -0.6626568455161168
Ni 4.401979032864613 0.09034528407214613 10.345037150397063 0.8388846270660262 0.06055976386092796 -0.3874511053383972
Ni 8.203921982599109 7.029258834290711 4.865748297272741 -0.5747207465247651 -0.23260975988406393 -0.39483917027235227
Ni 7.2641860404693706 6.324549528861676 7.204917314105659 0.6805231842735764 -0.8818397904713136 -0.6981442397894492
Ni 2.534664789709802 5.123076296154436 2.4014143314611407 -0.2572288439843248 1.0376728104149548 1.1946399439630393
Ni 2.303452669400301 5.176063725266376 11.592848622032902 -0.07837879432021985 -0.40533852714177937 -0.23121725041191146
Ni 1.307339621270705 3.488393318032868 3.6438936153738246 -1.1553691713878746 -0.6645910864243522 -0.11918528681362055
Ni 3.726448066086779 2.891466698501268 2.674421619755593 -0.2789526088146615 -0.7091688730347271 0.13311038153514493
Ni 1.0811894184471624 3.3405491708894224 8.365544488356566 -0.5883856456063673 0.006738347165098072 -0.2520262167374627
Ni 3.2897672915392224 2.722931963633969 7.350244965127514 0.9959836582062845 0.17988928956189665 -0.9743614519508187
Ni 4.031934786364346 6.953682598397685 5.945132599787856 -0.006257807984253739 0.6304920878581142 0.6256247324634838
Ni 0.8524721003271699 7.386259604126269 11.450457787066739 -0.21909784144055813 -0.6382473063235008 0.002988393204362595
P 0.25376657836479055 5.502286228959635 7.982558003541308 -0.10545431038077323 0.15105668160092048 0.33443290127015307
P 8.551395500595024 1.5814062965818607 8.079465702068465 0.1445898429296542 0.9376504696830305 -0.687622514322519
P 1.9151945590889534 3.090779699510865 10.485801844370862 -1.1078770393441824 0.28357210986454384 0.24072493279203058
P 4.017264264793435 6.239382767160433 3.8870825940206366 -1.0800643880072882 0.7498627512096634 -2.1862182740127767
P 6.795000524351268 3.781125814073494 10.532092175866111 0.49743184283461434 0.35118029593182104 -0.6104027733074068
P 6.187082312564445 7.646848924131061 10.162084085919316 1.0558754494659108 -0.1567449902349494 -0.8013177245558457
P 2.249226878331976 8.48648544797598 5.777724141561182 0.7035610399296464 0.8167376586553418 0.013980887660124307
P 6.818936162749155 3.9264661198890636 1.4702953999374084 1.3889456660605821 1.1551501133985331 -0.11971262007200027
Ni 5.366283353077984 2.695877822499197 0.43754853183086434 -1.0078341297869675 0.9574801028144478 -0.5153719722528027
Ni 1.4616105957936434 1.177320654988526 6.967457341356348 -0.24275764695134322 -0.6390893426088219 0.7252719492441767
Ni 6.902032961764177 0.6606905094056088 9.089513485905833 -1.0795673937662118 -0.5964216285369663 -0.46079953632356124
Ni 2.6728822544915594 1.481587091586442 9.287759868588031 0.03569719629129336 -0.42107290715790063 -0.029030325794079038
Ni 6.460046212994731 2.2920633550568956 2.8002626962841823 -0.5443040819061207 -1.5023248877153867 -0.8383521516013239
Ni 3.959187800780435 6.691972425235287 10.379566658961991 0.29619596927614145 0.22888500273430903 0.604658671734778
Ni 8.124838561019383 7.071480649606621 0.25139742019859485 0.30593916470583443 0.15419676989179895 0.6642036211779464
Ni 7.527649806475117 4.156855678607095 8.380560305013125 0.6490279418787726 -0.7654390083813656 -0.49752723076189803
Ni 3.088971871837309 8.391095420780776 12.527420504413127 0.7273285746628894 -0.8615543007494001 -0.7638672930188716
Ni 9.170296265498703 4.781785548802084 10.30589135386771 -0.07070482271472985 -0.5951502180237105 0.18301420834412355
Ni 8.791538289611893 2.238488381951051 5.764970821238079 -0.5115770239867448 0.9309722863319064 -0.552730615406919
Ni 3.852010737153642 2.788619382152642 11.463118908178492 -0.34628568684368105 -0.43076339497278715 -0.3566233213242632
Ni 1.0608152005661815 3.0770311700534685 12.546776011400059 -0.11318484625581153 0.45201767636587314 -0.5580036908804002
Ni 3.118041740828096 8.472266883323458 7.852497457222637 -0.6550186122445687 -0.49503866001208935 0.4552930046830353
Ni 6.057361637848403 7.692315790121006 3.4747523543220473 -1.0073942140360714 0.5438466826537279 0.5896125760349329
Ni 3.1610138046285328 8.488736193429558 3.8030864007380205 1.1263092779074408 -0.6035338141017155 -1.182500223276712
Ni 3.416251954719598 4.259612603572044 9.414196624335059 0.3324788628675757 0.45858118851600377 -0.20302664691030842
Ni 7.3306237074725695 6.0611219194094 11.541914885158123 -0.3392668323236867 -0.6173406380778207 -0.8700505111458694
Ni 0.4087706270093562 -0.030402237986198594 0.29185931527429826 0.8237310592540393 -0.09754662549792233 0.20566537008473612
Ni 4.453574434667914 0.6513982751635288 1.7284333056168584 -0.25426281937746537 -0.3341660207620116 0.295613100189478
Ni 5.6764794644451655 5.66814537887007 0.5467476507105306 1.5702205231160955 0.6927742337267876 -1.2651557905954145
Ni 7.861664047441404 8.75176608079365 11.203340398885288 0.674246093015613 -0.4115451701731235 0.4389526156517989
Ni 0.09320074788252854 4.8997372653632745 5.766320364596389 0.16158534904638622 -0.34073338956688415 0.2103928574673925
Ni 7.981640530996978 8.950482498670976 2.3621347556839436 0.37099733065774815 -0.5944717038994471 0.6755915512999139
P 8.5749695734582 1.7188192780488853 3.523543815403662 -0.5937564229999776 0.06480054141515292 0.6285825295402272
P 1.8535747528357822 3.153276302185711 1.3872917040475752 0.09621222295721496 0.2802283902032916 1.1105306749169455
P 4.6873988659657035 0.9691944940703412 8.280676018221458 0.7713779995736199 1.1607733731225813 -0.894279558896563
P 8.328074548080597 1.4854558428078528 12.46213261581031 0.1914037179593994 -0.3110024381613547 -1.2653730488125434
P 6.33529706438097 7.73411276593363 1.307204938109025 0.13935276290043097 0.1974537808082212 0.048078857785097844
P 1.747256407353928 3.307493041878443 5.777129366256583 0.6832634660228749 -0.30863908013550073 1.4422040111640904
P 7.086024623240384 4.135008081172166 5.981448242094258 -0.5437304687908378 -0.5386229723609434 0.8250081261942501
P 2.385573241471602 8.266536094072736 10.068603124747385 -0.7556307640416923 0.3428776896033966 0.4426074387955668
