# total energy = -381174.05477724236 ev
CRYSTAL
PRIMVEC
9.16335789876324 0.00000000000000 0.00000000000000
0.00000000000000 9.16335789876324 0.00000000000000
0.00000000000000 0.00000000000000 13.41150053126070
PRIMCOORD
 96 1
Ni 5.899708895575666 4.969408142567647 7.792350082680831 0.06273080337031778 -0.7824229445338718 0.46333053027553106
Ni 0.6481994476816502 0.9769422449981968 7.417190295644001 1.080945762170977 -0.026078442254606697 -1.417285650655856
Ni 8.740927153129794 3.7410600087202317 1.8198868739510559 -0.4754802782641876 0.4218696920275832 1.1101732915775269
Ni 2.2473410285004105 8.192555159679852 7.978582504411985 0.692449246287201 0.44253364813483786 -0.29644819449626364
Ni 7.663325420997589 6.788710394281184 6.519746595254681 -1.1404246342629005 1.2535971392235379 -0.5800722406446654
Ni 2.785330937387509 2.5207298130833093 6.250604110748058 -1.481552431054726 1.350461908163087 0.012316869694140078
Ni 1.4558376584344785 7.829823635037183 -0.0059378559547416995 -0.8265788131154796 1.1341621982929564 0.38407807510110625
Ni 1.4518515977241198 2.702869879151829 9.003596641577113 -0.0032830416266459586 0.5819635441301074 0.0487386028562838
Ni 0.3863363347343592 9.1319826172109 11.915098770980721 -1.0109490212668653 0.46779010870878146 -0.45150911216057077
Ni 3.2595896916986375 1.2593569371666213 8.159959262762866 -0.23075933693888645 -0.6503029519364543 0.4896072045838729
Ni 4.65448185637542 4.6001523070611245 11.100605452141872 0.42866948855823594 0.7929066176740152 -0.5393516229968518
Ni 6.253350369127126 0.5975828910106591 0.1655873762588817 -0.23180011949857499 0.4074028658699758 0.2155314642455385
Ni 2.2931944717064714 4.721484329741271 5.058013232312053 -0.04059000560722042 -1.7513884222801 0.4603717047575232
Ni 8.308169246996174 6.2690746913776465 13.077500966634481 1.4386749149649094 -0.4292104486633705 0.5423171333830789
Ni 6.48083989371419 -0.06796645862270081 5.217020401223558 -0.17046233982104192 1.1426614940132191 0.22307816624454482
Ni 2.1527568476904664 4.119561672403196 11.315323088411468 0.0723680693497657 0.36365220314658664 -0.255210013782083
Ni 0.06204051503330042 0.6087887614536431 9.567563753930411 0.2380139616187707 0.1710284967371571 0.11741276829423004
Ni 8.1573953552071 7.795653473223553 10.1381688027862 -0.20438058983504157 0.3193621229799597 0.5076234386556354
Ni 8.540606984878856 1.9346872550809864 0.13565435116357424 0.6394426121831827 -0.20035989871142268 -1.159154606572236
Ni 5.183959005722465 2.4795221923603568 7.935316793492374 1.1568958924450463 0.7627892294633444 0.39248018312187244
Ni 6.194329180539948 7.2857492564680655 3.6731017971196906 1.1765684311733091 -0.4026848915690162 0.2502375002681561
Ni 2.9543582382226408 7.070327874307536 6.008982855523027 -0.16660465663784857 -0.259888650204675 0.5088827649840333
Ni 4.036046828002708 5.9817301126295135 4.234011096923456 -0.4808600545188622 -0.2630667908223405 -0.3517883618294651
Ni 2.8668573331117946 1.3630128423518653 10.678049112419384 -2.1130655039781865 0.7718397697013869 -0.2708567191804045
P 1.3749710244829423 7.732288852965778 9.873948874172923 -0.028562385018725 2.098143592561032 0.44396806658851923
Ni 4.76956446893036 8.648569668302878 2.1680898945563136 -1.1533585687157493 1.6998234057186146 0.5540272227311556
P 2.6467076582465636 0.46015543008282167 5.756980432070948 -0.2737957472040704 -1.5283855893581808 -0.21675248113683315
Ni 4.978351579931579 8.571918179010572 6.8955633950568735 -0.7483386012556532 -0.3085136103012299 0.9490754236905203
P 2.215883220641416 4.512834669109376 7.329559270850194 1.3191633551601216 -1.6938851858573087 -1.4767192713321406
P 3.522138223820951 0.30674340753854684 0.5776883245548878 -0.4490598792891298 -0.6113700223166825 0.21041599739584405
P 5.377049284547028 7.301693499309501 10.923760890635458 0.3210472239918664 -0.7662861868730093 0.11628842488179972
Ni 1.2065759953466952 0.6829633950907537 1.8231325353386632 -0.7352195473751919 0.3860791646915351 -1.0074703186896456
Ni 0.4982108556693066 6.049163263819242 10.833368029754062 -0.5296359383709845 -0.037361985588225975 1.8146393598199457
Ni 6.151728729407859 4.668144423086099 4.209292938840252 -0.1758266894567488 0.16996251736648793 0.9742298114689609
Ni 6.1039509810312795 3.1314309673421294 12.24569256660415 -0.2561237838456041 -0.4429954182626048 1.2780691562229731
Ni 7.259138864967186 1.349561032874148 11.260577522646024 0.5188879558258612 -0.6401265256240847 -1.0402817087927116
Ni 4.858833902126492 1.6760789668792575 5.82356872165724 -0.8431138346560254 -1.3954706116632933 -1.2098503331548907
Ni -0.015475078914147811 7.487544725349735 8.135147638428524 0.6524909607267085 -0.3507226395691121 0.09495289662881712
Ni 6.558930030205407 3.8331517561664574 9.844631626732182 0.46242395930086166 -1.882857925777712 -1.312551763380875
Ni 6.899018897341647 2.4247436385062735 6.1054519390642845 1.0983655003093213 -0.26181029270742007 0.31622049202718444
Ni 7.217069888596477 5.622297396850588 10.884049646266535 0.8867711663346598 1.2028595036593541 -0.4557151798221184
Ni 4.090183946799953 6.423605559928208 8.248971205600467 -0.46543343555114686 -0.37345504816962133 -0.8025078882092049
Ni 3.428525358954221 4.208583694934547 9.269197488234184 0.42578213970811185 -0.9255647421630899 -1.8073222573332424
Ni 4.519249019677769 8.524781865690834 9.247002002595952 -0.24387736237808325 0.9727825374994731 0.2877768919745108
Ni 3.816437791256814 7.251056783251009 -0.06084194781280627 0.854368067413606 -0.30814619965948215 0.4073108203768018
Ni 8.074457802357767 5.210028759104008 8.381276349431545 1.4661831476875071 0.3945681759991527 1.0923462906984347
Ni 0.5291738421987391 5.59650254420769 6.459514927081667 0.7104816783088795 -0.4941817113284327 0.3685049032531976
Ni 7.800968220837365 2.949749069171352 3.8427439592735926 0.19382903957144038 0.4361701678106553 0.7440759693245572
Ni 7.131062610832271 8.009068079991971 12.132311589621423 -0.7139480395909252 0.5295585481658299 0.7054618564967851
Ni 7.536257136237708 9.008387245115907 7.669245866572218 -0.9480698652441413 1.3941410942185926 -0.19814232223481357
Ni 6.768303596115737 2.6295080353653137 1.4278417672108263 -1.5942402830694609 0.4065490025101128 -0.23852124027249247
Ni 7.204516088198335 5.606710524969391 1.856540305770449 0.26497686336085974 -1.297078093225308 0.1258578137377897
Ni 3.1299098499216242 4.87381599238267 2.2813902339890357 -1.4134315670170883 0.48811082254400456 0.16628455429426847
Ni 1.1343137545147615 5.89937901468929 1.321171117258437 -0.7244473964603523 -0.5826705974994609 1.8444124773173203
Ni 1.6155733143033941 5.74031228395108 8.824914826800752 -0.09389231657478668 0.5453338087222157 0.22675535798581592
Ni 7.646868030110682 4.578022797600166 6.091557539397347 -1.8461564565916206 -0.7535975356617474 0.8303195111048346
P 3.741463196470245 2.7433902480281684 12.16747689210895 0.11428579262947415 -0.09231263079249263 -0.04643849396819744
Ni 2.3931483802779563 7.937007433035044 2.0798953232482855 1.5973155795606748 -0.5826024632656869 0.5059115981708513
P 8.510551170786954 8.99708882475758 0.5274987803645929 -0.4888518144750871 -1.1393208596757605 0.18746941590199973
Ni 0.32740586339093436 2.358171842964301 11.273184470520302 0.3084858423870881 -0.17858882558291822 -0.01573463712643742
P 6.327472771623894 0.9374573355707554 9.154516230757668 -0.02538938660738208 0.02269692737688349 0.06279122429460798
P 5.879155483682941 1.9964391243387092 3.2954202539736857 -0.6178965105812907 -0.07073773283519431 0.551656922726766
P 7.5900277207167575 4.1734147271038395 13.397713594030858 0.03670738272336259 0.8021142523152122 0.24125278027104258
Ni 1.6442912781338888 6.551315279744928 3.8289301971566587 -0.6368753656766386 -0.630941773801023 -0.07607894254244962
Ni 4.509123509137662 4.3412233013309764 6.193336788873438 -1.2760104739217315 -0.9325887388894067 0.32067081448905416
Ni 2.8723095310949294 8.448716831307637 11.496646699286211 -1.1580099514448314 1.6082175711851592 1.0899119702253293
Ni 0.7107769354911047 3.9272594423627494 13.233355940409517 -0.43437090981838744 0.8054304611726387 -1.3680158578864505
Ni 1.9180649237508915 1.7728531902404105 13.229225098643473 1.140049767421985 -0.6153236076477919 -1.4045669175376068
Ni 8.74246659726621 1.0539877586825612 5.262042727863114 -0.5293711147453722 -0.9654703201087759 -0.19888639948968972
Ni 4.233938706395612 8.43193872289231 4.527051618976323 -0.7874756764664309 0.5343929934399958 0.42143954646869997
Ni 4.234195280418349 3.2554845073348653 4.168629621579818 -0.7496051266729026 -0.7276484198961533 -1.1911946657269161
Ni 5.429646959207858 6.376368449670965 5.8439947628743925 1.0680851041582249 1.5755270229306737 1.5973186648844682
Ni 1.6750526707883144 3.0628065796182704 1.750750254517521 1.6818729918877808 -0.4378329002250589 0.6718305415955849
Ni 0.2011851892418764 3.1811971643949106 5.790200353664661 1.3156869665757471 0.24598900940444732 0.5362413595026442
Ni 8.194057950384448 5.6629643794542055 4.2083949297606775 1.910374386030426 1.014815446200807 -0.9180285816870448
Ni 5.267363889827495 4.263627986169321 2.207546397574095 0.629927987824528 -0.7766032525283011 -1.175662888639904
Ni 1.1788293474594147 8.772155877039918 3.9077763106791514 0.018708375042780685 1.7736336068315455 -0.10875483550891593
Ni 6.297884288787689 7.5194881911803355 1.1529923433699243 1.2071172504944436 -0.17290823025837315 -1.8182008519189592
Ni 8.06374583690855 1.0103701748174834 2.4765807544568506 0.037732224443451146 -1.1001174500034214 0.7552332714929574
Ni 6.351434952675823 6.990111838770794 8.816345254441378 0.23570768208309728 0.5968697718179784 -0.005673653346009584
Ni 3.060735660720475 1.0784997412117805 3.2589674996935036 2.6190863740333925 -0.9203598009233828 -0.9981112460722489
Ni 0.6232219665683246 7.801554675746476 5.880915764746067 0.6335478439653024 0.9100710174028649 1.1647133316069362
Ni 1.3880837897163305 2.140899462496893 3.9602951804615687 -1.752174408516505 1.6869005270093596 1.013741496410338
Ni 5.072147711957406 0.275418468369898 11.402042359088766 0.3279123265428159 -1.0525913793980002 1.2675104068705203
Ni 8.457641941955659 7.57052809498884 2.446780598051888 0.8881767884329348 0.5995056667789289 -0.5963637787158375
Ni 4.278967447385737 2.3981790637951685 1.1700242768006008 -0.7624943239307449 -1.10750860026117 -0.46923429735447575
Ni 5.9664822849926455 5.743739379826193 12.733294086433332 -0.5473996901123088 0.6533044577669395 1.3771905824071828
Ni 3.27546979103439 6.571722077910375 10.586917684886826 0.41237075139821244 -2.6031208518430717 -0.5890333064926953
P 4.817497994392172 6.320884317254358 2.371716202357362 0.06278633919860155 1.0529191950510641 -2.5960117516021164
Ni 8.434312032602616 2.8256588757467966 8.09384105343966 -1.1517901957873646 -0.2292899514822116 0.3690805732510095
P 8.198282258401633 8.172652346201922 4.552721849951035 0.3452328200991345 -0.8387468159365813 -1.155427535429636
Ni 4.022246810922707 4.5515590198265645 -0.08748624373811867 -1.1838168852056064 0.20845167458062167 1.3390580372015197
P 8.930828583386072 4.116666051289464 10.262131625535183 -0.5746240730459007 -0.7138611363040739 -1.6047087867009524
P 1.6646339327936521 5.903749936433754 12.711769358597394 1.1923580899073982 -1.2593250428462506 -0.877975679530217
P 0.9335354183660803 4.490549382563184 3.3605332429292467 -0.1468279882315536 -0.1444998543190092 0.17287634857917325
Ni 4.8854168035535075 2.207086397004762 10.28581615684108 0.6912480268902482 1.5132405061866263 -0.6214580026803039
