# total energy = -340869.6301369734 ev
CRYSTAL
PRIMVEC
9.24324960627638 0.00000000000000 0.00000000000000

0.00000000000000 9.24324960627638 0.00000000000000

0.00000000000000 0.00000000000000 13.52843012077380

PRIMCOORD
 96 1
Ni 8.777898033197003 1.353017607658933 10.522223059335884 0.3181902141590456 -0.590502434839054 0.5344428728413246
Ni 0.16888063727894073 1.639807907584699 0.5504789465623173 1.955975728809309 1.163321850576048 -1.160848449334891
Ni 4.208497679688688 9.176189650942877 12.92775376555533 -0.06426780884013449 0.3507532356967314 -0.835199207794639
Ni 7.1178196796221265 5.646756533549812 7.406693407968406 1.3100235976423826 0.25793281202988483 -0.4291402575470674
Ni 7.147795537509103 7.648437656143819 9.392464125326255 0.4823479519182983 -2.151128629398495 0.21361702083164502
Ni 2.0924590752020866 6.7690903652959165 9.594038135823277 0.12151290650553266 0.5381758575211957 -0.3065099496076399
Ni 1.1430664402075565 8.87607982859493 2.2296205777523954 -2.041684995352671 1.2271070633528092 -1.8541829264405227
Ni 5.129716890434218 6.291399234984782 8.260148508525527 -0.9918418681237694 0.44738480557955207 0.9886866103242392
Ni 8.445261216120631 3.551653889012026 3.527348764647608 0.4733411204339977 -0.5497226818185307 0.6047969970848551
Ni 2.913518435172627 6.939267830469259 12.149571991019917 0.49932751719543034 1.0631519285226658 1.2902644127375844
Ni 7.229505862430746 7.561070462573755 3.4577988586701873 0.6420283706324879 -1.574407821724566 -0.0032912691567620737
Ni 2.222751919104288 3.381901613312258 5.673038788966351 -0.001664017965984231 0.9834947817106546 -0.4818887528936927
Ni 6.00422996183257 3.3706156057636925 7.544737640838853 1.4233529398958582 0.7628252249076024 -1.374129426983356
Ni 8.819732980096928 5.946468896172463 13.378331672326574 -2.533653758190185 -0.42942642132891845 -0.5846475187201737
Ni 4.6425514294619195 7.63641218864121 10.30529508721812 -0.41389387291095814 0.6197464193058358 0.5123858930412853
Ni 7.334462959657583 0.5235154636631182 8.748023851053706 -0.27567110984991233 1.802959352378856 0.06039649881018631
Ni 1.2314966074615548 6.656978993013723 1.346110127363238 -0.8498346983196268 -0.8118808447836727 -0.12226803950400233
Ni 0.41038548529423186 1.752372199088743 5.174151039072601 -0.1730367854164375 -0.47624569567530234 0.026463079287535073
Ni 0.1543936924543153 7.246975603844988 11.406753040136676 0.2936184383569524 0.7207352377160878 -0.3735962017331759
Ni 2.2067426110992785 6.204725285121633 5.501728101413439 -0.7682229988844059 -0.5964725363795598 -0.3081695966982499
Ni 3.965732976776698 8.53133435477112 6.862350130374751 -0.25745227284904043 1.015643084308425 0.17732075750377202
Ni 3.2312274044267744 3.282148465511992 10.221932993624138 0.27436447522334684 0.4345372601929226 0.12993686890316977
Ni 3.457733231599266 4.191037181523871 12.62313416181267 0.9322046160771107 -0.7668615997605052 0.45261700051276893
Ni 1.6931691865182552 8.900195466346124 13.323934225132417 -0.5427539638101814 0.43337640711560205 0.23781598667535173
P 1.9708179127621768 5.368701104331168 11.185387383969719 -0.5350062015439625 -2.5860039896571267 -0.6267297926022045
P 8.373043708359004 7.24532106219782 1.5016555286959739 0.9201132321302153 0.35582807911647746 2.193200361757565
P 5.119780397301778 7.266229292398357 12.586701894201962 -0.2989519347547238 -0.23137974413170476 -0.8462009582217813
P 0.37875878305985533 3.499309367515278 7.5107816397492435 -0.02735396653292063 0.949910775107622 -2.0297892723563495
P 1.5515071458226581 4.138637200530569 3.463494548966196 0.5244147991813614 -0.9702857392195483 0.9755662708921973
P 3.1790492614196855 5.529700022824964 0.9214493676562252 1.2000860546792753 1.2656993218037105 -0.11121640967553104
P 8.685705863426815 -0.0549391016104933 12.616667584514573 0.15246204658887935 0.3430298989105447 -0.309839271091189
P 9.367571130298373 8.056508631781899 9.10353771045825 -0.27919326407055783 -0.33128150012536495 0.5188028523112227
Ni 3.2020094929926897 7.657819554310726 1.6743055630906436 1.6725913094755387 -0.204823333799415 -0.4603233680180911
Ni 7.826989505296686 0.4908572147928531 1.4595284951142007 -1.8941818354309634 -1.381245469202847 -0.20504522000223396
Ni 2.005110368130875 8.894889841175871 8.213989569544339 -0.29232903012156747 -0.5051376961193043 1.8686009016380656
Ni 6.900520128877457 6.400940983926679 11.620745356236892 0.25505574759240585 -1.1252870072905135 -1.4520981303493508
Ni 3.662785476855114 0.7238499544121781 1.65659642151628 -1.4065055293212163 1.3280105211381064 -0.7713175786493296
Ni 0.7534237309491456 5.947106680382824 7.54182879024464 -1.6439687606428397 1.2361748299820323 -1.2909868927259058
Ni 0.2893442097420386 4.056483199636503 1.6594239315155483 -0.3510555974284987 0.11579245908198767 -0.48471979458458453
Ni 0.7082565926313175 3.7369255804972505 9.695595565911406 1.442695091867896 -1.195693067817902 2.09066631034738
Ni 4.482707917146314 6.523931660782716 5.9382904690807585 1.3632027527685233 0.06602927161593145 -1.6769691268282603
Ni 7.801052947408662 3.910513804708611 5.881336339095501 1.0252695516545955 -0.31939914686548215 0.8176069486341725
Ni 2.8993577770527224 9.245652670375696 3.830250048322064 0.834803257907801 0.5206015960828583 1.1953439120085996
Ni 7.372813201524086 5.38466419608905 2.03539310189878 0.21445108669716617 0.3803227218237321 1.41800993041639
Ni 5.822369029385364 2.6722326521687205 9.650343389698865 -0.7435720331049452 -0.6661633160074786 1.3349026202722494
Ni 0.15443806005155783 1.3673908605156244 7.831431810970593 0.6611059560892292 0.001349572049358966 0.6998198277196592
Ni 7.318148624421531 1.844582855357781 12.704115194354637 -0.38364150178431994 -0.9295970032509344 -0.8264489724058347
Ni 6.7047296195459865 0.5063137764822161 3.5714242752082814 1.204198534185752 1.0999660120272217 1.1269667089857816
Ni 8.13022354595046 9.230493741317837 6.626793313364786 2.578945797258765 -1.9831193791036361 -0.43278993848451275
Ni 6.392890113677047 2.8730884621853803 4.3383376043690385 -0.8871316349978722 -1.528546540416077 -0.11761048612733292
Ni 5.752397631234139 3.6731748892094043 11.799577275847353 -0.27282772686384626 -0.40030610692419444 0.8747096071844356
Ni 4.772058597162951 4.29576319751507 5.638257365703042 0.10810820306385253 -0.4880470591856046 -1.0992697572911456
Ni 4.879908831459978 2.306791542881162 0.19363775654026705 0.253548309808944 0.37341262496746014 -0.8228016054612345
Ni 1.0431191841693541 2.7783174258254717 11.867422726630707 1.1698267415741015 -0.3293333752600587 0.6043874203512624
Ni 1.384795899183888 4.708298662625679 13.304723979851348 0.3553997333298073 0.34659833298809334 -0.9197231957806482
Ni 5.266480008934286 6.673894139462434 2.5514622038246952 -0.6412459839405086 -3.32744097869694 0.4222237329328922
P 8.602396456354558 3.5806407192104723 13.136849008109904 0.24500427689367482 0.40352332830991144 1.2503071556183563
P 5.41661810935309 8.795783720835393 8.60536631239498 -0.5180086385447014 -0.18265193990869835 -0.5736887057158249
P 1.8684119523767848 7.426729075423173 3.396798958411377 0.1475890347672942 -3.192352133279186 2.3696531148340867
P 6.598959116369702 5.010811729824263 9.567711512809497 -0.6686117775479712 -0.15458989156515957 0.3516454084936976
P 4.849618703092531 8.085476975481493 4.118095003007283 0.32459406080286035 0.4353610416457986 0.5991760513536519
P 1.770553670708751 1.7502647382197234 9.933574114270861 -0.7719220450025479 -1.0853186944276922 -0.29100414066255686
P 6.207673881688376 5.005062428681587 4.18657546502617 0.6283120494876598 0.7673879045776204 -1.3898139275981485
P 5.262412979187055 1.4159641362467585 11.491873199771392 0.2177097028437799 1.2473079637807165 -0.08092675755305416
Ni 1.2037945889332562 8.116164563574237 6.276312403272439 0.7703480156472087 0.6781503131660257 1.415484335781059
Ni 6.512580950488171 8.909595851011883 11.540237578065511 0.45445688193498507 0.33489004341222967 -0.521729024819082
Ni 1.5889423059960346 1.8716748194239952 2.497577756973654 -0.25942173787058553 0.8498154150459171 0.7581812983776878
Ni 4.679838697644487 1.4576974074030042 7.3510915653741025 1.0375098024745293 -0.09606181342227972 0.8625804280210693
Ni 5.920541581533866 5.610199482071861 0.1354413338322187 -0.9045423742751518 -1.0989781941926557 0.30762786526216696
Ni 5.546032844559867 8.673745098670185 1.8331156801204749 0.16243792685466862 0.7879353897116688 -1.1070869393427192
Ni 8.756259586291847 5.52584558781452 9.49362964163874 -1.455294011578829 2.428516464829198 0.3298547949811674
Ni 3.7707743598935233 2.3784082394301302 3.4327718365256352 0.37825786887490337 0.35047478522436415 1.1967289652815842
Ni 8.009626870695636 3.9501118852475603 11.191569269185509 -0.23170421735065902 -0.07710069893874465 -0.7991901366898817
Ni 2.2311540328320905 4.480544996780742 8.286636888404253 2.338301854216315 0.19039044620353662 -0.7080404158572386
Ni 2.0658015438588726 9.160189586187292 10.986383921137934 -0.2694575248400327 -0.5893575226013333 -0.31353626032680193
Ni 4.42576950068508 5.291131755152162 10.855834114901704 0.7025570241451643 1.1890069140469781 -0.9674606110659273
Ni 2.4179878334702285 1.901567488066143 7.748448690603057 -0.07517957065663182 1.5712093693919262 0.3597050455733805
Ni 0.28864357143558383 5.845920828921602 4.016469172873405 -0.6028187903125617 0.13676983266460316 -0.11909709797518843
Ni 3.907204721414273 0.9318766773331602 9.610136179022772 0.43486121919124465 -0.44093879284389226 0.8761049448700652
Ni 7.003092467752509 3.2523759591123755 1.1707499722370043 1.3474989688800212 -0.9415225510439269 -0.6566610329439981
Ni 7.051129635016963 7.874934240066884 0.09606786425430962 -0.42718879024765144 0.28630596385593915 -1.0912373739049723
Ni 5.062093277637076 1.0297442022506194 5.119130596867164 -1.6278554000207448 -0.34542462439496635 -0.5917118817661229
Ni 7.983893664294974 3.004287144531283 8.812648953737206 -1.169418193281773 0.44096090433107926 -0.14731624072188176
Ni 9.29196134999758 8.22567858276786 4.50472348862803 -1.0182933774470784 1.5375029782784166 -1.9709580611507538
Ni 3.511112997031673 5.310579551943467 3.841329931408441 -0.022131798902032852 -0.8510495445633344 -1.3200259602707332
Ni 5.269345416256199 4.008390572875496 2.3830326371177204 -0.9017933507751051 0.7553571986653314 0.04029432874367254
Ni 6.223415135460045 8.358004941543674 5.878860072574403 -0.4879758396280371 -1.579268749361293 -0.3505699160413317
Ni 2.774860450540326 3.6129366327032573 1.6163494648676588 0.8275717731563683 -0.21120686872825564 -0.537572419609242
P 3.9359327406288047 3.585937101131299 7.374644289235283 -0.7861736698255557 -0.49546829135034026 1.0665180167814214
P 8.135196414141394 6.957440058839841 5.891185021358397 0.4144615724889701 0.2454274804740225 -0.1517616780877451
P 8.958834640701655 1.0857582937693013 3.103813832720624 -0.32506097313694987 0.4870409865185934 1.7260743689953433
P 6.999404411231724 1.563708235064351 6.177270061352996 -1.8207729835215094 2.5307005890991316 -0.5085554635516016
P 3.024936563747906 6.651340610864153 7.5188574667723245 -1.2631744984993278 0.05282305733830257 0.5917126530970712
P 2.8023036580847096 1.9011792715902711 13.241004715611547 -1.3198444403875464 -0.3081456854388499 0.6985779848927582
P 5.629379224629825 1.6523879700528388 2.1102588006208203 0.004310197339579673 1.0574607916751595 0.9541908905402148
P 2.7914428400097173 1.2626556012749999 5.701245488913283 0.3992398704432092 -0.869016156344084 -0.6082741570001783
