# total energy = -340867.4545974458 ev
CRYSTAL
PRIMVEC
9.33041161523316 0.00000000000000 0.00000000000000

0.00000000000000 9.33041161523316 0.00000000000000

0.00000000000000 0.00000000000000 13.65600053135337

PRIMCOORD
 96 1
Ni 2.5812211003453234 7.128639877417474 1.2164449729280065 -0.4507151555043657 1.74873324404544 0.15863963615450097
Ni 1.2741890254204231 5.650282781185414 8.063868105045756 -0.49165945912721126 0.3246236284892151 -0.1860535093910796
Ni 6.810034305988675 3.42169526407083 10.516745659040543 -0.17874849108923407 1.2960388533275162 -0.9487933736737273
Ni 5.162628808926468 7.616751039854181 7.498360243761154 -0.3342115292879663 0.026694992792683055 -0.2897358154730945
Ni 9.251691106763554 2.357291217360253 10.211274508289998 0.3997759454523373 1.231267622488402 0.04375940447413754
Ni 2.2663383632211507 0.7306150961742098 6.439678538602025 1.6536852165996554 0.02554828078274955 2.4422070749424134
Ni 0.9017059241454154 8.35613952223551 7.5026886217910205 0.07591824859486926 -1.175648233351885 0.9422733131670225
Ni 8.458997981819987 7.684947019634927 11.512267940703735 -0.2227071560583713 -0.21120506895604269 -0.22676075730245462
Ni 2.0722657979674226 0.59729657425669 9.239090385639749 0.04204499288619211 -0.019856115493978706 -1.4347185014203225
Ni 8.843653538317591 5.102251714226618 10.229669415136042 -0.4736712500799068 -0.6375546511318504 -0.6096337563518661
Ni 2.707321615701291 7.643146774811047 5.967317111268602 -0.285711781915366 -0.2711968761286426 1.0124281769155532
Ni 8.43982398558939 7.070007569722551 8.546854072285642 0.6787851185365471 -1.5997884665811994 -0.34673614411753834
Ni 5.3707996263964635 8.729897157761176 1.7991375866493535 -0.06085389806257906 -0.6876307418526352 0.15578211210104786
Ni 7.494205411390602 9.27354293117818 7.9200845932634 -2.0359799745480935 -0.09991101196504083 -1.4814413593981584
Ni 7.967359923726265 6.313339164704208 0.0452739571336857 -0.6442770574573485 0.14543007944276243 -1.1292081967217908
Ni 7.4177333563512 3.2046325641639686 0.2550029533727861 0.651678235017426 -0.19065938359420714 0.9504813028991115
Ni 0.6112651337490628 3.919071525416044 2.89545444080884 0.2993990495944715 0.23954479644100035 0.5918802890231871
Ni 1.4687374416754941 9.061444010344154 13.543051660889352 -0.593807330842571 0.5416579025325252 -0.7810731153741967
Ni 0.5974178696099737 2.62647359753189 12.66730667451134 0.3141052454563945 -0.04083117508374903 0.10088211762905851
Ni 9.282238874967433 1.4962434956354937 7.924550128346594 1.1271256031611492 0.6655436801456086 0.9067836049008448
Ni 6.2966004059510725 6.927504190437927 3.5641482591317826 -1.908012827776785 -0.9423021095224287 -1.9102291187018134
Ni 7.846811003385969 7.731692382708061 1.9071968177661573 0.3292487859660523 -0.01036257418124667 0.7472880485039517
Ni 1.8323622499960843 7.372163625163739 3.7738222059413156 -0.15360695882659997 0.5804319379769293 -1.896814130847488
Ni 6.4295027915027125 2.4750503445750267 4.510140049802212 0.0057117056727966145 0.8906507038947242 -1.5294209726012304
P 6.091322016136301 2.4921343285644295 2.028857923191946 0.12601850768537004 -0.1749460866240084 0.5917833584340066
P 2.9223222946023317 7.783877375855373 8.2212264329429 0.6210042029723369 -0.3877251849353904 0.4138128831613776
P 6.636927176029425 8.362558845547749 12.423000105215806 -1.5527856154691 0.28932289630539204 0.04915100780335406
P 8.116543877853276 3.9552921839888793 4.235913649016337 0.5137143820447218 -2.22608220008725 -0.5552248425836824
P 4.05355075056037 6.178953243677792 4.245022930047933 0.6368915636265547 0.9667877533686189 -0.837230636402371
P 8.644365272872669 8.306128515035512 3.959571110836252 0.7505440935474041 0.9645259539176356 -0.13157106207248306
P 5.722742759154666 5.49991386476094 9.75093065134344 -1.0251479384750668 -0.5451612877000933 -1.0464024769784688
P 5.058277483455425 2.890934789337258 12.081518230157723 0.6270694353298104 -1.2900787790893393 0.0012405572753204442
Ni 2.1541494918456303 5.367505991034225 4.755388057647461 -1.8400755405048632 -0.4029193761773254 0.6131895920239246
Ni 5.026404796777216 0.4918993096238712 8.959784508674828 0.07696648735372551 -0.6748037652912958 -0.661125496473255
Ni 2.2039738908098085 3.996896490165147 9.90233524347672 -0.8055685294123998 -1.3213346517798277 -0.9501280333247506
Ni 4.235027259896187 7.728305443227911 10.196198428918027 -0.7480190131327054 -0.79996660984459 -0.4082744698416517
Ni 6.649485910300171 6.199181576440777 11.524640066738659 -0.8806681387607155 -0.5106061754330432 1.1217684526142937
Ni 1.409507987625943 4.770555575054983 11.906708300046606 -0.5053909497806909 -0.5374577484082486 0.4997844022271909
Ni 7.609631935657615 0.7956060795047311 1.6732423403527887 -1.3083325830932049 0.23089971917149266 -0.4930185442582671
Ni 1.0829622357629642 6.899550276711957 12.843700908544573 0.13143685048746395 0.11052915380051931 0.9642539312031715
Ni 5.8520249449313795 4.941684657714532 13.577014359808754 -0.3099076624352792 0.7811708172943256 0.33400018460810865
Ni 8.967580067726246 5.865917928088246 4.103191340412264 0.15156370314432607 1.8565521980036477 0.37952876516752704
Ni 4.510013156201854 1.820409992491756 5.665191846186324 -0.7491754953346517 -1.0471424404682868 0.6207010699096213
Ni 5.705509488576607 1.1242399775265455 13.47467653720222 1.2682146320263965 -0.701003049394483 -0.2914643681284271
Ni 0.7379245407713141 9.167540122820123 2.0730495525578707 -0.6919517378254921 -1.3845966450632672 0.8566969726570989
Ni 4.461495014888421 2.9781648091717337 0.5988827442611675 -1.0616329207749782 0.3590931230209945 0.5978249366423962
Ni 3.182398192865909 5.032310947440948 2.0144788255807673 0.4367026432753576 -0.25010226024187254 2.649661161496456
Ni 7.997357197634473 2.1949140609607043 6.071389457427092 -0.5653205362567876 1.8859995567304875 0.5280189715928519
Ni 4.463939582777675 7.554535854031497 13.018620937514825 0.31786471249882675 0.250145197664666 -0.3685313856157589
Ni 0.22257510719301063 4.697890328026328 0.6119686467981076 0.7664772198378929 -2.183097726105924 -0.9377255458953399
Ni 7.112992776843893 0.8541450830817449 10.110998706689282 -0.10271428574179084 -0.33170933169140293 -0.8656325845838319
Ni 6.614879412967186 5.047734118131545 5.207688166588959 -0.326095070828419 0.6072117771739348 0.6550270968850009
Ni 4.9613251745346805 2.999288861466659 9.204431638000734 -1.0462338126110884 0.20561754756593617 -0.3210202274086729
Ni 1.0109687783832642 6.762458536266139 10.512785832276425 1.2829797061507129 1.170523253420494 -1.7067628131509254
Ni 7.726047483574478 4.351125573812155 7.961803663504697 -0.5651040493706074 -0.3848722888676275 0.33007950939746383
Ni 4.632484141371105 0.7010554185790014 11.266910767040528 0.5687125926574721 0.5140617380818114 0.9411980778249726
P 2.923040736310242 6.376272792234803 11.527467181511346 -0.2089638383303498 1.6279867833922865 1.0322961194840736
P 6.910532171390017 2.245587527397867 8.16396662882244 -0.3540167369393516 -0.46074065806116776 0.29962093579729043
P 3.6649857515223174 1.7406163108547426 7.888375188791535 -0.41056480853772515 0.8500943797389166 -0.7969010835453888
P 8.939075659704605 8.997819932341022 9.464168842316294 0.8850084180072824 -0.41821281200128624 0.22087164551152932
P 8.812695231994905 0.7164935179284638 13.49308450662477 -0.030129986616161012 0.24794150514512783 0.4213626704841776
P 1.9595637539433952 1.7734686907710107 11.098149742893549 0.06420944479837329 0.7840892764927012 0.21614698634235036
P 2.1988608251483157 3.3147500841218767 1.1947965514904249 -0.5425120230027043 1.032298433476919 -1.7324265364656166
P 6.098077234273017 9.292409023819673 6.061161460021749 -1.1724127571337228 1.6771329060996343 0.45224470477501466
Ni 2.1257290575301084 1.750497216941459 2.496166932540519 0.42522883830780317 -0.901977184651137 0.7939607699701423
Ni 7.568372854717615 1.9079665767389187 11.9791262911628 -0.19666085259328064 -0.1536362694026386 2.1382826266737625
Ni 8.881563001424606 1.6058944950038496 3.597249761042871 0.03902574644389408 0.4374747455546917 1.1757719034139427
Ni 2.5171584929880115 9.004033986593857 11.334344452177946 -0.20989509189536756 -1.0078865802914576 1.2888189385403095
Ni 3.4921865251521718 5.250735887469302 13.485778794192383 -0.9136427939145233 0.16351239086577002 -1.0287533964381381
Ni 6.55122734372868 7.648390466237614 9.720013398832634 -0.5757988100802923 0.7501072631203017 -0.3842341410629963
Ni 4.103281845406638 4.687188345701999 11.236020572723918 1.7085479300758057 -0.4846262064295138 -1.150523156149483
Ni 8.996075145336096 0.2296009072716672 6.014334922366034 -0.21744127967374163 -1.657517445861552 -2.487669578150587
Ni 0.2846186134387408 4.17405301884171 6.236600259887582 -0.4183686208528601 0.5238108470487752 -0.3763107724508616
Ni 1.4955530451629564 0.31457390049388945 4.40576726438405 0.15317089973044587 -0.1045816779678328 -1.061884374664152
Ni 6.690791643299125 0.2601430772284726 3.9027759612229844 0.1338274622068276 -1.0670288949795688 -0.11691808804599865
Ni 3.5649637371223193 5.199194692735572 8.349278870445556 1.6150988716860246 0.8953835905940193 2.7114658535080784
Ni 2.587584441186816 3.6053830810011247 6.856910294826883 0.46061724510942603 -1.3578574292962098 0.2687414726096146
Ni 4.353616793760364 8.645288983639983 4.56895616660942 0.2210192268329871 -0.35975055409933526 -0.24383982427192843
Ni 0.17724330150622047 2.076856360568617 1.356762236729989 0.2920549505245745 1.3811781063000215 -0.7178774565523185
Ni 4.303717751501857 1.5318203557947465 3.241224573126087 1.4590920451686806 0.18964714027960888 -0.3787291520843671
Ni 4.923406381015875 4.1669152538215615 3.7835454280687633 -0.32858955511549864 0.14527195659834338 -0.7303254525076841
Ni 5.55967515228258 3.567417635423364 6.82813717094566 -0.04313025553057088 0.24693826069159402 0.3968885966022132
Ni 3.909237271388283 5.538140561868849 6.265195172903597 1.7556945058546216 -0.28256192343247466 -0.7467164922711979
Ni 0.0900067503834908 0.44173528367049897 11.451048309819154 1.228056828860588 -0.6755732964674688 -0.14095841682465401
Ni 3.556948913393812 0.4660046177801851 0.49413394324782633 -0.2495258189131122 -0.08710923221468224 0.788923464656551
Ni 7.303193221204338 4.872938183638115 2.1891935854916147 -0.21487917537352028 -0.11677976269592147 0.15509896999109418
Ni 2.7556064967199467 3.26360076668337 4.344124032804155 -0.34471731391529664 -1.5962801963176252 0.20666012989783764
Ni 7.0196046852273275 7.551027619198064 5.388452765505121 2.2898712695187533 -0.052015730945658804 3.4037842306443706
P 3.186643530230834 8.951261177503708 2.658345351168919 -0.4779032858833834 0.26422173036239016 -0.6940358740480305
P 7.893285784517162 4.497071875047675 12.048088297751589 1.0598873988387811 -0.7085191552658702 2.472747409623116
P 1.0566504745122185 2.1971160381433905 5.684801572647562 -0.9491178468926814 0.44154454474869115 -1.2860058945715465
P 6.783433301972407 6.100269881043912 7.201683006123668 -0.5221483717446879 0.9939293467804174 -0.4106586538031121
P 5.5471350788354155 6.405878188847788 1.6873489899396692 -0.33899943759491297 -0.3229102453425342 -2.099927166824016
P 0.554127558023064 6.574404086617635 6.060150976424779 0.8884300420943214 -0.05106930787198947 0.22943804702430162
P 0.40659975198896237 6.555510002740769 1.454651318994554 0.5397737981359348 1.4988852659062186 0.4426750588087086
P 0.33189954214868017 3.639942926275154 8.569986962239179 1.5652513520362785 0.8471314404558508 -0.38650031138935365
