# total energy = -340868.2823447494 ev
CRYSTAL
PRIMVEC
9.24982511521746 0.00000000000000 0.00000000000000

0.00000000000000 9.24982511521746 0.00000000000000

0.00000000000000 0.00000000000000 13.53805404276898

PRIMCOORD
 96 1
Ni 6.449597715386759 8.832602375899798 12.454319548392515 -0.6710381276012766 -1.5405916445060692 0.8586697801127534
Ni 3.1112988802576873 1.1077220404864374 0.6670307789270715 0.9278671650440213 -0.33295580250399437 2.003612356850666
Ni 8.073820733016072 6.936693498913396 8.406901380705477 1.0544040071267065 0.004709746770843502 0.3051974014438034
Ni 5.906457242297118 5.6311824508472 8.768380841053132 -0.20503442136895658 -0.10035606992225943 0.9403573270912322
Ni 0.48698941053934836 8.893521723228062 4.406500998381983 -1.587552072416008 0.5163279084081688 0.3360892059266534
Ni 1.6732933391562557 0.16380607558016608 11.157779905575893 -0.4736303695396424 -0.7408014123383435 0.40074885088856793
Ni 7.2692524564738425 2.8506203126286014 5.439467803332804 -0.23736990027686858 -0.1320534010255403 1.6131450903937636
Ni 3.6669821160222646 4.478191766901223 8.490457824711006 -0.49680732187673793 -0.3610793002130879 0.2288333235607672
Ni 0.9358602923298691 6.20609607274835 9.725264135600991 -0.8052656534600003 0.7601507633992328 -0.25178247615777277
Ni 2.3313628876412342 7.889157227085087 5.5832156334405525 0.7645069834853995 0.4723473890621607 0.1374660874006794
Ni 4.336771192758824 2.2169055533199544 3.4005020581647716 -1.306745698222059 -1.0906681316650635 -0.6942359058739787
Ni 4.634384311539104 6.830098515826405 4.821685867554818 -0.4612973018955862 -0.8590924694724689 -1.0921035785600093
Ni 8.726136890362548 1.9384580719013764 3.728583175451667 1.4969777644708606 0.43698366485088613 0.22069243962118767
Ni 8.975243926939758 7.184662807017878 12.503706213933825 1.8980981397662342 1.9283620808570983 -0.02963607769887799
Ni 6.829432528427735 9.13937282141178 10.09884699193696 2.0262534912889487 -1.7212504652441387 -1.078158429233827
Ni 5.688725612057212 6.269984613895681 1.970071198740704 -0.06478614323744972 1.1023658797179658 0.0171176335168931
Ni 1.922696370132873 5.552771684478889 4.856519783452709 2.0456673770391864 -0.5515430228567211 1.5443732230356886
Ni 6.883516255094659 6.846572454118484 6.298051357837095 0.6394948055773568 -0.13362845882214405 -1.0323477986576157
Ni 0.7524954618262873 6.739394732057659 3.4233537507816076 -1.0085416973769534 1.1260308274350737 -0.8682661655519369
Ni 5.082510582418612 7.503606022205534 10.332798190281956 -0.06978771021709916 0.5539074093238396 -1.1070396310445516
Ni 1.9499833538283455 2.3947149389396376 7.669090941019845 -0.20954773585827782 1.5469600099262584 0.6952892868391574
Ni 3.399930418980914 8.298804226041488 2.1913233123685756 -0.7669510741505179 -0.6266300337995466 0.8098435026386699
Ni 7.813669405410933 7.7749958871632145 1.1504331073385878 0.5293829418199141 0.010111634512705166 0.5094766898142903
Ni 4.640156202327569 6.176561381582369 12.268522938901292 0.3695462000335184 1.7491153099752068 1.7045197827530194
P 5.284212265965551 1.0828030119862333 10.614402636966723 -1.1189574655280599 1.4189699803368143 1.4567541410641236
P 3.0247852672055675 8.660823876168063 9.63121561511893 -1.4356294432703662 -0.940786701319167 0.9588929240015744
P 1.9353963798324947 5.847138114690655 13.012384614089832 0.566358747713315 1.0029415775813566 -4.52305717053032
P 4.009105392613599 9.223527729093611 4.279297405236174 0.021367409932182557 -0.3548765138364856 0.03808857934160537
P 3.5363098385083873 5.564028721481393 6.581876687499927 -1.6154392857445792 1.90525172009188 -0.5218372682621722
P 6.63446471746734 4.494711954318211 4.356884012198632 0.4239527998088569 1.6849701427558659 -0.6703976658038003
P 4.193768898544586 2.3271542172746447 7.77491818863337 -1.1119501809722914 -0.1020555691118694 -0.49251075138391315
P 8.197305896519312 0.17283575472712204 2.6649791001970686 -1.7108835201875179 -0.11307351748892784 0.36612586149805976
Ni 0.5587893269933705 0.7456367166024931 9.016221576590372 -0.7182032153228535 -0.128315788359979 0.6028064490173877
Ni 1.6103760296319833 5.986301731537565 1.3687918757122413 -1.6501075265507261 0.4328842979705319 4.283845589059022
Ni 0.5768496102697807 4.230416705121352 3.4309894813038486 -2.6240190354483195 3.636907696940059 0.6666662237858261
Ni 2.1255635316274835 8.033556244871534 13.595184636770222 -0.4560689636171113 0.5697716300496058 -0.16144599525504455
Ni 4.570366272842031 0.1734601179133744 8.528025988873432 0.7196594881534057 -0.6702341436427425 -0.008217759924101977
Ni 2.271655267385548 7.301441847409518 8.049049701715573 0.9839773777740279 -2.2570835335647708 -0.13215007450440466
Ni 7.612208217313514 2.1287917205460323 9.987970264866025 0.2673538482334686 0.27578706660248636 0.6795734187657974
Ni 7.02140339609412 0.9643775027478831 0.9605610249605095 -0.1777136220668165 -1.2979090737670356 0.7784071385062593
Ni 6.424586188636741 1.443065195366321 3.4910041957489213 0.5639251985711579 0.9491749253828621 0.31703218929520244
Ni 7.617684113702571 6.534418610467262 10.883485595574015 -1.5628334866234053 -0.6382305941529525 -0.669513463426634
Ni 0.24851227283089758 1.5670868487184881 0.9780172946656266 0.5173494076941477 0.1909776861655743 0.26255591262419303
Ni 2.4856407185079403 7.037322344887309 11.175717166180048 0.8813399680167595 -0.011777452250902296 0.5086649925462724
Ni 2.7882117434783122 4.449637557183283 11.401423995519018 0.5183043154082493 -0.30058458526214044 0.2689175931761627
Ni 8.60870111239722 2.7294198558957965 7.831710264054882 0.7719089323764254 -1.25108594276591 -0.47274796693468907
Ni 5.177164041454466 8.386649813890946 6.328295510579158 -1.0454318855350835 1.2887016962361546 0.5945120702190793
Ni 4.485776623386066 4.420186114442136 4.098781520826899 -0.5604320978162347 0.6591313488613616 0.6074832856677667
Ni 3.8666950871981776 2.3372365265044968 12.23707353396414 -0.38384127649995187 -0.3718609642096241 1.0775997285168797
Ni 6.344362456572052 2.021327253910779 12.602926311563053 -1.1392426981396573 0.23729045318918487 -2.643276855236667
Ni 8.341640165530888 4.725929829381167 9.053640818570596 -0.9277146986265571 -0.1801569414009865 1.674559231835187
Ni 8.417137237030023 0.6932013087472748 12.485984474251739 1.1080575307861047 -0.11092253258419606 -0.29705548906295937
Ni 0.8259483220045063 3.6436448075938994 5.817085433325709 0.18528474954585508 -2.0651501683541467 -0.40508064549470235
Ni 7.763489104886208 0.17431110181167386 7.7757710224966665 -0.9549655639227103 0.49843868683257386 0.5653408479717618
Ni 8.45604200090228 4.9357713589118415 6.605000324971218 -1.5772206085830127 1.4175412183100877 -1.0194622009441991
Ni 1.6283206900961245 3.865289113800987 0.12062789256644911 0.24739206039956105 -2.4433887539553405 -1.0783126954235043
P 6.8286000441793995 3.8861012200093983 7.691482917335099 1.4462275305011867 -1.8743825413168493 2.4396976782569983
P 8.863274795538505 1.390017449097326 6.135039842222842 1.243872455736606 -0.6259921431052315 -0.4223551163044339
P 4.715634774176741 8.666938010480846 0.5122654822838392 0.798986762429824 0.13278385143366164 0.9873372953851963
P 6.905077597126573 6.536943812687215 13.188379184048143 -0.591142382415898 -0.758283628283507 -0.6723074812320035
P 4.6454471022169965 2.8696379527905984 1.0066205284559688 -0.6060342119260659 -0.5262878478343581 -0.33268995043711735
P 1.8046778531937098 2.883410942188076 3.9776430379214704 3.211808699341901 -1.7653243156349014 2.522216977108153
P 4.264622557902999 5.533060307443278 10.38983353610048 0.583558399421053 -0.8014017996292198 -2.3892469778056142
P 6.160050443990363 7.703059998281964 8.165463374020442 -1.3964473737542658 1.3058740942503835 0.6057297933117697
Ni 2.4590567215110637 2.3437484032914844 9.998232020700518 0.5586156134327863 -0.013476180109563887 0.30698946034721963
Ni 3.395666249664435 3.465095435975695 5.9845368649310915 -0.6244070580062988 -0.5849298258472829 0.04917671883496692
Ni 5.609639608465249 4.536539662884627 13.44944716930895 1.3309505776030368 -0.663980963644179 -0.5775425322442763
Ni 7.445776116421095 7.238691034734914 3.8561382619467737 -0.29607307054503207 0.40779932997744606 -0.32229755145919975
Ni 5.986551476812066 3.9421644092223675 2.359818124231872 0.20853523543336344 -0.770030741517106 -0.20611274203479985
Ni 1.220902898960268 5.201056339381721 7.6333644170112365 1.5261222472453009 -0.017838313733001536 -0.86248606853505
Ni 7.125473176961157 0.21402245042231863 5.459247629073277 0.46638808615493227 -0.38434135606482195 -0.8278520234009485
Ni 4.064049353003805 8.877251281085577 12.10211303758883 -0.983569343702332 0.6592439631798259 -0.9868318165036878
Ni 0.5071632788240349 4.685295348237368 11.457051517975357 -1.3205718054718742 -0.3994959523180733 -0.9569818230217906
Ni 4.901463758055398 3.301808275576992 10.500967408305902 0.8700602813378823 0.592701756483218 -1.3260392563443484
Ni 2.3669839636450525 0.15862894853801154 7.595376310794649 0.5636171804124358 0.7605060898561226 -0.13355852481615707
Ni 3.7494998046823693 5.333153089942752 0.879674080444646 -0.02173816300803998 -0.3229647527295535 -0.7627136390304027
Ni 1.8193203261394497 1.0871134304276195 2.995687167778714 1.0464914371478493 -1.5314565149740205 -0.9941522614245006
Ni 8.857956146174134 5.141209971751313 -0.0637192693501697 -1.7938995561694329 -0.07684461706388056 1.3130086484126355
Ni 5.780465376223888 8.75982475294523 2.5302896236937187 -0.5859644377593843 -0.9946281726196547 0.011472262305657661
Ni 0.30123812519053544 2.190136559823447 11.0796105596396 1.1674952652274473 1.0309578602886247 0.7304689200640839
Ni 7.327156360858132 3.180903813243596 0.6150680371284086 2.5149168439023137 1.1446795528845124 1.0749183250299745
Ni 4.990114080678248 1.4462286355099991 5.676858086605926 -0.23190142096312963 0.5609779430173758 0.4592368198221317
Ni 7.933621135771234 5.410786871012617 2.3425302013414186 0.09144128393113285 -0.29198527362890364 -0.009127159112248798
Ni 5.510000493764358 4.7258650806062965 6.53117654681124 -1.1340961209417115 0.8672832328133773 -3.4825972842885315
Ni 2.713713653077182 3.591337047323426 2.1415444542480486 0.6054127762919832 -0.2666735343369923 0.6137174395029366
Ni 6.156239516097978 1.7084704235609611 8.436387047799055 -0.22399116497711746 2.229299164362651 -1.529458253597069
Ni 1.9335279151862284 1.3684931063653383 5.617981100633581 -0.21237003579842137 -0.8642346757950405 -1.37692447322999
Ni 0.2617691219944064 8.259473970220082 7.113015512676052 1.44847338911257 -0.2704281162834181 -1.5850367621933217
P 1.8164898796951057 1.67148962328486 12.721519242633569 -1.6306478751642175 0.6042555227590883 -1.135259030901561
P 9.028717165157902 6.927915415005937 5.392490717199179 0.3632865922770518 -0.7659439730422422 0.6103284684260456
P 1.0030972701205092 3.7937047182690344 9.198850121025425 0.6499476254795645 -0.9982647409309774 1.2734717666602777
P 3.500180022130585 5.935806936963468 2.924625387358217 -0.6548975132856721 0.717566610180119 0.17827952187261553
P 7.688019782862019 3.626301385753557 11.505044234891953 0.2971912433098753 0.3871312601051332 0.8804465096682126
P 0.8291404366056274 8.477834588558732 1.9121016205990446 1.5495691654143313 -0.728767363991945 -0.3272556667954235
P 9.008987288472328 8.065162896833373 10.060561041355966 0.5895305578440879 0.8502843842625355 0.6603713919160498
P 9.261109767993512 3.7396487410770547 1.604083373697058 -1.2181681089919665 -0.9013567774583185 -2.282662924695772
