# total energy = -340888.7169931959 ev
CRYSTAL
PRIMVEC
9.11606995450512 0.00000000000000 0.00000000000000
0.00000000000000 9.11606995450512 0.00000000000000
0.00000000000000 0.00000000000000 13.34228984489432
PRIMCOORD
 96 1
Ni 6.466539057559347 2.0803510207969564 11.429432482207154 0.1699990270313782 0.6466990366352798 0.5171753440101288
Ni 4.913096891451616 0.582420252262661 5.959253455475728 0.2942339604537642 -0.45349811756614156 0.9546467471307106
Ni 3.070155685579772 1.726018490123678 4.834912004200273 -0.5472837333597349 0.19076299905160693 0.9934099839418375
Ni 3.4091002898392895 5.121298817615062 5.549258200464518 -0.07780235299145956 -0.3337163348191027 -1.3256808445636652
Ni 3.7963509498254187 2.798004527311742 2.6927275911806254 1.6583954775911312 1.1073401930041058 -0.6392304961723766
Ni 4.78600975748583 5.117488300292224 2.236434550696922 2.1228992022391564 -1.3671779353661875 -0.10389159387934366
Ni 5.603930919584123 2.948574657984786 0.520645202888932 0.04048536170855608 0.1732285897122694 0.5122025733858856
Ni 5.7129682346522515 8.154151544139673 12.566663145068164 -0.05195685268326536 1.6480470444772712 -0.7150428153170009
Ni 2.699186326882136 5.426997114036317 11.672395807067849 -1.200941203590719 0.10997559528989446 -1.006781520152737
Ni 0.8159867320123932 9.262018433439447 0.2899603129137199 1.020085693460811 -1.0686535750671853 0.8521363498696097
Ni 8.102326685335033 0.4306048664070817 6.737630016868893 0.23362046053676538 0.5994722424378321 1.666631235237362
Ni 8.771099823703734 2.9636708701537366 1.5481457293503877 0.549161409998422 -1.524715339595445 0.06407163366892836
Ni 0.6112343267938324 0.3213004504835484 4.864412518813765 0.947159180504414 0.35889643362915613 -0.06155015279865528
Ni 1.9723894020065673 6.833278559707228 0.35938556835760804 0.3624268153799177 0.2116611826568548 0.7384434536291283
Ni 7.707363830001722 4.316067225166032 3.783500025734495 1.7718207219925228 -0.678570945643212 0.6472520809252724
Ni 7.491267387088087 4.06662419764248 12.690492195562221 1.5170976751491871 -0.2249051921509546 0.25367120854005343
Ni 8.193104511892045 7.7671925983983545 9.033731069913772 -0.6657133729542535 -0.7329366648782861 0.9802945296058019
Ni 7.254413652442145 0.9415533054771048 0.48204776187242365 -0.3755633527618758 -0.23302550726524385 -0.1752574472168401
Ni 1.734049747926121 6.858101618726584 9.172077462122235 0.6300251755240247 1.350150033349623 0.7957464011156553
Ni 0.28414152533676257 5.1952210304641095 1.371080652392417 -0.1850016710877975 0.6609277786401521 -0.3269378784446886
Ni 6.685124187624023 2.508970407125296 6.826556369578373 -0.37171158311595337 -0.5298164298129069 0.35331405444537217
Ni 3.6883984471051803 4.34561240852326 0.2943825185436463 -0.69789381434154 1.1115799421170662 0.26084818590446696
Ni 5.777008627458338 5.750489979391021 4.68381131824448 1.8152530821445447 0.5788692214754998 1.0312378534228885
Ni 5.655719314108162 3.214317218937132 9.153504380797948 -0.249743334240557 0.8725179988497554 1.214529998018747
P 0.2995522419258999 5.805961266255795 12.456201899842554 0.6479115688861422 -0.15233529120302797 0.7671081685536724
P 4.005801777599461 6.748836401904697 12.812974802495077 0.4174070282705392 -1.6355067459184154 -0.2927059538450121
P 2.782808038371137 9.06203008648145 1.5846902313690414 -0.7923085790787 -0.27616733276004046 -0.5126149783329558
P 6.605741448754926 8.265759590990196 5.838199336735431 -2.208663747500487 0.7494156363699158 0.49862174937765735
P 4.743446825953926 1.454058769328805 12.594107985862756 0.19891699561730905 -1.441095351480944 -0.12274317936820797
P 3.957422793311646 6.433383910422587 7.958715762614752 0.5977182358612029 0.3214087210963432 0.3531603024763273
P 5.185020147965888 1.4174577476752193 4.038350706071224 -1.340212205410621 0.5453883161092349 -1.9312810542761059
P 0.2643022218685937 5.985866910672608 3.475719618890905 0.12463885372902404 -0.20346656266120441 1.0166257599366686
Ni 1.110410272871716 7.834824722843672 2.7919943022616276 0.11671368534467641 0.5362691274167861 -0.9596305734985473
Ni 1.564563771691137 7.031863031862074 5.082491706985097 0.8980698791769307 0.1263154701004986 0.006184017323524834
Ni 5.904961788088407 5.808194703442625 9.260123202455192 0.004946031151365675 1.7605536337191356 -0.06817691408655355
Ni 8.8551135262092 2.5173480755934516 10.531430290266249 -0.8346507914903366 1.3758500092188886 0.2701429809428315
Ni 2.1053472851491684 5.4371615322539375 7.396832193186761 -0.8919611951760315 -0.39088815604440424 -1.426489171531995
Ni 0.5914141670729792 0.5085882885081021 9.47480027324642 0.28363304500946634 -0.5416882415498284 -0.6334007768644769
Ni 1.6134259076969197 1.474679320008857 11.5349172647377 1.1817211790188422 -0.7098178194726357 0.17969080039784538
Ni 4.374565047320717 7.476408192743044 1.6609014894328369 -0.6286925727555301 -0.3746511253602516 -0.7975839685450264
Ni 5.718529037443955 8.137788198219827 7.901144133187342 0.14396146531703594 0.5161528162828852 0.9774210647127489
Ni 7.144300641096277 1.0156851879396098 4.706079142800697 0.2665321236631216 0.23104344383820855 -0.0008248098941405149
Ni 0.569073413955559 8.02000857187753 7.273896517567435 1.9125729363436414 1.1853086392597842 -1.4259746937894213
Ni 5.272917296355395 4.755543851043417 7.149973571550829 -0.40343436814053096 0.015514036475199089 -0.5334514554623329
Ni 1.1399919205095452 7.552563842778923 11.512995850847195 -0.046398384758881375 0.9045511160259003 -0.7912785951522888
Ni 4.72767602459385 0.4897453715073645 10.472443846751506 0.9392748926603307 0.09419904918192809 0.0974185845604903
Ni 8.152063964075248 7.706151392671727 4.6683869275501175 1.9639903715836693 -1.5384928529955115 -0.8070733960927003
Ni 7.197939597860834 6.535766494280973 6.7555221277529505 0.9984604018815515 -1.7893237638732924 1.0758161542538958
Ni 2.426570249036439 5.45009723579726 2.4754351198632674 0.2949955212101371 1.8083730671952596 0.3868769780024821
Ni 3.4473969005408365 4.7239749001128155 9.243471788718594 0.2387860638981049 -0.6130571802111184 0.9701862375272065
Ni 1.5039874855421764 3.9054429613144492 3.9551620079143635 -0.9067792340254706 -0.8684260881685689 0.4064145338147775
Ni 1.9625349301740578 1.5504976754491737 2.8351698337076328 -2.8423807700538015 -0.7478002122536799 -0.9059585378963881
Ni 1.0048461805308642 3.6059982890163234 8.51406219813794 -0.5736658228976894 0.569789884882051 -1.2859051073276242
Ni 4.977702480607023 3.601567878923262 4.593443714844232 0.5648137718236982 -1.220848226927291 0.27416984271403744
Ni 4.188998323340545 7.388000544425118 5.963135989752754 -0.027716492078661944 -0.4006627189326648 -0.3395190575438088
Ni 8.369391076459177 7.374189698147365 0.5739650971982275 1.5272162516404277 0.04764125602704698 -0.32293441371225035
P 9.195835764148033 6.145790129319893 7.929576244379214 -0.8729597143728643 -2.242309717689706 0.3965304419318461
P 8.57966235054675 2.104317169222181 8.251298768910724 -0.16391322584861448 -0.2886711216540061 -0.7053605550322303
P 1.9513403960294493 3.2665705330388386 10.300448216404137 0.6459793848604358 0.968301618909984 2.0313172789651017
P 4.129342760276769 6.420147376564304 3.714493197910507 -2.291940493342956 1.332680672920266 0.4870818670588579
P 6.930082108633611 4.391220107485374 10.663238636962895 0.7450866699772587 -0.7414228479724263 -1.239391794257433
P 6.340217673486188 8.042388524096596 10.22493069127878 0.17837825223400894 -0.6871933972049004 0.6329300078756454
P 2.4677201896950405 8.88962696779836 6.043337351721351 -0.2685692086978084 0.5389998960843879 -1.1521388373760353
P 7.0333762995070295 4.3641818434194874 1.558045781533649 -0.67148884198545 0.34821298577338095 0.07855028690107763
Ni 2.8833400599890058 1.9320325594510448 0.359549657620314 -0.023717141111281734 -0.9598979682273211 0.27438838648274677
Ni 1.7382978366161759 1.6077557120634127 7.267358472055617 -0.919992647391951 -0.9638207003204949 -0.6871167783306941
Ni 7.258789366114304 0.8713723278177541 9.514746892645178 -1.6112974956620638 0.21862578690014609 -0.8409384242712614
Ni 3.30004474263086 1.8814839504674503 9.14219042613437 -0.8901773638027315 0.7188220798537749 0.6158609682085007
Ni 6.703101077960479 2.4833633660730112 2.8199459965565774 -0.7618392068452493 -0.865740828026922 -1.0632447453467881
Ni 3.9803770579501836 7.302099815398535 10.08964000578471 0.5337563882972614 -0.4998363385110488 0.4632451696505764
Ni 7.589903266114686 6.724104503586845 11.682428953875306 -0.29177650005220723 -0.8797327714306398 -1.5728936990728848
Ni 7.524996846644317 4.4453969123888015 8.208830644508383 1.9291064152222903 -0.2395759067892519 0.05586852903284572
Ni 3.244236161170524 8.713003108635665 12.387902479062232 -0.4125602417011992 1.0332597689489238 0.1575302051404061
Ni 9.36949690051187 5.403277099505152 10.216992417391872 -0.8513935581663143 -1.0175989224832152 0.1987017942827094
Ni 8.896664573954416 2.692349274269387 5.782214815121193 0.3411177694894964 0.34882542254639926 -0.0060477488559766805
Ni 3.8461976214074376 3.1781446525806123 11.595704132107132 -0.28755500577169185 -0.6484928953109089 -1.3300576334751224
Ni 1.1603298730149374 3.660284486761554 12.657230390404704 -0.34587251056566237 0.4216750595182738 0.20807243686433194
Ni 3.335032219867837 8.684396880503922 8.015047606501719 -0.261000395211615 -0.028554157488608886 0.08459135088883496
Ni 5.938126051295317 8.014402188735074 3.7346141879463213 -1.1404050938788746 1.1791341350179565 -0.3670152060815486
Ni 3.3784976423446227 8.570719485729274 3.731678813357914 0.07913007066394759 0.05479715034553789 0.3000657366441929
Ni 3.9429373578427676 2.6122463658584136 6.8968567677566925 0.06896367165390704 1.8875172789265944 -0.4624535269872164
Ni 5.117725318116133 5.223216481895782 11.436437270510671 -0.4880213481539918 0.25638783614026817 0.5068269108962691
Ni 8.099874462464593 9.069651121127128 2.5972504304611173 0.048373763317697334 0.4461468194073929 -0.17017514759792626
Ni 5.006199315896963 0.7598435907775397 1.7137236463119243 -0.012832118767661771 -0.19615331682924284 0.14745019519658475
Ni 6.186775980715789 6.013734737122175 0.13744572447761003 -0.7147389109233369 -0.8043629391400727 1.6241344995257319
Ni 8.250161994962976 9.027133769945976 11.62663131169915 -0.018686263555593625 1.007387272057536 0.029631706823503808
Ni 0.09907436200082997 5.236726497858575 5.759319804938633 -0.44817876223575714 -0.31299761421451255 0.25306802773841575
Ni 7.242754198719869 6.287043636299297 2.7291654351785204 0.326229025303122 0.4882913139859268 -1.3935466551677032
P 8.87321804152776 1.9902933637818205 3.6689693667937764 -0.07235624227522378 0.03819913677754066 -0.7843497292429396
P 2.017331627847707 3.581986560240347 1.5947370522817228 -0.5310495308890596 -0.5478331781053017 -0.439752485845275
P 5.218175295102648 1.464943357088302 8.164774500685857 0.30208868061149263 -2.4319470877773024 0.04695142904887398
P 8.970395349330307 1.8198046198303 12.890519741621867 -0.9225249268955014 0.9040050137144432 -1.414090797867642
P 6.511864158346801 7.861753594067755 1.3040538350050817 -0.49889454342306977 2.070115482779222 1.272989941927853
P 1.9453146736600795 3.4672699334685615 6.0791343359876775 0.17155608710585293 0.42025195391850206 0.4488847871638463
P 7.0488462705521435 4.3752214043715405 5.848485910293066 0.1825166998824147 0.20330046939698534 0.42773592100037305
P 2.568398068435314 9.071364942315391 10.044476259438916 -0.31300866995810606 -0.8854552757367138 1.2826362067683652
