# total energy = -381166.07983873977 ev
CRYSTAL
PRIMVEC
9.29992597651384 0.00000000000000 0.00000000000000
0.00000000000000 9.29992597651384 0.00000000000000
0.00000000000000 0.00000000000000 13.61138171756105
PRIMCOORD
 96 1
Ni 2.6354594989246394 2.7816822337256775 6.185189132343278 0.5550379233838569 0.034762600292165935 -0.6775900697871814
Ni 3.9729376410187727 4.3825993765645155 7.404101589246804 0.09251600505255034 0.31393221021364 -0.5093689605918323
Ni 8.048276766035142 7.776579431098279 6.90656485394688 -0.7109313642517886 -1.4227451311085304 -0.17514277601584674
Ni 4.02137165506468 0.7399337237212297 10.040953287077487 -0.02595297242033595 -2.0490764027207358 -0.9809666159721621
Ni 8.440594139792173 3.863161315788763 0.3796899343807754 -0.3782229018719099 -0.5667153597217853 -0.2177400418610831
Ni 1.4026706225975534 2.0556835189611276 7.992807358051883 0.24201408391709933 1.559777730516217 0.07288254709233899
Ni 4.949959955462113 5.230854917106236 9.33524329063908 1.4481005791541834 -1.0377201187131226 -4.407832925246977
Ni 8.58609148037363 3.7080571517607965 7.684428325418922 0.5007845613569311 -0.5528152047009254 0.3793433886295983
Ni 8.293729710104582 4.086350237272583 5.219447628007021 -0.39974843464851156 1.53545458038982 -0.3833345120668624
Ni 1.6626779506880842 4.788662040790027 7.4453579204892115 0.4076316940513302 -1.61736452779175 -0.4492822797125811
Ni 3.114563781106479 2.302605851321514 1.7657908790164254 0.6023958438425303 1.3188627932005672 1.0110310394577104
Ni 6.3373414998931015 4.469637382988411 3.7414420257281544 -0.426644230598091 1.1618084992553153 0.9521730887792376
Ni 5.070375395912652 1.4536156166343204 0.5803349055096256 -0.7101363791543189 0.9485074670021921 -0.7991040047339786
Ni 2.8716590167314675 5.888573575971198 5.477355962823711 -0.12972732399552497 -1.416010383487858 1.1891336694328296
Ni 2.877545869821149 9.504245263920158 8.153897884376576 0.31895871689395394 -0.5308312442306664 -0.5303087960682932
Ni 6.39175536628761 3.160198517458874 1.8527265862555082 -0.3787335229597413 -0.19324848447762202 -0.7885203156808614
Ni 4.067471387711678 7.501227225285831 8.752635483241432 0.7011897114839925 -0.15805650995752135 1.423982088839425
Ni 2.7659746588939687 5.653889946084777 9.290135860084767 -1.0535365169200888 -1.343749529139918 0.41981383793981897
Ni 5.61057089127951 8.840807150631573 7.8749875269178204 -0.6524421097666441 0.7133579714154101 -0.5060949178262509
Ni 4.446062070852011 6.46215580529059 -0.19264982483943643 -0.1732843826508693 -1.096471882831034 0.5265272175386739
Ni 0.041724117514778114 3.566967976052182 11.825704855002668 -0.5133575129259352 -0.8971088008152421 0.5278374517096651
Ni 4.50204762472228 7.955072908744804 2.1226541452951118 0.6887895380474267 -1.5325664602087476 -1.2817437768610829
Ni -0.4687441647380723 7.745275880545567 3.827697908384527 -0.10312180559285467 0.15636395274644685 -0.20336680385854652
Ni 1.1164933030467339 8.716290442862629 12.49847451393136 0.9023723632070265 -1.2893143901194892 -0.17745856863321693
P 6.617743565464944 2.7572048287777458 8.917237661582972 -2.2671455457864633 1.6502751624768417 -3.095516674915675
Ni 2.115333243632873 7.276094619290567 7.6480990949141345 -0.5948468278506788 0.11894000357203385 -1.501935879807084
P 4.63759404459922 4.274534237698647 5.356881932840052 0.46844574001490935 0.2335101602111462 -0.2806104561330587
Ni 0.5439433655013612 9.29830770496613 7.638993537473207 0.6243080705345893 -1.5276448545374142 1.750146579453199
P 4.5660032150820555 8.874872779174229 3.953956492273055 -0.2700571060972446 1.2560700262440625 1.7692617030160949
P 4.717824505270119 5.3399337478943405 1.9065052677115892 0.6874733903391643 0.783794885180734 0.08437357845107404
P 7.458810263292093 8.191318926181092 2.0334725059530934 0.6155161832745722 0.1475694943832684 -0.242177348967841
Ni 8.601436358095548 0.4721479376145704 0.1481561893939995 0.28454681507298735 -0.6337892705521472 0.3636956547900123
Ni 0.8606021221560338 0.3986580632302441 3.802910815904389 -1.0166843810887458 -0.04083554595912322 0.5969703019515848
Ni 7.581513485512082 0.5569846515798129 7.765483689516449 0.07577375259720498 2.0087201103908763 0.32113129906524046
Ni 3.992867382205482 8.121560182064666 6.076624587457005 -0.37554484081911454 0.10856740208845818 0.26439039472977044
Ni 6.727464091139601 5.534367298519877 0.6633358141037732 -0.744097566591112 0.5522991842964553 -0.4143957522480411
Ni 6.152496172862291 0.540476353128797 9.98969209556039 2.1603069534636536 0.15999563596176317 -0.1489596898625757
Ni 5.475312769105224 2.998528605751105 10.870635015627562 -0.45799317722301763 -0.3556383317031746 -1.2280989949524335
Ni 0.6556326854873704 5.7164970471902015 11.065495432851545 -1.5589770889917924 0.8927849766289077 -0.09444381820288252
Ni 1.5554126054489334 4.315388812142516 0.8789322760893065 0.30620141722828553 -2.8714352642175967 0.9734849628831364
Ni 7.644418184246053 5.975713881579907 2.727884022425223 -0.7205786575335654 1.478605689721576 0.8461906738091363
Ni 7.289012216354654 1.7807963094432824 12.218270536781016 -1.2654177860075495 1.661305195038758 1.2266110975529971
Ni 5.225460960088834 8.194620399872777 11.40269028586109 -0.7843656700825395 -0.202747939327625 0.3769646039847766
Ni 9.36130540295902 5.955644641504817 8.218770447429309 -1.920010366458293 1.85111817147227 1.7450277701693948
Ni 7.999647453545502 9.063410176784192 11.539415936341143 0.2153715416289065 -0.7190398522915358 -1.48645938143804
Ni 5.229506427851885 0.8768760624745695 5.960288094502728 -1.2815463161382963 0.19869510941449003 -0.575780555247847
Ni 2.5245113830322286 4.5082413753664 11.490715014422133 1.67510893369107 -0.8048385932249107 0.9330062860427996
Ni 0.7559305262481816 6.6630714042629 5.809650684880723 -1.3862658052355739 0.35405581770740313 -0.11955861099263924
Ni 4.528757011884309 1.9924719226727183 7.998142725536165 0.5762814061436656 0.6119971143777202 0.4612006284167219
Ni 0.09391437162849332 5.94115535696497 1.432216487156664 -0.38377442781775845 -0.699995176955259 -0.22103336790037414
Ni 1.7266242411219668 6.123331605264755 13.288600867684687 0.12781133791973473 1.9895000858189993 -1.5671529399343656
Ni 2.606350730882456 9.34028757044294 2.4336194873186585 1.3252440141365627 1.2453564964813004 -1.5244926820616775
Ni 7.231854871821984 6.347283120671725 5.053075673768221 -0.2465587658649883 0.08757665876940401 0.7387663841861858
Ni 2.553006355965535 6.22585398829895 1.920511886097638 1.4910248893215354 -0.4457475270864452 -0.48987485642296275
Ni 1.8729306752560333 1.5388308375833701 13.672497158546445 -0.683323629836849 -0.5511133915184702 -1.5814382462087861
Ni 8.60912739680829 3.8204281563146947 2.6887238944788887 0.6672411224526896 0.1071520097981703 0.8125153930438782
P 1.1379017324502823 4.348236150393312 5.460858824283766 -0.15430861287931488 -0.22821394480921342 -0.6859165873750057
Ni 4.712291049364337 6.5571266485004225 4.470318137563711 2.215917857959739 -0.36034602159148904 -1.460686129128678
P 0.7354492994560728 2.292478232025048 1.6956378180421743 1.9516953562664001 0.980949903801614 -0.012358778675669037
Ni 2.082523105085645 0.10146405146767684 5.907843022419569 -0.29150730555122056 0.5277531195259749 -0.8926813611715076
P 3.491554876993376 3.5523298926980615 9.51119788851707 -0.636658364569826 -0.6915899836106992 0.2892866437508179
P 3.424995307383821 3.842208582753926 13.536070035687526 -1.44193507377342 -0.32348025891339127 -0.019452195187340694
P 8.727264355415272 7.515214313827506 10.128787367157745 0.621742109579626 -0.7139423831639704 -0.08560693663754289
Ni 8.03339688460783 1.9772293441356135 9.936635088353533 3.9456455074369527 -0.9710832954201792 1.4568060773479814
Ni 8.005125109895932 4.524479045973957 9.906676307084815 -1.2307652289306867 0.56414554211208 0.4822739041472532
Ni 5.201904247804218 5.729693642031051 11.183819319968956 1.0499516277823078 0.9383053296582099 5.13822085556148
Ni 2.586095492289525 1.9246847628454105 10.927884429426564 -0.9980629093328167 3.1236270599986464 2.1822168661628676
Ni 1.0104741478771204 3.59815992749419 9.750431972142481 0.6166125016625446 0.12615966124892466 -0.9699270703285489
Ni 6.8383099078472 2.4845589013998897 6.316797033604926 -0.3748773824384447 0.3622270406642858 0.9997842628992973
Ni 5.446269100544284 3.750622912568807 13.062407140145138 0.11998412856583206 -0.29552465424072977 0.8082175369994727
Ni 7.327774307472807 6.8633267084968725 11.788749739485343 -1.9356439592304922 -2.092234169055132 -2.248162834036373
Ni 3.625762107541857 8.609601693028786 -0.09193441740607133 -0.5464694649885556 1.4625126408144553 -0.1751569170832338
Ni 6.144526136372786 0.7159343349641504 2.478619038732624 -0.7833693676075412 -0.8437316707456823 0.635876234988163
Ni 6.748044827138756 9.138627977399265 4.60556044986398 0.992649451626729 -1.642921807435564 0.4809798679261781
Ni 8.253405231436561 1.525290145484514 2.0902587834426702 -1.0462878057774754 -0.7636040120551558 0.6689825306238285
Ni 6.357141042117321 4.582566383095834 7.444472567544286 1.0459779878465405 -1.0459430208435472 0.09326908116849097
Ni 5.259600988038628 2.560464896530976 3.9748497057821828 -0.1518385540722675 -1.4464933825680635 0.47710907211686227
Ni 1.3144050259559041 2.672287205457242 3.7995628425832435 -0.8660966687044439 1.9629850702476066 -0.634834681097526
Ni 1.6955531887165565 7.461051545432082 9.964225178497543 -0.3667570673241555 2.508497056418899 0.2589023750320057
Ni 1.0885749255187358 5.546420002476 3.6468431795540046 -0.5743638774059786 -0.3430880058419898 -0.07167412860653462
Ni 1.051077624321904 0.741744419292416 9.837230970470952 -1.187145692468523 -1.091072566192334 0.9791961543353008
Ni 6.767872269140652 7.233631157667369 9.294626794298049 -0.3039383322257217 -0.24277975843853028 -0.29587175316750336
Ni 8.560953780687361 7.338952818395077 -0.2542711338003012 1.463000121973835 0.6873471491739452 2.748336758392499
Ni 5.544457718112774 6.6213333368592835 7.011345258987669 0.1832497213936973 0.24360996764930945 -0.1060585196236754
Ni 3.180844352939272 1.6110819618388723 4.203235425854492 1.3081376934735793 -1.9221024731006313 0.24736763491952887
Ni 1.0120179355752044 7.9805082060596195 1.5050107270842636 -0.5675620239927968 1.3171797490711896 -0.16040444136440765
Ni 2.5897875628686773 7.5325028760608665 3.7868498438887817 -0.8234191844405754 0.5532916301167116 1.4508997391658753
Ni 0.23980974903813024 2.272260193135685 5.9110552168226915 -0.21170643407249345 -1.4035302487429764 0.3423822380242168
P 8.944464124624599 0.1291573707890869 5.830557848278689 -0.9302973717520688 -0.16964267213322398 -2.7034694655661635
Ni 7.605237596462756 1.9793218274613296 4.260934026074081 0.4544944200411399 0.25180458764495983 -0.3915381309235773
P 2.8264613768960007 7.365866803926732 11.839710543396128 0.8108326060248165 -0.3074054648387158 0.24897174618185508
Ni 3.5039051785780466 4.179935391524497 3.377610324978539 -0.2958424425914647 0.39281134120904604 0.10772202336902738
P 7.175571720323167 4.670487882479476 12.217957129278453 1.1518444460640678 -0.14837270701085412 -0.8827815855592926
P 4.799868451489973 1.0604240498434356 12.11108052094159 0.539004266959762 -0.455716465373699 -0.37469971920999984
P 0.25672910421357564 1.2878909372376088 11.940013034119886 0.5128121819454265 1.730534975869858 -0.7554186480308861
Ni 6.236623302481968 8.758158709228734 13.852983610311641 0.587882994938336 -0.915019876767708 -0.27677976953305883
