# total energy = -381159.6176820206 ev
CRYSTAL
PRIMVEC
9.35441735364407 0.00000000000000 0.00000000000000
0.00000000000000 9.35441735364407 0.00000000000000
0.00000000000000 0.00000000000000 13.69113535606371
PRIMCOORD
 96 1
Ni 1.161921537923049 2.113780279027781 13.318393848088025 -0.06361320597527109 -1.2134668468615553 -0.8666252875144043
Ni 5.5618372363142665 0.012680848208359043 9.305098091140538 0.18785662403808936 0.33711276209516133 0.20029587824270667
Ni 8.736399092488483 3.6224700694470453 0.4185643413749235 0.044376469232846154 -0.4523814874631951 1.084114646817262
Ni 3.829155921589044 2.2322352663857408 1.3374347295681932 -0.08038451189633898 -0.22667488245686768 -0.11683427008294073
Ni 5.255367813916614 5.339333064372671 8.431247707500507 1.282951938236571 0.37161850918151484 3.5267297558313717
Ni 8.663079169017607 2.838438930663182 4.354479422264307 -0.5967805545382819 -1.0192104899447092 -1.2814388440261546
Ni 7.543383471174621 4.218701924791092 2.7170606878721206 -1.5821828376842946 -0.6710473835726573 -0.1978800697123624
Ni 8.158305452455744 7.3992318992575274 3.6365157271520108 1.9952344171996155 0.8003558748632087 -1.0507062465601453
Ni 2.9673053845716764 8.825247348819993 10.249005577467234 -0.002833098573420927 1.4329205289796356 0.6867933335530043
Ni 0.4539090720259 8.133029816678976 9.499402436430527 3.569920175175916 0.10423175082758178 -0.01980417921012073
Ni 1.9157940350546923 6.595322623528575 2.683900213680758 -0.5297372398355393 -0.03491892336437212 0.23596659217143878
Ni 5.19870810781007 2.1617684402175725 12.636917993431267 -1.15725893221142 -1.8081064437974343 3.8872768376900733
Ni 7.802229554660533 7.589042382435317 9.35624804540677 -3.1908989457724273 -1.434817231781716 3.5570867708566745
Ni 4.046945467168134 5.84028082422369 4.675659601443065 -0.6540019980545962 1.5223609804306557 -1.8348122352233946
Ni 3.185824574706869 2.7783274445412327 12.13968300184072 -0.6691231699667508 -0.17074053318309304 0.5984409729598403
Ni 6.2766737496944485 2.0248010608528686 10.804551329832941 1.8649098259397237 -2.7404154466628934 -1.5208993082834648
Ni 8.88704263007141 0.46475738986835646 6.763872386871637 2.4073827681743767 0.42701755477710973 -0.5175139582964701
Ni 6.39090054039397 8.728793951153726 1.7381171666681836 2.54976840436386 -0.5011218900916918 0.9936807211047208
Ni 8.14688370882753 7.712352312416573 7.300496959190834 -0.14240851900761925 -1.1009013793572975 -0.12354356378231626
Ni 0.9691363500165341 8.719364698428715 3.4428409341520947 -1.883205281814802 0.17229836458851616 0.1814589480418617
Ni 5.078213857461979 4.373994607814821 2.357778095797016 1.1119995461529881 -0.13330887069919622 0.6148667226160314
Ni 4.548435783227538 8.70181581141272 0.5438171838472347 -1.8560230649730551 -1.0762097901478886 -2.3949142033937205
Ni 5.773798979861926 3.777444702279654 7.004138726545626 0.20396432823322935 0.46844316891174803 -4.411033434462145
Ni 5.608244500965838 8.865415217075151 4.277548693682465 -3.2344158952184556 0.10037303920312392 -3.7845481537705794
P 6.17368161427542 4.201761074905183 4.687912952776887 -0.07716086275271873 -0.020653414584293463 -0.635400323793009
Ni 4.4616735619730905 0.8632714730182898 5.800783667695103 1.5043156928931705 -0.07619875594976554 0.436509553427945
P 2.242113531145277 7.067365233657089 10.841462925396058 -1.7220143399933567 -1.5441909318215534 0.8911906355585942
Ni 3.9887329277755272 3.8051057144898324 5.240898401104065 0.6428580656226348 -3.3116767738841486 0.20318245576188232
P 7.642512232213262 5.181851447680634 13.235001087975986 -1.4484888157315376 1.3723625648909203 -1.6812207030157627
P -0.03878434992378093 8.160644056802225 1.3704829507509253 0.425956460502447 1.3317175376760484 2.0708320492302725
P 7.652165990955535 5.638028965922621 8.04558191663014 -0.36080779171925603 -0.5152022794441579 0.4686092621759671
Ni 3.174178325061393 5.133339439117231 11.242873136168676 -0.4690142109238697 0.4972762910933564 0.2865463620015194
Ni 0.11477121779138298 7.284228691914973 5.589748011468649 1.8922697060099152 0.5854306767431015 -1.0012955573375013
Ni 3.0979678866182674 9.02580605757421 3.978027732519075 1.1266036692194081 0.35324232066717226 -0.21930558657599006
Ni 7.378624117756336 5.25432011916939 10.692379704633106 0.1391840985330506 0.854235912711116 -1.5018104099728136
Ni 8.952860310798771 6.907919189314008 11.680194955285854 -0.0827113602573027 0.2097557381040258 0.05551140280374311
Ni 6.099024009118358 2.670817125524804 8.672731992318143 0.5535227722909112 -1.6023765390233502 1.5857196471929593
Ni 5.437975395707243 6.296467696883063 6.484450326903645 1.6337074879261475 0.8281816388262253 -0.8316341161512
Ni 1.3324057947815202 2.7173179343502336 1.785748924555572 0.47325601691935915 1.2488398270442105 1.4394580729878372
Ni 9.357597887835562 9.044234259824481 13.151061094446872 0.6546882254883435 0.6448547843376894 0.8840357696813678
Ni 2.5419226083641524 1.8394619891855495 6.0802609187256715 -1.5535458906738921 -1.148535179185177 0.12137149583166194
Ni 2.9407669024478085 2.148560002868648 3.63673555596058 -0.9677629727976946 -1.6231279126380886 -0.06367182712734841
Ni 4.243481776446405 6.710625172227478 12.453443257148962 0.5326996648979729 1.3040583811978832 0.5563579277468611
Ni 8.392324912199413 0.6236103641491694 9.337642109226168 -0.9585831060706396 0.5125620136078334 0.23702305846041116
Ni 8.6315828456792 3.100353263051678 8.923279772141 0.02442702269411277 0.5437628646906699 0.9162583771604994
Ni 6.27462513228693 6.457606890772997 3.3988789142052047 -1.2361632600178065 -1.6250840079231947 0.03106201151212715
Ni 9.027237283434257 2.062200021561794 11.339724096573843 0.7896207478338917 -0.6781847659483868 -1.4851126376021584
Ni 1.4817210050956446 1.5580156332952437 8.437709739030703 -1.1501639730378512 -1.7582085305257267 0.6504978415560797
Ni 6.563265035147012 7.792688048926891 12.941833647101118 0.7878186616281465 1.1783684604965257 -1.4286823225285719
Ni 1.9389181548326972 3.3898631267286508 10.272828472223967 -2.748062935905822 -2.211415342103695 0.4323495085129844
Ni 8.761085399969936 1.4380639391555359 1.4642946609474063 0.08963122730558758 -0.6752035718328759 -0.48414258192487586
Ni 0.6592404045304167 5.500603220106006 9.81611962307446 -0.15390109302825108 0.4785658591680468 -0.28134939118161223
Ni 8.590863066798272 2.8183830597877604 6.645252761767684 -1.2003513925255198 -1.0859748399544522 0.11718239745097882
Ni 2.3530007948380245 8.8631233848156 12.904113829875856 1.2755839279072743 0.988384505702788 -1.505652666537039
Ni 7.16426764335788 8.523969628071526 5.463803877551518 3.5857319453971925 -0.6513506764746783 1.3367617849681752
Ni 6.917965833586491 1.57948402119594 5.252070381788076 -0.2365959982253215 0.9101651197785681 -0.832022095618238
P 1.7970771240099261 1.1783385404353461 11.321281862697493 0.4104583648668479 0.04865195667974847 0.04502207323664504
Ni 2.205902581444364 0.11386196842147114 1.5935109700661336 0.2711379978662492 0.31188535498694026 -0.4006812308754261
P 4.596040413304507 0.3758791994012121 2.3258776616275365 -1.089279478847653 0.15851262365833346 0.8731905994367477
Ni 3.4205175525023246 5.101534420005088 7.095307813830583 0.19829658842449074 -0.5135840271144445 -0.4211531255765327
P 3.2765811321851066 6.575828017696308 0.742394626999114 0.993958657356456 -0.4038930529445044 -0.35542287325825883
P 5.605148188811096 8.460874082803468 6.939776593163512 -2.0568609317621607 -0.775994929520341 0.7028177340057187
P 1.7830361435136537 5.63371657950771 5.103356660511866 0.35959294547554843 1.174216900221997 0.10381574633608573
Ni 1.3794585142327198 3.571338824015583 4.884312687561322 1.153700011215568 -0.286125729524333 0.6302285497840824
Ni -0.03227367542317759 4.9268874474098805 6.603727567549827 -0.5430586395347937 2.1279172242790385 0.3110818852490384
Ni 2.971355847299781 4.2901509647847815 3.057791599387461 -1.32770147453812 1.1645996888472072 -0.730347049774239
Ni 4.763531256599483 9.446090676306405 11.875581606667394 0.22719373107481516 -1.0524147446108199 -0.665356503835467
Ni 7.65105281528661 1.4705237674846932 13.049035270343811 -1.1874855923064453 0.08721181923081754 0.32328099841839164
Ni 8.30100708967802 6.277955304876319 1.4603648702035794 -1.1529608190566982 -0.010939272620323097 -0.035803897072486726
Ni 1.7908283731961288 6.600177566151869 7.249729600595684 -1.3285039158347571 1.3361904858457374 0.1825760923654404
Ni 5.226874258559088 1.9232027336243442 3.583640818319812 0.9555895706599542 1.1105155054082938 0.47360311584613274
Ni 4.2063540938416715 7.113183170013347 2.5929640513887096 0.5931483571023333 0.8296273701338163 -0.11858210601198288
Ni 4.152594257124764 4.247401277331107 13.870078096956822 0.42078391516257213 1.4686858595047028 -0.6105477835257033
Ni 3.5280933524404547 0.11858407831788575 8.084259626195722 -0.45297438385218763 1.4313611549123155 -1.9228401225976048
Ni 7.635636735434607 5.819514017626938 5.441623618487753 -1.6480658135303488 -0.3184347260696838 -0.6467941674522475
Ni 8.143057752116686 0.3870539864104373 3.327288622508987 -0.7939677119486779 0.3053339270216677 1.1976221665198148
Ni 1.8283489413310712 4.46172033406002 13.286165073868299 -0.08039222520582284 0.15451121580842422 0.8469568625511994
Ni 5.931972823440522 6.348459548714031 0.8378779715824596 -0.7924422764430868 -1.3444925779535297 0.2731583707303876
Ni 6.235364642518205 3.808753937270343 11.981933848811446 1.3587776271176342 3.7878324809488055 1.4856546261485575
Ni 6.415671037631897 2.177156456817418 1.476711714585482 -0.10021234525554354 0.038874822688326593 -0.43499671632784437
Ni 5.495280556613415 7.187616269153146 10.14224267639994 0.0193254398014893 -0.5497203678256855 1.1463186311498321
Ni 0.07861358826956961 4.975577189903617 3.653740015884713 0.7857324685230791 2.030860393933341 -0.47211830377049013
Ni 3.7323470560621126 7.334938988564069 8.584026858572638 0.17156277197407227 -1.84278805434002 -0.19078922430385206
Ni -0.07588677560157267 4.316764282247736 11.921392059489744 -0.09068486538108254 0.613330231366847 -0.7407597604671307
Ni 1.2983931331662995 6.950060839637598 -0.09075094482780646 -0.5994133641754386 -0.8188423637031704 0.5911480388428528
Ni 3.4032212347557507 2.826886225191566 8.067830462940822 2.1721288857992462 0.96872559382128 -1.0487097849554068
Ni 4.524469765884801 3.5954170943669523 10.192474962320615 1.4593648392140932 2.5044534824771447 0.29572262918414877
Ni 3.6579700834266284 1.7086404620433975 9.903633004044998 0.09269495383257584 -3.437486765103138 1.4926241154878552
P 0.720773762095027 5.1719451196689405 1.477054086261807 1.3329254419412206 -2.0293377866412277 -0.04993005206122368
Ni 3.707613976493729 7.733923598908515 5.872292575960063 -0.7450434754441491 1.4807571888469402 1.1656021619697925
P 8.03951370607189 9.169976338326077 11.591613299849843 -1.5326705898867796 -0.3408436898925033 -2.107149395604068
Ni 6.691804084446998 0.788699928501178 7.3249213429854825 0.43125704677975407 0.9396705854368527 1.448271557514409
P 2.658899597775136 4.8181891173854385 9.085109322034016 1.0260172284538973 1.5004107014118098 -1.852055338574559
P 1.8530446032299115 8.885901391150325 6.71095631860294 -0.4220309001957958 -0.13246194931786864 0.2724657155387372
P 0.9936449235676559 1.3875033131846148 4.483928656375943 -0.29820554350700257 -0.6768061404333053 -0.7444847747272018
Ni 1.3968109584836095 3.4690482699005 7.240023457116049 0.4662631305412938 0.4922379573385006 1.4720434631230261
