# total energy = -340868.30333928444 ev
CRYSTAL
PRIMVEC
9.33109817943783 0.00000000000000 0.00000000000000

0.00000000000000 9.33109817943783 0.00000000000000

0.00000000000000 0.00000000000000 13.65700538746808

PRIMCOORD
 96 1
Ni 0.8156462176398 7.512691053945087 4.794346214483915 2.0122576912304897 -0.4988932578714891 1.0171096415516225
Ni 9.456508092803231 3.0083180450697458 6.608911681320941 0.6766809277093507 0.10824447153140067 0.9107878409642314
Ni 8.160147960160884 8.06905778017791 4.047007367623398 -2.158290694364573 -0.22550194519468905 0.02540018524065948
Ni 6.7214792498786755 7.7231073168641675 1.9149718151968695 0.5220355003159075 0.9788493125188432 0.8711871958534738
Ni 4.239845707877868 2.32088671444839 0.2542360328656123 -0.4304913722583231 0.17906345122649162 -0.2310897236951117
Ni 1.66897887442273 8.900411968416291 11.974912693220235 0.9128748054002471 -2.25425506297704 -1.866809614065598
Ni 0.09600580247990398 9.286467491509466 7.6495484040551345 0.36487784802357154 -0.1096801755366627 -0.5213695845971342
Ni 5.347465718566148 0.6464986024374476 1.4924783538908772 -0.13934556381157936 -0.5718092293049248 0.4149248852786338
Ni 7.852184397350182 2.950577209817273 4.868995932664799 0.5973071164657132 0.4883658759776041 -0.754638575331752
Ni 2.5805431822199756 0.8189923494306108 9.662222415372648 2.987201240937023 -2.1298969737132287 0.14127491962380828
Ni 0.3399692294099236 0.8837091136479756 5.227942749459416 0.4872996394966188 -0.3258580151169485 0.09107258773780444
Ni 0.7800088876468709 3.5150246670340395 4.005722857039842 1.7036890593216076 -0.6423775264417905 0.5499466249038786
Ni 4.214941006958533 0.5594665170328997 5.788029784518219 0.2818929223899081 0.8460672608573944 -1.5490724282835708
Ni 5.564264452608804 0.5866218788221285 7.610243019385775 -0.8367812075697783 -0.5055385311021487 2.0732820534326617
Ni 5.973498423466547 8.575465807001919 13.104988924677517 1.3588791856925049 1.060676984619612 0.3035063868946257
Ni 8.68543279850974 2.8075501376211016 12.734365171678158 0.6134258764044467 0.4255013752428995 0.04701236419379645
Ni 1.8275982116006215 1.0849827666154765 -0.13225618562022928 0.38126554535297563 1.0762455284818304 1.2053149071783822
Ni 2.606119722204951 1.1572801149568084 3.7235140581884734 -1.3185416624157227 -1.090231044127645 -0.3205399453381447
Ni 6.503560784059951 3.0874270950488127 7.266632795484011 3.020883720791133 1.0628850480145242 -0.4339232807580075
Ni 2.128694086184785 6.245415954186056 11.59515286203799 0.7283888976066035 2.5130389101533104 -0.34595838541124935
Ni 6.972411140895079 5.000078266139785 3.8203969838929623 0.20612148378554826 0.6736174582926785 -0.26398467465091957
Ni 5.610565361549136 2.9237036471916875 3.1707603331530896 1.6484440228053738 -0.44607997072519956 -1.4373029743180472
Ni 6.0782866555100625 8.440099566373668 5.56154257128315 1.062118859272461 -0.33778716245436663 -0.5445023139598557
Ni 3.686744865991904 8.047764214236388 7.983216342895246 -0.3511777248286597 0.2884885733295548 1.8956959580826451
P 2.256586117207797 9.059273914145663 5.411151396439717 -0.4329501182114608 -0.0691269367046487 0.28781905806635594
P 1.9845192889181458 7.887754543436548 9.74484649001875 1.0658646994681384 0.6178571727029231 -0.02716833288467579
P 8.237633399064656 1.8230073113187504 8.566602196884544 -0.25528766109755385 -0.4080147884223619 0.2373976681910105
P 8.129943195501502 7.986682845851984 6.311325232744931 0.6148032163679475 0.4862431732076465 0.23632217573864459
P 5.538053397950724 6.624687768935898 3.653331136684279 1.192279928371295 1.8820385152002104 0.4602261803185945
P 2.752757929378936 8.563372703820406 1.7058824344324273 0.6068520798416709 1.1158909107875945 0.32879318648587247
P 5.5856606606298 8.445978158198015 9.248154935681553 0.4508979609391331 0.7751786042666327 -1.3416170561779475
P 1.971157156390424 5.942743124017266 3.654874500315624 -0.43630103696156475 -0.26442716150497686 1.4955479740028694
Ni 5.812397014185042 6.3758460439014835 9.829561663756653 -0.08436123715589987 0.22822680032501985 0.470418547470564
Ni 3.826608695920689 9.17420504986071 13.12100855395377 -0.7687729578506051 -0.5282123185505807 0.6683634089825908
Ni 2.5262455221789053 4.522512663647611 12.937336151396215 0.06945320969581587 -0.7681903458742576 1.0408555790183107
Ni 0.5601952757971561 8.834301138137723 2.7051795931040754 0.9474206616959167 0.0363109186158923 -0.677765161912465
Ni 9.880606502988252 6.610196573533976 7.59008598119696 -0.4386985906594638 -0.2869405121161445 -1.0796031321001536
Ni 7.090804114017797 2.5204789035321657 0.9487506000803994 -1.2924087127740969 -0.6452625612990693 -0.45895091315059666
Ni 7.523589776565464 1.0804385218242751 6.673072312089526 2.081462018140293 -1.4711921708663243 -1.2243688384860398
Ni 2.4098120796643028 1.1866544118822748 7.197829010284005 -0.9889077251961098 -0.7023053131456743 0.23479442624020852
Ni 2.2044719341300554 5.042665398022831 5.701499712193273 0.780661738868391 0.1266427715329303 0.1650691938299286
Ni 9.14105165819102 5.344535753752107 5.200232187331221 -0.7439646405576735 -0.02059376499095163 0.4017531237833662
Ni 6.461542849163074 6.431879288195456 12.507071751564322 -1.1137913479460881 -0.4424881396088831 -1.269607398608865
Ni 4.805515538950174 1.3639639386223354 11.355799930695923 0.2671409608917141 -0.14921062953111722 -0.3229508687724825
Ni 6.3319432271815606 2.313356518254346 9.581672643841708 -0.03765509134861257 0.4238777235965474 0.3688761705496873
Ni 2.3879959722272823 5.479584737043807 1.6800847474216787 -0.17986614963344505 0.6299177034118829 -0.04995704864441718
Ni 3.330502201436487 5.914049997255574 9.569723239571456 -0.9776241818624906 0.8155865757700341 -2.2541833291988405
Ni 0.2905890580854103 6.574355825601728 9.89253351262298 -0.8527251324935443 0.6824314570398828 1.120874480045115
Ni 8.533643825165852 5.427955771069028 11.78344135884238 -0.7406386615082342 -1.4421929554204969 0.26435259951329954
Ni 7.194052714869222 0.05544351889191095 10.441996159346544 -2.416885308348173 1.757638774065186 -0.17192066953412327
Ni 6.772902931694508 0.7429149732352425 3.6570047900195894 0.04127237638622569 -0.03521305756602323 -0.2558895563476109
Ni 1.864903941939889 3.298692487898077 1.186210251611102 -0.6018726243492085 -1.1682012901555365 0.29044466861466106
Ni 9.425902090924092 1.5497647646642303 1.328119458250834 -0.9861445606286758 -0.15638349313047262 -0.36209360041021516
Ni 4.170972872551672 4.4824822526532495 11.05302445844766 0.6842813657644279 -1.1763532298387096 0.6111211395306702
Ni 8.063207181647964 6.28283365770293 0.579172863181849 -0.2826349427622552 -2.7878790394614956 0.9470635354668142
Ni 5.380815063296648 4.967288787297317 5.834505184993653 -1.0584630076874286 -0.38022527701391934 -1.1350366304781097
P 6.101101190447409 1.9711291630960224 5.3696065482182265 -2.933916927691586 -0.35455075506595063 -0.27665635658131704
P 4.227901902266497 6.6756915513357065 12.717170757146853 -0.6184325855904188 -0.4823816333697111 1.1672258136161444
P 7.944067720674537 7.636048171275031 11.215993020465756 0.06078936337323079 -0.7415827705890583 -0.3486894111891672
P 2.2397248228798685 2.7960728869164244 5.799447316194839 -1.367265609983987 0.600453889624811 0.4664947869361256
P 3.0284265615482657 2.337225467280821 12.044372454619053 -0.1483747638933832 1.0521969721730589 0.7144807721659436
P 6.652830360907692 4.629083135434698 10.582908804705578 -1.260737864033377 -2.0463338069785917 3.358771927599738
P 8.625452499705135 8.265878633115923 0.9388941611215779 0.560624416332699 1.5572588207491052 0.3026162709801885
P 3.458711489796051 2.647979028433554 2.457427740331699 1.3953947641200355 0.42696767537578084 -0.8910232567427945
Ni 4.601472416056536 7.2121923696414925 1.349740545736856 -1.6222239127665803 -0.6901308825666695 -1.26736231132843
Ni 2.007688405584579 7.274925342395592 0.1838151683590044 1.4752177470859498 0.02477540717246701 0.21847409181363017
Ni 8.50440016361426 3.349061755624782 10.283957216472581 -0.04539719718787666 -0.4552824631600739 -0.3748110479768835
Ni 3.866816397779594 7.6482345854378835 5.761057312252413 -0.6177800396080844 -2.648684913626116 -0.9036738556272695
Ni 9.346774378748757 5.897254020614582 2.70497430894513 0.036712010709052896 1.1276922742978965 0.4224350776127499
Ni 4.319925192062859 8.311787635934632 3.434368520984375 -0.3027515110064722 1.7501818035665084 0.17523636417091756
Ni 4.367971016354227 2.6391611406970337 7.010181559921414 -1.1559265865532415 -0.15235920246242793 -1.453782202919993
Ni 2.5261802044919683 3.648692647801926 8.205838615283259 -0.5939163456166094 1.4637508840969307 -0.7067790326463118
Ni 1.217633657686769 1.6777501066685807 11.254465138071758 -1.6741745948022586 1.5609650659560987 1.0029896572104726
Ni 7.529207097642061 5.033828848090043 8.846844000249291 2.3322731315237317 0.7190565644620842 -3.1027952108549597
Ni 4.362885567871261 7.81734207691826 10.873147946610967 -1.908580784465113 1.2963291308744256 0.8164319544894649
Ni 4.320718335404239 4.982890383377171 3.4725663043052415 -1.3467721180163257 -0.4502055628577988 -0.7970430084398918
Ni 8.526953427803859 3.7884911600437734 2.3867390733086484 -0.6364999846150909 -0.791752963685546 -1.2533680539318672
Ni 1.1388232028479863 4.207550777236496 11.21513269321781 0.08620703211538702 -1.1736617990494753 -1.2238186224095247
Ni 3.97093279075747 2.8537763977763624 4.641865806768306 -0.04483181160270989 0.2592384182151858 0.7023510787819451
Ni 6.001902286186089 3.987588800926453 12.718919404937141 0.7962873612207899 -0.24379303019439305 -0.21213272297663466
Ni 4.315063689935106 4.709759809900258 0.6491654302841116 1.761542479994966 0.9508037192355366 0.6880539454329827
Ni 0.05612188972624431 7.343928813095665 12.705726165285643 0.3973094861897158 1.2158317475493061 0.10728750693477006
Ni 5.082789119998531 4.518556278038845 8.369299859282824 -0.6445081996315482 0.2776452028571476 1.1489810084733436
Ni 0.10863824313355591 9.160805592940452 9.98448681918334 0.9302932579870107 -0.3160258595178751 0.010532266989891539
Ni 0.9499057900293741 2.0569379415352183 9.048284679873388 -1.6256473366258326 1.687064563391049 -1.6408261012488
Ni 7.66139143380666 7.715605113964525 8.567421467300699 0.8445297411669455 0.548771373648855 0.6094756335074472
Ni 6.007706229225366 6.609590052155274 7.4547859913654575 -0.7392772623843332 0.679142758986282 -1.0352613727599846
Ni 8.696900718116284 0.422010110422657 12.266230510069903 -0.43749582860061426 -0.2504277619020913 1.60959491114866
P 8.851003803797376 1.5033892069388277 3.345228540511383 -0.2500431248691629 0.6192278277982045 -0.15001409926901907
P 7.416086194964988 5.154731886610777 6.525535520165248 0.27038337908841176 -0.7708653216032595 -0.09090109515694668
P 4.163097425726674 2.6294941230303306 9.101014715427965 0.28912954934766333 -1.6257805197695872 1.949333540902443
P 6.682344624305166 1.9291112281991436 12.364601745926747 0.6172629907623499 -1.2230609183078938 0.1040988247941433
P 0.21248496737536246 4.52227005509613 0.1986684103685207 0.016458659776655525 0.4032438493962797 0.15543629872585488
P 3.772898895062053 5.822166673931219 7.198170528475704 -0.4233802151348386 0.3628217368254913 0.24540228366304187
P 6.32672714332472 4.5082920700915725 1.674526212263324 0.5124833378510981 -0.258496912063471 -0.38615346957289626
P 0.8376526794787517 4.728030100046403 9.041579352754379 -0.42841700622779766 -1.1466071089245284 -0.1369163855447965
