# total energy = -340885.9133213215 ev
CRYSTAL
PRIMVEC
9.11253432470281 0.00000000000000 0.00000000000000
0.00000000000000 9.11253432470281 0.00000000000000
0.00000000000000 0.00000000000000 13.33711509329071
PRIMCOORD
 96 1
Ni 6.584006426745717 2.0531815280860433 11.53593793280487 0.5722008083163888 0.6001021627123472 0.7821216112433691
Ni 4.939467381796497 0.7040717527725435 6.107078257415998 -0.7021577318242166 -0.5451610305897772 0.26797785497071264
Ni 3.1333266555532715 2.064954922257232 5.00577929308422 -0.1637129369123503 -0.602996967761639 -0.6517887924533613
Ni 3.258514650231126 4.6850636523295925 4.9041235066940425 0.863549476802558 -0.08025030031131986 -0.4886253002865778
Ni 3.5797497054344833 2.9630407291778846 2.463792318607525 0.06935216534157734 -0.4417936846450198 0.9239693726515119
Ni 5.034966740089111 4.672406342342146 2.7767741515966056 0.8532172416386145 1.0362525330286607 -0.63760581608476
Ni 5.947514138766478 3.149100452233092 0.45292666553134864 -0.8990556401289678 1.8634273278569262 -0.30027579577246993
Ni 5.882040580624071 8.248784410126985 12.22482638111299 0.5696844696524382 -0.29038759012448057 2.632415744152447
Ni 2.557769883690704 5.512591107030809 11.469985055364162 0.7341329991792325 0.8231088522890083 -0.08934017842773
Ni 1.0162753753419493 9.11094860727765 12.91587541127714 0.3031137794418973 0.2169147177463103 0.6844867969070147
Ni 8.014564943887002 0.4746281657006098 6.617209767567357 -0.04481329965994863 -3.117534316837347 -1.9570573919092618
Ni 8.552723875441089 2.745105361532262 1.1102174015417943 1.1292835300444164 0.05096132153921546 0.6793145086774559
Ni 0.716945029820251 0.2921779174373596 4.656186942740522 0.47144004675654294 0.5778667483529144 0.05350799922046914
Ni 2.069019112505181 6.809842361532531 0.4790322534737796 0.013429128921712356 -0.9072916548855149 -1.3441645051901496
Ni 7.656743063917916 4.364995001502328 3.964017070871221 0.8148216725795516 -0.7020829127222231 -0.34332171911935067
Ni 7.850785366922009 4.31941410549282 12.615163605572507 -0.4979530054454069 -0.9549185127348587 -0.6635500467543475
Ni 8.155654310723312 7.501556606692421 9.267720645451899 1.084356844735055 0.12800777020125695 -0.9446713810855537
Ni 7.047397015285405 1.0934858775187917 0.4912886119569441 -0.5136387916117799 -2.239356291488337 -0.7071855240561111
Ni 1.8907506061809078 6.667076288405588 9.181750264159913 0.5137884298157668 0.44567553619792916 0.15629273318887923
Ni -0.0337810754891741 5.039696145332799 1.1695418216139857 1.2338654651225653 2.369263849815468 1.2715380399726746
Ni 6.62611544722951 2.156326302562578 7.091983733814978 -1.2278349426577693 2.286498239281462 -0.25918108261468914
Ni 3.5953412514305385 4.46944286836778 0.5202318430455888 0.12112621259007528 0.9746722983230183 0.21900810994022923
Ni 5.779643033950972 5.891790992205474 4.723779165081692 -0.656816841795572 -0.25798963340974923 2.4185853217584152
Ni 5.252209555136427 3.189359628276676 9.732759691426235 0.04097618530204556 -0.017041785973635166 -0.12892411136793924
P 0.4305143876954058 5.8638792999869365 12.518269118295676 -0.7105652391616214 0.5089920368683879 0.5467273466356326
P 4.416098093229902 6.31023856212883 12.876664176665201 -1.855710933049275 1.4590074558746744 0.10194578300688249
P 2.628000184679365 -0.28107429452900573 1.3569584010098192 -0.15131404902736523 0.7197247941737024 0.04856608183416152
P 6.455565257362665 7.9975245049550185 5.7859607539036695 -0.39753702881948955 -0.09250289242642779 -0.08548686611991083
P 4.94865281625823 1.5129084886002884 12.824702684217096 -1.051541340866931 -0.5013460902873559 -1.057129633587986
P 4.048124850175132 6.5946589792117525 8.137493941339596 0.09608366779915065 0.6967306472713742 -0.7490993906810777
P 4.905769230368437 1.2993106872282614 3.569598342348799 -0.5709700212330812 0.2698611880363546 1.7557808949208404
P 0.20920647114672053 6.118765993765818 3.767281102761088 -0.26892144983090466 -0.6349483238572547 -1.0405375335572595
Ni 1.0126941494059765 7.856772301883674 2.279846703483987 -0.5845667860809094 -0.7900601493641556 1.551921724806908
Ni 1.8372235803592658 6.824923605614045 4.991642107544607 0.7146370952381499 0.781755743263518 -0.770876377346853
Ni 6.212980484737891 6.227651664780935 9.419683999335017 -0.10602458106194644 -1.2556961878444117 0.3695827096984086
Ni 8.873658217016235 2.595158611464997 10.402496326630962 -0.5303141953849317 0.6017870066139378 -1.1110819194347252
Ni 2.1873089188025476 5.53447030161674 7.047264883539675 1.093222265545485 0.20085483606997023 0.22002575257146623
Ni 0.9952983216406522 0.03455472964175452 9.302797523302637 0.08366729641266882 0.5882054112747611 -0.32358953079774594
Ni 1.7583090342892251 1.5506708302762984 11.256711660209236 -0.2749224046093459 -0.31820718343991006 0.8337539907076802
Ni 4.192850118152544 6.973175424322301 1.7637801998158364 -0.03827035633510828 0.7647327263429604 -1.4991986833815794
Ni 6.016796736199564 8.421785871690464 8.114901235326727 -1.0976733593383032 0.5273278590630983 -0.38621209072497353
Ni 6.808675957156438 0.7211058129305952 4.569108477291249 1.3479399130721816 0.9884282144565298 -0.5050261102421044
Ni 0.8733717029487641 8.087775043555213 6.966854970609347 0.5011164907750532 -0.035937080216241334 0.6793659307406816
Ni 5.41013888515258 4.715964255761869 7.644033812485597 1.7825872164804075 0.6815408269048133 -0.9109130536881861
Ni 0.6981312917352388 7.350088063415721 11.153976038517754 0.9101489218286518 1.1763540011696578 -0.2845069629739874
Ni 4.403869072349303 0.9809369677600075 10.558580368473997 0.8658043342750057 -1.758608594177623 1.193247691601203
Ni 8.585337635300752 7.6089113719639165 5.0984856596481425 -2.0614768332676174 -0.4877606382934374 0.4331390942938153
Ni 7.05538870776848 6.424983592626977 7.1812364499215615 1.1584583518361597 -0.3753504654201213 -1.1549207709965463
Ni 2.0430301650003595 5.6558128068671625 2.738696516237683 0.4670370325928408 -0.6860456567537023 -0.6908497630105651
Ni 3.8092671040333412 4.864972414807747 9.276723829229866 -2.083623801678302 -0.833745506067248 1.1183301163567063
Ni 1.1577930312851055 3.4605942083892347 3.75023701881543 -0.18879353403006197 0.1722150608460905 0.2295537466665595
Ni 1.8996717771511813 1.2893324622921536 2.7376695336346697 -0.6406759703696514 0.009512567476125553 -0.6945048432646491
Ni 1.3254454352800948 3.5429077297114837 8.329201613084665 -0.919304877296307 0.5474107458559023 -0.27936527087204793
Ni 5.43978195886688 3.136279116630257 4.7029734270231325 -0.43363557431425964 0.21923488123905469 0.9477721314980646
Ni 3.9144075234970974 7.4208377788531115 6.061624936885125 1.3068369723842848 -0.64039314902191 0.2924766114430253
Ni 8.347063091347007 7.565043632381794 0.3525466339275219 0.11207412969013601 0.1529400146665624 0.05510799671773735
P 0.22498938036072869 6.186144071553564 7.88292800876414 -0.49462059863806423 -0.5203642832610715 0.07196389193281155
P 8.778687385706538 1.5044520568736142 8.072448672304036 0.19338809537927984 2.458169768919257 3.4435622818732567
P 1.902669800899108 3.6159446912301183 10.475756545237209 0.05386769655273303 0.7750958147448392 -0.37532835393293423
P 3.858757277209599 6.52654278615476 3.7498898312628586 -0.24236786771209226 -2.1435395041973275 1.8744789576853975
P 6.997505890604866 4.242531654546754 10.415886284367142 1.6695502086563698 0.20059721153320936 -0.6307391708719137
P 6.390638451271552 8.395906274595902 10.343265765660908 0.8151101503542478 0.06866876612130754 -2.7875057152824763
P 2.6071962691276442 9.06667080365706 5.69548149069535 -0.6615111619474477 0.5591038659231146 1.7804367457963082
P 7.142768798099382 4.542607405365049 1.822569714131179 -1.4591990030601902 -1.041466473129432 0.5276348487805558
Ni 2.678292260864186 2.118764436638709 0.3422266889593555 -0.5017011596339296 -1.6084641399783266 0.8981596106772596
Ni 1.5276070062458975 1.4329824512353546 7.073832476965451 0.8291478593942366 0.1934073786529895 -0.6203753111390864
Ni 6.834655792127072 1.4412839698808289 9.334926496343487 0.42200261806102163 -1.3560350313754905 -0.525006152908457
Ni 2.9257157891429095 2.1621400993746667 9.300437376947887 0.3141232431785235 -0.4813835311225 -1.283019815360029
Ni 6.509256308799696 2.4544701961329696 2.617915343093255 1.1361563459048496 -0.30695475045454235 0.3718293396407403
Ni 4.209653631195633 6.934829880458244 10.323313872055788 -0.4953248237939405 2.2869952335225388 1.610719768781723
Ni 7.548404144954093 6.4391900334264225 11.588899070253424 -0.5453134970072415 0.6144291208579805 -0.5060501806312446
Ni 8.166671364556878 4.352984681442246 8.198724703563965 -1.4606606752073812 -0.47088391714275674 -0.3690651466320418
Ni 3.7107059342534847 8.523873592201165 12.831931657588616 -1.2381404383488352 0.6320298646588793 -0.330467745974818
Ni 0.16848711212663087 5.075143903325 10.251800526253422 -0.07054927097347204 0.12708962926236178 0.11654759208045734
Ni 8.622617012664785 2.7869774561271625 5.736240033612449 0.47514809173574946 -0.418596163482634 0.07045182616365932
Ni 3.5765876560711685 3.144917799040696 11.848813149143949 1.6441927037281878 0.09600962002810562 -1.4433304114590497
Ni 1.3112663320832145 3.9460826923353727 12.602680344988055 -1.0797013482409148 -1.9287719147010074 0.9094565237473176
Ni 3.0634790810005166 8.7825875503391 8.239229006777212 1.6529596512875404 -0.11094515829201537 -0.5249552450658636
Ni 5.478482891564278 8.052792024806612 3.6403125189028547 1.312349931782714 0.8452393656394604 -0.3973670789005285
Ni 3.3155226641126703 8.573500453390245 3.7391270171331445 -1.87029680128325 1.649590220594675 -0.8208830482822831
Ni 3.7816561254430154 3.357686359801594 7.166444984427232 -0.7639125444345102 -1.636365237263969 -0.268374319078183
Ni 5.471575590649602 4.917178123172096 11.797278123295852 -0.15412837854770875 -1.0203222349516492 -0.764523952766264
Ni 8.652752163225252 0.3845206938871707 2.0753751051014686 -0.9574955294334154 0.45001170167943794 0.029057322377272533
Ni 4.6957799925349475 0.8105471584948749 1.524978951386013 -0.2924457582050899 -1.227870166771079 -0.29740747308573945
Ni 6.24288782194365 6.101351940932117 0.7099657398854884 0.7136405356528355 0.6782187045101159 -0.5845364470636062
Ni 8.389090099023107 0.13554985730328656 10.862119793537238 -0.8970941455272227 0.6610442496133583 1.6127686808909514
Ni 0.20595511894836138 5.179682895532333 5.72766422768791 -0.8545660423570252 -0.5667482698422497 0.8522183680604548
Ni 7.250925466379442 6.586238997621832 3.177434054784544 1.5505323006585492 0.29440750991715103 -2.3247413419230605
P 8.747285592893911 1.8519403230732516 3.6079293061581548 -0.6233212811412878 0.7708534945287175 0.06838697321483062
P 1.6897554395911982 3.7818383761267804 1.5357818606661553 0.7968198366854922 -1.0766540767741588 0.4561412116159435
P 4.759722644933731 1.4858533745954443 8.262982649645663 0.4820689872252988 -0.09528688292946816 -0.4372842268104404
P 8.685265685208842 1.8582826468682572 12.449529627900208 0.38461774965466017 -0.6742103546816711 0.10661850589220348
P 6.7225989592144515 8.262826825311043 1.7159931592793582 0.12789644143437326 -0.04975444571530786 -0.1537519690448965
P 1.8318562977224007 3.5010994228559014 6.12278917760992 -0.7861258473067558 0.1424172607583676 -0.6052389697182803
P 6.884309990918717 4.283893447227113 5.985884286472843 0.07149775092967041 -0.11521473220164674 1.4514957208786616
P 2.5787560499261897 8.65378187958852 10.856118278520873 -0.35272038672543127 -0.5255080322455401 -0.6095021158700084
