# total energy = -381166.8908660085 ev
CRYSTAL
PRIMVEC
9.21358349943469 0.00000000000000 0.00000000000000
0.00000000000000 9.21358349943469 0.00000000000000
0.00000000000000 0.00000000000000 13.48501077471614
PRIMCOORD
 96 1
Ni 1.670109376327672 4.787580541006794 9.082181862209678 0.031929501718745014 0.15807656456217936 -0.6169030363197698
Ni 7.915352491728164 6.94134775499263 10.85078075774775 0.4318244892474498 0.7468674160267653 0.30322742220162613
Ni 2.847374972524798 7.375132466669851 0.7512147662764921 0.9046161649358808 -0.21510440401044892 0.6613851778925448
Ni 0.723550061293972 5.5326738025905575 11.091771240503626 -1.7627179883603061 -1.311848052445631 0.19843825620867758
Ni 8.10265542504917 1.2989770305603743 6.820758535065827 -0.23165690905249137 1.1389632192260255 -0.4051423519705732
Ni 6.259118771732897 7.468502919042081 4.093725858437481 -2.150319503233639 -1.160068376635757 -0.8825249894637963
Ni 8.434445770458325 7.596055765168107 4.074023532075454 1.9397736651281496 -0.473303839438159 0.7396202475460488
Ni 3.3214046157159225 6.522221854221686 3.115266354214086 -0.632445354929743 -0.8972615243430225 -0.5326089049563796
Ni 5.70071113339426 4.305654856994375 5.760189419884189 0.3422698808160686 0.6204501302410799 0.051049510377647565
Ni 7.878995692333965 5.675042090537636 6.211897315003259 0.61376834734553 2.526578082290326 -0.23063360999429955
Ni 3.9134141920653662 0.09646160954322686 7.476899257432333 0.29856575505989874 0.093181149440375 -0.6747245753139283
Ni 4.046771595621283 0.20869503084595473 0.597303701268832 1.8573273856067756 -0.039094909118932666 -0.5751979432714998
Ni 8.646828077309742 1.7308453169274094 13.051237804711311 0.17586551311448423 -2.328292549609429 -0.8523677491541256
Ni 1.030189167223581 7.6288376942721525 2.1869582261849403 -0.6095249986881437 0.10164419260606365 -0.1268795701340847
Ni 5.856319340431422 1.6606746671082953 6.217358205778966 -1.539354943885491 2.1592278614668623 -0.9753852652296428
Ni 2.1503858289433446 3.7660797827616035 4.0471484311750645 -1.0220518160482461 0.2902420656855517 -1.5819488672966175
Ni 2.408909760570777 5.805921040206822 12.614324160171883 1.3996085450910671 -0.9491235033196365 1.671113953599064
Ni 1.2300133601433485 2.6391479917065235 6.041189887781806 2.03865135073267 -2.007786542833013 -0.30677760144672966
Ni 3.473023341217937 7.601731332432888 5.7432797305967656 1.7858422330825954 0.034736117929604696 2.373539851483003
Ni 7.344091904794772 5.300279592980852 3.8713984098561847 1.032370424365435 0.22518364262332186 0.6711725962966119
Ni 9.05139651658985 3.128499823795913 11.008042802973266 -0.18463040379130785 -0.9662727614054133 1.1779529702256615
Ni 8.092437561255919 3.5176447247623135 0.7869772895528696 0.9706498074271862 1.5313886378505626 1.082681256804845
Ni 5.917267193445267 9.242698145029225 2.4981248869098636 0.579145615065338 2.000994459611844 1.3667526749033105
Ni 1.9514461400128937 7.926307442179179 4.385217833550044 -3.168376596300195 0.6089917518924931 -0.9361741422478199
P 5.483436413851935 6.514030978737287 6.152549861395084 0.6778178695272714 0.5347868864443048 -0.38626119879535414
Ni 6.434038649203469 5.281179834961548 9.950872578642244 -1.997617058499179 -2.557828298553859 -0.6035713522078702
P 8.885957416254765 4.440919472277255 2.669249689451275 -0.41845629547065993 0.15962076912084766 -0.3842593378739769
Ni 1.3478274488036706 0.03392994157351232 6.595707551284094 1.4394927828805146 0.2103064684011733 1.1003874158353564
P 2.189239509390719 1.1157557146067367 8.39522815347368 -0.1916176337424184 -0.253926261973653 0.35183824123079405
P 4.7900497813103025 7.489767869118566 12.975533476809035 -2.1294724845813002 0.3377583660989602 1.2516474716963346
P 4.713613894900196 3.0650458761456716 11.260792581995442 -1.9206109761567696 0.7567167980170193 -0.9593624074388252
Ni 4.347097554327145 5.128685819053438 7.438075060451269 -0.7251297672393576 0.6793906133310299 1.2934294407291274
Ni 6.313027447165097 3.693882144633639 12.709298697383073 1.0135365794883835 2.687437351803965 0.6462388091694097
Ni 5.458320185988634 3.018701552538772 2.049573565402667 0.10388953699681462 -0.351940056915981 -0.25840332390840015
Ni 4.659244540306893 4.668061939450394 0.38665262670483663 -1.4218858684320286 1.53688977017445 0.12591592066923474
Ni 3.3856969994393706 1.997947094534568 2.837677676183593 0.6989094000902479 0.6057259366570277 -0.15313721827903304
Ni 3.5916390116185775 5.415320393091338 5.288699961587383 -1.1262686544774925 -0.7980107716698 -0.6520775273383738
Ni 2.574367288072307 2.75370047190624 9.794810141952235 -0.9325666274022198 -0.8429551975909741 2.7626410908303134
Ni 6.941495172324183 6.4568054133451485 13.271610130932888 -0.231022360792286 -0.761552785953082 -1.0808951114386998
Ni 6.460196011970862 2.9043057032538298 4.236666309902649 0.31274024678806783 0.6540732176121639 -1.2699601539625935
Ni 3.6174001903074227 8.751522023461868 2.7729900297399195 -0.5299575833764615 0.32537439061231055 0.31043396725239436
Ni 3.120308948311513 8.794125632280617 9.717811305607261 -1.3142036971620012 -0.416189096703038 0.8968007826565201
Ni 1.1996546034267015 2.659841699623242 1.1136688380069428 -0.581171130135799 1.1694156221786118 1.6176445209260142
Ni -0.07467977744798425 2.538544876504986 3.5075862559588042 -0.05013496898317818 -0.9115722845387397 -0.356822838929579
Ni 2.576145509634162 1.0884005860204775 4.858339017435475 0.4045846796948903 -0.6887651125673944 0.5513347635006569
Ni 8.470083910361204 0.20968917647561366 2.463064438675006 -0.7148006173992076 1.0283970415399837 -0.547318186142096
Ni 1.0544669590136764 0.959060304749374 10.865736246033777 -0.143429761183282 0.01076340916409114 0.5879881530576325
Ni 1.878069163232507 0.6745531470774453 0.2913427150643657 -1.253039209837539 -1.162693730073746 0.29981865363039334
Ni 1.4805491151172654 0.7571842468460566 2.9848665108724473 -0.39233543001389204 -0.5566744305460155 -1.6819436972247161
Ni 5.045892560220119 3.5769341327961897 8.947371476579645 0.4328328759073061 0.9255125487689158 1.2481381729914958
Ni 5.117592664854094 5.121333379642244 3.5951982188172544 -0.004349535217947348 -0.41835936488147946 -0.8165126871287293
Ni 6.68481395734116 9.032011137490661 0.2965032430270345 0.786832129345161 -0.10926082861105699 -1.552191947749159
Ni 6.255405697694412 1.8184849205355256 11.772185147868615 0.027985943689964703 -3.3561249768951944 0.769640705167539
Ni 5.553643918003938 8.656050874115012 11.494528289322279 -0.3510332288309954 2.7962855183576356 -0.351804045558749
Ni 0.5295783364368493 8.176576003239658 9.898361603784826 1.5519842026137272 -0.819729394293814 2.6557973563011807
Ni 7.766460986859877 7.2447786912443215 1.7617356973959684 0.3120295938742884 -0.15632075821333724 0.774669525840698
P 9.27697267461524 8.715570621729439 13.233447469227169 -2.071063191404472 1.616238641717423 1.0988200713482366
Ni 8.432566199481027 4.521741024301056 9.425833774658896 1.200772025002706 -0.020694809345190163 -2.5321224091473233
P 7.737686966457423 4.933164369498367 11.557031395184005 0.0732818394132867 -0.452687191629072 1.3364283128881564
Ni 9.239012711740406 6.627422547451026 8.327465934308808 -0.3509062163348279 -2.019469892708212 -1.076806543191623
P -0.11837703859518917 3.2086395706612825 7.460393123090035 -0.959927793023992 2.2917702863136786 0.9838508794984927
P 2.207436336254263 6.73318526925691 10.354101362921867 2.088311436961958 1.0813468542641378 -1.6942934770393208
P 6.117054532032145 0.37273735196457813 7.719467105635823 0.25070724081572304 -0.850837171442212 3.9219561342398133
Ni 0.13063755378876785 6.592834756035459 13.180842515820888 -1.5454191478016999 -1.2348874786291766 1.778343610712705
Ni 4.604838331380702 1.459975183782433 9.640852087670142 -0.28424265356900724 -1.5213232831947605 0.2747162021358107
Ni 5.492806627988758 6.420347264535507 11.420104649487866 -1.4533042348423098 -1.133347672811461 -0.2208099390356584
Ni 3.1921841110267057 0.9896217602969057 11.78921645645457 2.221099402160678 -0.3326038184812143 -0.26325859511817246
Ni 6.858361010911648 8.459893687317619 6.0958854032211685 0.5759258225764597 -0.500354415798048 0.08866037875188601
Ni 5.335880878550844 7.269618511610963 1.4080105744100853 -0.27730196058511597 -1.1394771827479666 2.280739225310498
Ni 1.672477267215738 7.904250123945597 12.291209324724608 2.1187299013528156 2.1219941739263843 -2.9241115115653895
Ni 8.702183285307804 3.8441096190691244 5.375367532165574 -1.3937004071367483 -1.0126246091970754 -0.3842516245644931
Ni 3.717321500350528 3.0082349219985263 5.320376260704782 2.009118631380875 -0.49692816372531834 1.1946638552224391
Ni 9.22261253360516 1.6556716914187233 8.844481550022396 0.7234878607605605 0.7707179973921178 1.8326463379203275
Ni 3.49882137423967 2.5424145814582464 0.5071635311742521 0.6480298396315614 0.21797349802812785 -0.26203680689592934
Ni 6.678456584917947 6.195112009089333 8.095038555799503 -0.3244981586549444 1.9160380120741063 -1.8585167779291862
Ni 7.009039950925013 3.8782275177403664 7.553493617473858 0.31829820049181956 -1.157325009562665 0.5274258180935433
Ni 3.222671857908461 2.9376035930183098 7.743281454189849 0.019298443218295797 0.0047801949974627354 -3.0632009935021056
Ni 1.498672233315033 5.179959409684133 1.6745282108409658 0.5159430142649244 0.6707846168295738 0.10977993433932062
Ni -0.04383822897050226 0.4911420313094335 4.878229300895231 -0.19034828011169153 0.0785060639267035 -0.8820742750796228
Ni 4.718930132419318 0.027325645119948637 4.879793767326334 0.813939012864282 0.9015601517183762 -0.589842689767868
Ni 6.6252573553938445 5.0821480101988765 1.6721953315691434 0.13075962191478124 0.5787082704176033 0.10980281715745606
Ni 6.527464383075032 8.216433964258234 9.521644905226648 0.08635332788526419 0.6916293214890669 -2.0562325541495428
Ni 7.79896650846726 0.4078060924243356 10.920053083202713 1.793089144452996 -0.9712697003993723 0.5158915922016987
Ni 0.6831466561486491 5.515573392130437 4.240523115839398 0.29977957286234175 2.0599832794412265 0.2666485946363279
Ni 6.854012199630841 2.044272990975023 9.623294683482209 0.9738438888844518 0.7341484257982 -2.0345920930616317
Ni 2.5832123279654726 6.825919984386818 7.847574609471817 -1.6128846376435255 0.4285779572856942 -0.08363901427789466
Ni 3.2593419191322104 4.746699872250569 10.868985876836193 1.6967522229924583 -0.4210947615347716 -0.6100415333132462
Ni 1.6551649443415106 4.87863838399029 6.773628292810087 -0.45453170103697854 0.29461834037637646 -0.8223578330555966
P 0.759557665884056 7.223403178169172 6.227768633461558 -0.45553443126987997 -1.5072909734714106 -0.09551776799335163
Ni 4.496505019855868 7.0904972401911355 8.99767119146377 1.0556026554204982 -0.6313870888685578 0.8020309485727865
P 3.523698048939199 4.359268697763469 2.3037118314164045 -0.08404242036390043 -0.8577701511166195 -0.31759191845341433
Ni 8.874845834888974 8.803422137751662 8.123963678966799 -2.1578263531336446 -0.31472616686984506 -1.808467426681279
P 0.8132332376607385 4.440025754704716 13.221675273944356 0.03312197936494941 -1.0647894641260889 -0.4170630146675592
P 6.9450608290311155 1.754054333063747 1.1368336289438148 -0.1311501724849806 -0.8828214376582925 0.10991286037275909
P 7.099913522244069 0.9859455405913087 4.482106953354774 0.27136399783412624 -2.020934907289513 -0.6354579165038218
Ni 1.8428272074081753 2.67022540791449 12.30833553321775 -0.6055901824101118 1.9403490780156452 -0.38954012665694204
