# total energy = -340864.24847002036 ev
CRYSTAL
PRIMVEC
9.30050186727689 0.00000000000000 0.00000000000000
0.00000000000000 9.30050186727689 0.00000000000000
0.00000000000000 0.00000000000000 13.61222459189427
PRIMCOORD
 96 1
Ni 5.29685889423905 3.2791987686339588 0.6595832056356337 2.347410244275486 -0.052716870777741474 0.026740244208321686
Ni 3.800054761803816 5.974986370088447 1.3730786291097352 1.797796577230994 -2.1173623315813277 1.4633698466084282
Ni 1.0198744084963334 7.768523007248147 5.4835078714389835 1.1517549716740552 1.390295495220257 -1.6861204543102253
Ni 2.947282466217198 4.081804158391278 10.910877914997796 -4.108676844901247 0.17006330461041036 -0.5370435436889655
Ni 2.5324521917077054 5.999623398924527 12.770226761840345 0.8941525464003957 -0.5931205891881914 0.9618527779608467
Ni 0.9393878673308254 4.85881456764392 1.119718083718667 0.227299403414744 -0.397871786451089 0.9068676799742188
Ni 3.3152940154866672 6.390802497771449 4.559074280690088 0.19545757631379884 0.2834420120445828 -0.212657228021537
Ni 8.673052594443968 0.7849716386538058 2.6328762182321803 -2.343989134409079 0.4850967183080291 -0.612122841322307
Ni 0.34050996592923227 1.127118492871128 4.780368556537542 0.7438327429654995 -0.04896845947890276 0.8409741626052033
Ni 2.8506223527051664 8.714244516193684 9.420720851082436 0.04227896327386912 1.0537599457848046 -0.83862006055073
Ni 5.339799310296497 1.7801718163075122 9.844428454404325 -1.7671593119611113 -0.7573688297787214 -1.1788415434782018
Ni 5.271552229285115 0.31693970463090243 1.6738819634006608 -0.4372934827818211 -1.1052079771524514 1.2122329744544542
Ni 5.373030002645048 8.483089848510817 3.9430397439189537 -0.2895375834193594 0.19026446214863363 0.9130241864939179
Ni 3.6189181919240574 3.541621722819997 8.797363099322427 -0.08386809956956523 0.09165108594909376 -1.249988081716041
Ni 0.5731657345762912 2.018022845168929 0.8251563160762474 -1.2379329503237195 0.26939119037847153 -0.7795515365233477
Ni 7.326367858929518 2.130679821496384 6.3879853758256395 1.1248355215753918 -1.211464985940178 0.44406011208169327
Ni 7.386011975926791 5.93147862343115 11.473281109079895 0.24591599007466677 -1.6264837164841988 0.1756981342986845
Ni 2.986893302688645 1.7483361992044926 10.401018834963379 -0.6252449805265619 -0.9110351810883471 0.4815951329126738
Ni 5.972214820600659 2.717215957225845 11.683807264132177 0.7875312122947146 1.7082720507065998 1.1521146690063189
Ni 0.6756898143703721 2.693462476045269 10.113025081576922 -0.42895899477419674 0.9300711146738756 0.004848072120920683
Ni 8.031801607584777 3.8497380415479974 0.5843839996506887 -0.2808547109333809 0.29998988910093494 -1.2009370898256606
Ni 3.8384007300526477 5.339436590732659 6.595027562964747 -0.19538018610864416 -1.7149510053886725 0.020863987933202776
Ni 5.928567566418808 1.0153450641991757 13.257285662111965 0.8546259490606829 -0.7739796988625252 -1.285159230300535
Ni 0.3887637585718259 2.6820600610384617 3.1332757580517328 1.1779907654421324 1.8497842831521947 -0.44789285556422215
P 8.094254476076387 6.569576740235441 6.621108029654868 1.098950940499146 0.11435212709103533 0.9400274545556392
P 9.19865184344863 0.8023654368150877 7.9171961761643965 -0.6547113654167951 0.4889598008078611 0.7292808132932537
P 5.469727318163629 5.084054116285735 7.92899851274159 -1.0543538706150615 -2.95933408221311 -0.3406629413402649
P 8.842823951323467 5.6116343721390525 13.288879466172425 0.13050071182643977 0.6798603538785969 -0.9818186795598123
P 2.491892704069298 7.057239243063294 6.860016525552399 0.4801812832842827 0.04547870115808942 0.4865252232244395
P 7.247341496520999 1.9831180625257405 1.241614178372193 -0.38272850305174727 -0.8242933595154126 -0.32678489780659203
P 0.04104404377368882 8.26368171439532 3.5279620760659203 2.720650348220824 -1.671555926232489 -0.5586516088770442
P 5.2571829542561455 6.371810873428951 3.3256566344104725 -1.1528638884675178 0.6233449352903717 0.8412323013625964
Ni 1.509136597605729 6.326108208385352 2.722132202391097 0.37036432505943956 1.5228916561231451 1.3564826604358702
Ni 4.426136630493266 6.848647592351483 8.638712352250138 1.3836543357546558 -0.813037326985619 -1.7017342495880823
Ni 0.4356550277246174 3.1736380750554387 5.962331177511152 -0.17934241591949115 0.3831169967394176 0.6644090523205333
Ni 0.4282118362646271 7.75012661501041 7.7878801413049725 -0.0846556284678671 -0.06801262059454738 0.8222917557043515
Ni 1.906891151109921 8.158055917305342 11.970372460467212 3.9374822548998702 -0.41417078072142866 -0.8417061556752213
Ni 7.459764953907202 8.024379807278551 2.7252627512420684 -2.647379821661447 0.09527377030334559 -0.6444025272916193
Ni 8.049342353671921 9.293451856633288 0.3302691835768703 -1.2577196460323437 1.2218483860570313 2.082214322925285
Ni 2.3965346607864286 5.736372700092806 9.072534251102129 -0.9467244069598405 -0.10747416902427943 -0.6095375970936341
Ni 2.0836843867252597 0.26465414452872393 0.46822073420613186 2.012749800375559 -0.049869116916301214 -3.092355246468558
Ni 8.380672724485558 1.9569929534277615 12.191148698373492 -0.18564598954001574 0.26177121193936853 0.6747207186591864
Ni 8.24387164590878 8.790257516071856 5.163824518825204 -2.5330894010462828 -0.8410070727256677 2.0599125741042914
Ni 6.223821291383012 5.233652685114854 1.8884649972669463 -0.0951056201565975 0.35147005925809793 -0.612034909594191
Ni 1.4002742259461183 3.6515164501613007 12.9839243879508 -1.6085978373427132 -1.6711982857827539 -3.3547926312370158
Ni 4.5916855596296235 7.704265841438984 6.452874975746109 -0.2126400016303564 0.3055388439436222 -1.5969934203345657
Ni 5.2087087397247585 2.4878562863588947 7.242016029283725 -0.08316053197957936 1.2788826532632038 0.8052054896460262
Ni 8.226591313867466 5.003223456559662 5.087310221908805 1.5116669910519192 -1.2694916989666072 -1.6787650423864184
Ni 0.7627955225508433 5.243901837918689 11.402797257424847 -1.1984050674324263 1.199049900105277 -1.0338495800141225
Ni 6.915127578051859 8.158762755429745 12.241296073149355 -1.2428453000236723 -1.3443807349660137 0.299698068892129
Ni 4.390078585647105 7.875962402157316 13.226141072280564 -0.47983855523288327 0.4001335859020722 0.10921377742320545
Ni 8.85656079224113 5.144442273413958 9.117794212267812 2.2408470171012502 -1.4457158809720907 1.024502077360952
Ni 9.295135247429561 8.712830839944878 12.286134721590887 -2.4639172129259954 0.4869296577517097 -0.41357531322927477
Ni 8.508210503432013 6.095520871302334 2.255232139417401 -0.07893415260305761 -1.0063480321597444 -0.3339073677839863
Ni 6.2055644066698274 4.067592991890135 5.123654722205381 -0.6788481105639986 -0.7097496852388615 -0.17852969021020865
Ni 1.6952582363628521 0.5198785104478213 6.861908247585339 1.0081341775258894 0.0006972831773407347 -0.4797254266937867
P 3.7430798887763252 1.2201793122496896 8.288115992295717 -2.2519480121104185 1.89562653829729 -0.25852108043318706
P 7.8530924686322425 3.3836248010127807 10.61658214170219 0.07375440817433104 1.0602005592038257 -0.165883719311424
P 2.608995320179179 7.475296791640782 1.0043044387060425 -2.07402330247406 1.8135576967199927 -1.8791215986637317
P 6.349545472510275 7.824205110548112 0.790817003932581 0.037740194863251135 -0.2580197153167363 -0.8183757084793969
P 1.159009912983969 1.3657786653749526 12.172731845032155 1.0133555738258289 0.024866167114060398 -0.3412900334013026
P 4.1585797994036735 4.016040311316941 12.43268458598344 3.184152628187529 1.2478869762126379 1.115664653709401
P 4.316520918201068 0.13951124475376533 11.719744402457058 0.0924157320292602 -0.06322291251538788 -1.0605427730345929
P 1.409174806012607 4.135468052836041 8.115159213605589 -0.5901195975783384 -1.7698008633490165 -0.8955769375517479
Ni 7.43962936786337 8.802357468701429 8.363227773565274 0.39380378702930247 0.4977943683803555 -0.7991124893744108
Ni 3.1406491957494462 3.72667380388888 0.5957892048079872 -1.1041800501085692 0.46394091016602035 3.265432655314944
Ni 5.591740599137778 2.284854237130845 2.900301912248693 0.3783722829655806 0.5917039113463229 0.9803467229999762
Ni 5.550864894443717 5.746259133332803 13.202959571950656 0.022004015074916942 -0.4106776799665056 -0.3492478547957985
Ni 7.126816295808749 0.518611782124879 10.72059337170801 0.3642638685886565 0.16751585559820828 -0.8125143646026136
Ni 7.5385216017682515 4.474843357565575 7.240029442134089 -0.6316328863307767 -1.2217794804923088 -0.1585283073876173
Ni 3.701822863515152 6.906292101496828 10.606032582695486 -0.04694911505602882 -0.1475401838072298 4.129738807777868
Ni 2.7712425712344464 4.413934372345687 3.314304442112504 1.0227223597527095 -0.4638072128016335 -0.8280669676252319
Ni 8.53291263577955 7.5013660977289405 10.166044451258248 -0.11540627938716252 0.1409033952170025 0.06188131088582892
Ni 1.7129570909778236 0.8733933678158946 2.5179480594050005 1.3440086963385758 -0.2865214223008549 2.4296526353161703
Ni 2.3427777613252965 2.3275621406473705 4.356129894572187 1.539343116810949 -0.35822640414532503 0.6516959756292389
Ni 5.079413165968934 9.006289568093164 8.341870101606357 1.7830662129993549 0.06873561480350097 0.246352306281137
Ni 3.1657047471591855 8.16097627481932 2.9887134108589812 0.2910373078933375 0.55950264402343 0.18422494082277305
Ni 4.860070135364897 1.262589599713835 5.316608509464952 -0.25185678103913395 0.08840686798018323 -0.9122094039021064
Ni 7.810338062607532 3.826124067891974 2.8251492087719323 -1.3163199721740555 -0.19096585909103242 1.9014871108431253
Ni 7.192608044387995 2.4085044063930856 8.803201954250056 1.6267727084795274 -0.19781990589838833 -0.3894269981178454
Ni 3.732774932962669 1.8674291226646644 12.803086364173584 -1.122182914443893 -0.13361123243096343 0.5695302034627611
Ni 6.939532094347016 6.198403020409435 8.68378258318243 0.2707361344421402 2.472727612128774 0.7813389674410738
Ni 0.5538653335794501 8.226944732929669 1.4376957243322446 -0.5396758391054899 -1.372372335082933 0.1643099470664009
Ni 2.720638541828215 2.7890158298625125 6.6646808798236234 0.6723948987394872 0.1811982381813073 0.42418137087989527
Ni 0.5445843629960135 0.21870036594092931 10.085677886563854 -0.0016619610834552024 0.8019270760050705 -0.6809376461031756
Ni 0.8608144393520225 5.608518704090699 6.155882987025974 1.2708944928514048 -1.0399032424073702 1.177179839505063
Ni 4.980818548116433 4.64474492146799 10.390524148916331 2.523880995074137 1.323588995031643 -0.5737545259567538
Ni 6.8526282070520645 6.697737652791565 4.858542992996123 -1.4192569154496137 1.3701635003570725 -0.5851126312820504
P 2.9700872962308136 0.23917077004368908 4.7990579145768395 -0.3254173280351041 -0.47791742695077044 -0.3317047037057126
P 6.2281739261490685 7.7092230088114375 10.083064445603894 -0.48996535925424 0.2817761943063857 0.2535696499651826
P 1.3143654923263128 7.316183809637141 9.99688599743662 -0.13124710307416107 -0.19757513687743394 1.0550573244399895
P 3.543742237193204 1.7274100705215258 1.654334169060279 0.31220082934483007 0.5634215194618619 -0.4410262103513759
P 0.7512787113739021 4.6115142291194395 3.929427529723225 -0.8531228821525952 0.8603543669040279 0.6660897824570657
P 6.354744452925288 9.04152916879528 6.142148936258803 -1.4801275256827413 0.31506323849428963 0.47018663396541605
P 4.180175564204495 3.601423948345097 4.8936895886818705 -1.3741250561079819 -0.3580582539985768 0.6021760145222405
P 7.430319565724859 2.0881207260060486 4.339332258565829 0.4366368230344287 0.48144652314995146 -1.5403391621756313
