# total energy = -340875.0722755127 ev
CRYSTAL
PRIMVEC
9.14491123640611 0.00000000000000 0.00000000000000

0.00000000000000 9.14491123640611 0.00000000000000

0.00000000000000 0.00000000000000 13.38450197627230

PRIMCOORD
 96 1
Ni 8.396272342431685 1.716774210840987 1.6080412146927987 0.8222105088444549 1.0002516894540192 1.5075509120010167
Ni 5.197894461451714 1.6790423065426332 10.52764665642419 -0.8706284951365264 -1.5909518421261761 -0.1268793130237686
Ni 0.3288793619660975 1.5341320410284038 10.758690098626472 1.8508052682175415 -0.4452600459270654 0.4461159661694575
Ni 5.909414290325538 8.76999743524817 9.201630850311009 -1.1154196275781307 0.3382219359989401 -0.8784343643341903
Ni 2.017202839054635 1.4972963380439714 4.512197118803595 0.13929979817530846 0.31516094041441844 -0.07970856887523692
Ni 5.060062357335188 4.241144689372691 13.044522880091014 -1.8263245094673577 -1.1007630540072204 2.3800033477201588
Ni 7.098380796735168 1.3374890119136447 7.552874661232091 -0.45475538701201035 0.6689154248313189 -1.834164831447383
Ni 0.6298137037783151 6.238942026507523 4.794342325722115 0.22047852383816866 -0.33267246693562064 0.5814930322515921
Ni 3.371234995630354 2.725540238772902 2.7743667495411444 -1.95971334147487 0.38464603178943435 0.9505553506701565
Ni 8.449431712205396 4.607809910614205 3.395166314185459 -1.183518637238897 -1.4700225760382555 1.0244930784998871
Ni 4.83220774572642 6.278283435206387 1.093259522011946 1.172573193970987 0.12250123856073096 -1.222759585017391
Ni 6.742945526651769 7.336212506644834 12.390220932655371 -1.1010078230281748 0.9464989212125957 1.5685331081113438
Ni 2.5655408695038777 2.533652563568745 8.803669913390914 0.8293291221671072 -0.44081178034772467 0.3177130174123109
Ni 8.766732701890314 8.44569144345648 11.029298085364962 -0.1877643214345992 -0.22412049146613014 -0.7396955808686745
Ni 5.973693872320963 4.278382768457251 2.1348283470156484 1.796086536518423 -1.0985915002771984 0.19798239961818162
Ni 3.891854799727608 5.638724913875885 7.168190306633942 1.83676575940534 0.46699229539783443 -1.6109653091336256
Ni 1.701803990933957 3.8290384035508285 11.420714923711158 -0.006281719243653698 -1.9769621012529888 -0.07029858841524668
Ni 1.6920372255944898 8.792301874071166 11.947528576276973 0.24633096612489835 -0.7940379030649808 1.7519972595086926
Ni 5.000903925705026 2.2381621874930295 1.3265526124103968 1.017916196613318 -0.5389641577504459 -2.19565062307027
Ni 2.898790584612046 0.6195805479591543 6.883501899864388 -2.7317742260481275 -0.8000175176871835 0.7795633635978897
Ni 7.640308244316465 8.874990162647443 5.637324827945668 0.9247386467173687 1.1482222759304483 -0.9151764569502303
Ni 8.910765055913355 3.127824889787098 12.351927530799113 -0.8736521124541986 -0.29381075687341657 1.2771422735333295
Ni 2.5677630829659472 6.625031039491573 1.079120574548135 -2.105035691695175 1.6517077811583103 -0.0775454997856471
Ni 1.7601942500093297 4.917630362801292 2.736862553535818 0.3616122898984224 0.33449460774602396 0.6514797458533749
P 7.034247533321608 3.0505229540057157 0.4482927000992703 0.23281210570285713 -0.09250160687484714 0.8995798880635539
P 1.109707559595809 2.885466448750994 2.768276238571027 -1.3769676677630995 -1.2017433877770398 -0.034727119068540195
P 5.787366303227665 7.117374777643477 7.7850292101654075 0.14901008348453693 -1.324942166625428 -0.37644858358030653
P 4.026787966940939 4.022782495762394 8.389700809123688 0.4441277320948351 -1.0401534107449637 1.5678291400657838
P 4.284153207529539 0.6905478036369326 2.8425740709685003 -0.12134244236593941 -0.6445647639010964 0.6240581593073123
P 9.02540566480433 5.006875552827378 6.416035064102888 0.2903158563462806 2.2996550883783944 -0.5443063958989658
P 7.330926747874973 7.1003012281221425 1.0572432030859558 0.46620399516858424 0.21514065656502304 -0.11080631872130593
P 1.6749636760731552 7.326143959230271 3.1573501506251165 1.4211459049422106 1.425403394666984 -0.4148922322684855
Ni 3.9351559550481854 6.903603329539185 3.267303992440738 -0.7461364513980118 0.17533586586325933 0.5604899476373637
Ni 3.2615234939659463 7.320739316612644 8.607185091242798 -0.2777812142143797 1.5161088288733566 0.5481108572467206
Ni 6.783366034891886 5.006784103713713 7.369078403605051 -0.8482064186875845 0.9157973783636809 0.5221257460368685
Ni 9.095666018833475 6.4486348441423385 2.311985398990579 -0.4133362006352752 0.5221239462646557 -1.6589721760302074
Ni 1.6859467146243727 0.07028504528983419 9.355941170218909 -0.08496107552342787 -0.4971971011159889 -0.11722507776345618
Ni 6.93749437106359 4.571541192134498 9.929801733801035 2.124037686718974 1.7741159457846025 0.8220564997650939
Ni 1.217260862177713 7.820728200666978 7.343406808416893 -0.9603265711243073 0.3541267801546546 -0.9228434865771847
Ni 5.502730936944035 3.70734706799625 5.7965999202344625 -0.946309688019925 0.18306485907640085 0.3238759516899132
Ni 4.322461241243985 1.5049049043009348 5.085039853750625 1.2079384608441583 2.449802370791168 -0.9835379762437644
Ni 3.001039838601355 4.385213623041198 0.7899401873153342 -0.025859127154949015 -1.2492267780699842 -1.0684167764660308
Ni 8.037526614433597 8.540167522784229 2.7723850472480147 0.2138167955472769 0.4885173139538038 0.15624053979470512
Ni 2.785421118401021 1.3301273582635782 11.04068807247199 0.9763859385800153 1.598097452032022 0.13295508690420327
Ni 6.51392951129945 3.1751680959316877 11.725533109380748 1.258538285278897 -0.9913651855976668 -0.8132113906696382
Ni 6.44963163948129 1.2432324104586934 2.9858949508872246 0.7511920115440482 2.2938672780520237 0.6289810505302265
Ni 8.064805885039993 3.316639874772097 6.318154334273376 -1.1628474820427908 -3.182738521448822 -0.7111540217855558
Ni 3.93924373042903 8.002483314077008 10.990282235510746 0.1782188438380092 0.20562988886111036 -0.07263469274759105
Ni 3.158350603928616 0.46634109717227823 0.9019479762238811 0.1863515002474726 -0.10201931655729526 0.27088422998423023
Ni 1.177206150392258 0.4930314354866686 2.415648456277156 0.2300797943733586 -0.622369715861296 0.04508223705061913
Ni 3.5094328962015418 8.723413256747003 4.957392437423018 -0.9514596076519808 -3.5585898377647616 -2.0687754238115597
Ni 3.0088678827311157 5.615149332372939 11.947568813886985 1.6490991398908694 1.8608986478978018 0.45460754858023644
Ni 2.371129198762555 5.021169049293284 9.65406710975046 0.19081956332115524 1.3796027913931015 -2.052096934714614
Ni 8.801529089640008 1.510272967273095 4.262696501990221 -0.972354448823119 1.240332818014464 -0.3441616985221428
Ni 8.50540771468 9.030572539726426 8.481772691253171 0.9026407863770648 -1.1920675552501727 0.20964312378556155
Ni 5.764741792506838 8.72958607191942 1.4087726815247053 -0.11952750064438769 -1.1815897956473005 0.08861744132909255
P 6.722963895315874 0.09113452871441399 11.173623076551733 0.04669688983590667 -0.605234598842906 -0.07128460647759982
P 3.93924373042903 2.2145683161673504 12.686942213801023 0.008451987422095122 0.7492107194479614 -0.22451515580138753
P 2.8642959789374483 2.8151420803422837 5.997408456476681 0.33410637116866976 0.5285383344314317 0.28514382522703796
P 0.46166530399056516 0.28852103912327304 13.715367057697593 0.914014061211013 -0.38092770239758267 -0.5398576160989929
P 4.033143680340686 4.841261207979297 2.6256110487972846 -0.1527171000224789 0.3095250822848798 0.9977338081281721
P 0.6918171173346086 7.200794659129077 9.334753325073766 -0.02994178186475489 -0.12069272459708247 0.5886334999511152
P 8.74749180837511 3.4471743396181216 10.271963165035897 0.004372160925766665 1.1826233791181373 -1.0589949689314988
P 6.902835156984395 3.2065259970075606 4.108587370132387 1.2476504347217996 2.2971762878205984 -2.081920188723634
Ni 7.9024014040815675 7.0548967431872605 6.968132567614917 0.37600121163024275 -0.7016345123308948 -0.035909826522731704
Ni 5.483398594315164 8.905982267268653 6.475034374275272 -0.6578170009253121 -1.251872186112631 0.2003655551383775
Ni 4.686940828668895 1.687519639379418 7.56645942706709 0.6079108601234885 1.5087948117104466 0.29820760038953154
Ni 9.105688841691205 4.150079661984663 1.0716217472275704 1.8310013461177372 -0.5508323699429417 1.5852905300753408
Ni 7.657592126799231 1.0781850501153378 12.992791030981621 -0.5484967798312296 -0.9659158922866268 -1.9194097567598167
Ni 5.881979556225911 8.477918111112174 3.9280969979643516 -1.415946105908826 -0.9496942882214418 1.3321605387507378
Ni 1.0389259456187716 3.717497919613112 4.899664269930583 -0.712399721267199 -0.17679573823823747 -0.13062078234407182
Ni -0.00432554307637451 7.114274652690219 12.955007000688477 0.11740222677126878 0.8617317068675289 1.460838338435826
Ni 5.004571035163009 5.8016232200481035 9.488888977174565 -0.6763212303770868 0.5313007276679172 0.5033122128747912
Ni 5.5179023449011275 6.107328462120246 5.1394886560270185 0.4167058884384566 0.775551157114703 0.7028827829156992
Ni 7.1424409796991695 7.002148894425044 10.224769020946583 0.0775850947743309 -0.8641765688635956 -1.8829114047234667
Ni 0.34484729170321704 2.517639823765929 8.365661580614459 -1.4955811412336502 0.40341045688113103 0.07775813001708544
Ni 5.236796914404985 0.37783115802006184 12.696311175496046 -0.47812028699019593 0.6908708460564876 -0.49573542896879785
Ni 6.443120462588313 6.446824151691763 2.8493193575924622 0.14188864194840725 -0.6128229527131253 0.05448039043606747
Ni 1.840888947907699 4.3979067600179595 7.116914788601741 0.5592699591873336 -0.4144962823816475 0.7020512881533393
Ni 3.1817341422928647 4.702203685739654 4.743642022614868 1.1422280060202263 0.41813902134055725 0.6542362255525894
Ni -0.07783234064064155 5.283582280956215 8.45108145421592 -0.10924257377861187 -0.20198946389504566 1.9390730395166995
Ni 1.90552518144642 2.351046973401628 13.484886027544356 -1.0806354300194099 -0.42932511986436384 0.11829542800949949
Ni 4.064657044909791 3.6755593560861493 10.813526645144806 0.40789908878010395 0.5192288841050477 -0.18949441675182846
Ni 6.017132201312039 3.1351499637916986 8.698347054691311 -0.9738338615821227 -0.11697928030123723 -1.0080321047303864
Ni 7.578241730871743 5.0783156004228065 13.107710559669274 -1.1510137226326564 1.60673121644762 -0.5425575315286592
Ni 0.8854688459413719 8.62366056356076 4.855094715403465 0.1171857398850885 -0.22060167967959426 0.48119224104730024
Ni 9.319213377188602 5.726680671399289 10.923988944032407 -0.16700009230405433 -0.08401825199418435 -0.16902046516819277
Ni 7.398553367430553 1.5493857531877964 9.754009102601993 0.5524161694902937 0.994400887100197 1.002784483178202
P 1.1354047605357929 5.321661691886497 12.949117677768424 -0.1584372903357078 -0.6997738049730722 0.7866326117398452
P 2.7249000949772437 7.054210874834769 6.088609743044071 0.11638766946382537 0.09802485068592151 -0.8695712575166056
P 5.84971630892475 5.476091810133298 11.717582523438676 0.21289402662269138 1.2729475187256916 -3.2821111444118896
P 0.5368181856008097 1.008290492540855 6.867507449884306 -0.45099900529337167 -1.4300792028760982 -1.0035049062839945
P 6.361127187275895 1.7465226075163491 5.453261538906724 1.073183344616739 -3.055636036670654 2.0586846152344607
P 3.8126598672933514 0.5435296360527152 9.167058512889797 -0.4472408238025201 -0.8660408757658439 0.2470724722766132
P 3.914899976371294 7.87478377175461 13.253253653050068 -0.2169910795102005 -0.7709738221566658 -1.1222014263866544
P 7.681094549011244 6.963429339699104 4.452394885413228 -0.0501064297380879 0.43512758547875385 1.3065520941540143
