# total energy = -381175.45987106254 ev
CRYSTAL
PRIMVEC
9.16955265333968 0.00000000000000 0.00000000000000
0.00000000000000 9.16955265333968 0.00000000000000
0.00000000000000 0.00000000000000 13.42056718074539
PRIMCOORD
 96 1
Ni 7.667258868879442 4.883685324125564 9.252367316682385 -0.20419392774553222 -0.649486883793062 -0.3027371128287689
Ni 5.133592308049121 8.097246694414311 11.723307719703728 -0.07649828946805536 -1.9938845880399405 -0.6860752244400571
Ni 0.8789025243916946 8.295840862529683 12.5407678236369 1.2451513224490298 -0.605082389535758 0.2916420313568719
Ni 6.0313648545372525 1.2453169254662857 11.309847095600716 1.1127346245467997 -1.1419796374548463 -2.4953715747805347
Ni 6.12327127927732 2.0749505273027715 2.2794031225124707 0.6443444203601741 0.8500660976041424 -1.353275209242166
Ni 2.2855751483024083 3.219888361515988 8.60368383003452 0.06183888768366769 0.45205058648633756 0.1877283259903412
Ni 0.049268005599958434 0.2835601585657313 8.18817014312603 0.8951339364770583 0.7507194427830038 -2.4187858678049956
Ni 3.929254112719856 8.291439477328124 7.264982347964643 -0.25756694405003383 -0.43643884809100963 -0.3037030762864641
Ni 5.8606277869267505 1.1151734667876687 6.1030560838286565 0.777928399097628 -0.021755646509536725 0.6632931935485351
Ni 3.2697523880286576 7.778173775958745 9.378265272551998 1.009708721101861 0.08378865248188151 1.9575631279010868
Ni 2.435726570543115 0.8233827178950208 8.42987404538018 -0.7012722438954697 -0.5037127907473196 0.17141673331451124
Ni 5.880342324808737 0.2501114649443786 3.878812404399482 0.8877967793856968 -1.485947217688312 -0.43972908880650724
Ni 5.079317726782389 0.6639773832680347 13.11061883350383 -0.9062593569662586 1.4998023784038492 3.6684582180528302
Ni 1.6340142560790232 5.379858979628887 12.295373176500194 -0.0889164606267501 0.21112433631677835 0.015223244707657653
Ni 3.8524132627426266 0.11252324658837333 5.257118100686143 0.34100335539881915 -0.354735360272931 -0.8356113556313932
Ni 3.0115286199846545 5.57664674590112 7.855822463511511 0.7464974342818562 0.13023897352462085 0.050704468333403
Ni 5.3414202155352655 6.377176188092292 9.70579435232606 1.5880938038520906 0.6773859241961753 -0.7070520838020403
Ni 4.690858804534736 3.41932612846166 7.828377992869285 0.379750651370346 1.9430947590815826 1.8998084375891218
Ni 0.0056988768807694325 7.7603848441024414 1.8726115139450716 0.08392877760417158 -1.0403817247056855 -1.275025998521275
Ni 2.027204667418353 6.607139395321282 0.931551343999601 -0.5956410416172 0.4322217246858685 0.2786307066988685
Ni 5.967544769114638 3.4511719843054447 9.896608155142426 -0.27727213578844506 0.4786774450452466 -0.08486285938266676
Ni 0.4433469465768528 4.065348610973082 10.332185739883275 0.9450369919550885 0.8061794235235212 0.0929482074939625
Ni 8.535542134517124 3.945979376485783 5.948478518594631 0.9011775715679771 -1.7823180219794208 0.21693682923349736
Ni 4.446655282268201 6.186825447677341 1.2607428636425022 -0.46112838041788967 4.010057812274751 1.6709650867260255
P 3.9425866420595805 2.6954266365401414 9.981010218113834 -0.4790237726410718 -0.8603530813524473 -0.043215873265841705
Ni 1.5043292750255686 7.576902098512424 7.9061770610831035 -0.4861629547890143 -0.5990595803804457 -0.3897085339140063
P 6.253176329590852 6.651868472432132 12.921845256119438 -0.5059866743831608 0.23045466121427408 -0.006046720414712167
Ni 8.49627811069821 6.460976728419488 13.034148433447733 0.8005052559568795 0.2594353647173403 0.6552672379202651
P 1.2847551707827611 0.03083170333692541 2.5667237145597848 1.0702242619884148 0.9029914848482642 -0.6105943204929226
P 5.119700436006698 8.37036181572359 2.15861810911867 -0.15716716537403255 -0.48763645401074723 -0.6057547330124342
P 2.7435667871822003 3.2579236652994656 4.477074355742479 -0.2129829867920719 0.2038198322355651 -1.0760892054096243
Ni 7.060353697346882 8.639992507081635 7.488005120903922 -1.679373622504695 1.308700507955585 1.864362952297318
Ni 5.465612634639274 3.241601861843682 12.109605378426366 -0.6440135193833167 0.8720518578466142 1.4785843495653375
Ni 7.517410041871341 8.845234600761865 13.027169487037511 -0.8995467208327733 -0.8898914571311964 -0.28247836257973286
Ni 4.994288466419758 2.3057389942570534 4.257514005828427 -1.1547428506577855 1.3934109009207873 1.3927197883910338
Ni 1.0275217144091089 1.8945120731438323 10.734695167431656 0.319152835182631 -1.0488928475004904 -0.3786517618792124
Ni 4.618025049001426 4.37212515952179 3.0959499390163194 0.790133168693936 -0.625351167087123 -0.02924449868741415
Ni 6.828547410064739 6.69560723787263 1.4914543063557562 0.3283985221506151 -0.2184578938637141 1.4225777522927308
Ni 7.307234728944365 1.9750115745698578 0.28281834176821846 -0.364528692214269 -0.6344515867264944 -1.29000370287703
Ni 3.8066663653039163 4.917970280935213 10.361160608838293 -1.3045430341437856 -1.0788891367522644 -1.1132051364253153
Ni 3.0578348601260634 4.447398016020964 0.9869226037457223 0.7474801099100998 -1.8649669044299042 -0.725316429328867
Ni 9.059270295292709 2.8392877457636194 8.224015757771731 0.1296216516555961 -0.45023127388941164 0.10591042408158534
Ni 1.6293469538548693 6.220871996121906 10.068551935862356 0.20018352103455847 0.015882218447895228 -0.9156677947643521
Ni 5.215604785638182 6.666576434647343 3.666606035593035 0.20139836727826607 0.3545237584827572 -0.524653911775361
Ni 2.3075820743102065 1.3687391021600215 13.242154230252442 1.5169364669809746 -0.4746210155876858 -1.2136936181603806
Ni 7.540599840152059 7.80897430281716 10.926864230108004 -1.1807922394466697 1.0041646513551803 0.1966348844513517
Ni 7.541984442580049 5.601523741842435 7.056023834654847 -1.6768793953279315 1.7176774031808997 0.5982807932328922
Ni 4.77764861897799 0.9940161695622359 8.437362818909582 0.03428720331764418 -0.0837400586321332 0.9581776431021046
Ni 0.27467486219008275 0.9013578415169018 0.5577444496968903 -1.090827282950747 -0.44307949333597885 1.105336789420832
Ni 0.6217268361988129 3.5227495111458085 3.976218726730998 1.0788148318709032 -0.37140896427387 0.6025020304030914
Ni 7.5304674846359685 2.1933111110147134 4.16425415513888 0.03421058444343786 0.9471021020142335 1.0495510499097795
Ni 3.6534156343171107 0.5747337965749105 11.007012537673154 -1.222827976361481 1.281713694954096 -0.7125776416059599
Ni 3.9822266175311274 1.2407229796621582 2.4964803576086436 -0.3669653266802196 -0.8190364819918475 -1.2424832886985633
Ni 7.638567339096775 4.181728571344322 13.503237981722208 2.620863263428157 0.28100049248262576 -0.239456093381936
Ni 7.320319680366501 5.532055212077819 4.7577919530322035 -0.7592814734204021 -0.7463585947111468 -1.311010129925368
Ni 5.713969964189781 4.505377096499009 0.8396889331115491 -1.0906136242780442 -2.1342796761619565 1.1293755755375905
P 3.041540565327789 7.013873235707909 11.70434508512701 -0.5093211380730325 1.1065110122345911 -0.5361032912628831
Ni 2.8265237286790965 3.1619459592479555 11.87730943704055 1.0392231856212104 0.6051448673425772 -0.5715402919142544
P 8.668243898344146 0.6539394741427276 11.59716860460328 0.24894192138518415 0.805918970773283 -0.2345468290057767
Ni 5.8639471649329264 7.792762533991415 5.725884880712504 -0.3483934772153032 -1.4111240019298341 0.07412773235334975
P 4.130461603298655 2.670907253146453 0.33828954963662505 0.11542247733707864 -1.0513770473749249 0.5687750704642914
P 5.035744013286948 6.389353353816608 7.494098288542331 0.4825556970537302 -0.2424177471134212 -0.9604592400474299
P 6.848793781991913 4.130424925088643 2.914786173254373 0.7060593808714679 0.2670257754700885 0.1663560309621522
Ni 1.2886705697016485 1.8012302155282773 6.398174463324734 -1.0094274424160163 -0.3718033714988113 -0.03210870760908664
Ni 7.61391958196804 0.7998829887396937 9.608790573349436 0.3542370804802738 -0.24429002443546957 1.3090733179139713
Ni 1.0176094281530963 7.165464277691628 4.040838397131897 -1.4332380602200543 -0.9600110967664176 0.95199825376427
Ni 8.835166432113297 2.7407517345637027 2.028330688465752 -2.5042503653274033 0.9466549871744858 -0.26309070208174046
Ni 2.9647914108755926 7.768701628222888 3.178110963355934 1.4183241192226994 1.4046918731512454 -0.9723829880682092
Ni 7.689696763854893 7.547495343634502 3.75037723335222 -1.2066796487363927 -0.29826853553445404 -0.5051392387812009
Ni 1.710983479791298 4.111755716192026 6.292809886375647 0.15373062888865782 0.4540457625394954 -0.9192459990339136
Ni 7.7907085542306875 2.9181000495290474 11.370601799621495 0.7540425936189659 -0.7983437295291864 0.11106651436122808
Ni 7.333468818656161 -0.11037390348161169 1.7701857785732766 -1.5147446015359785 1.6186318245399478 2.079002757966523
Ni 6.238706775740725 3.5467187213893023 6.06005730127517 -0.1122078270545229 0.4778402938559319 -0.3150943488425412
Ni 0.7898973460636551 8.528298188039557 10.148283945743858 0.5511064495399347 0.39172967810909315 0.18324277941516182
Ni 7.053788297754554 5.294426258956114 11.500714998776852 -2.2196279598214743 -1.2041537969907457 -0.15535916563101632
Ni 3.3162695278776413 8.640781088596915 0.792425391688801 0.023441775962708016 -0.7292309338919248 0.1511728954638106
Ni 3.461322678926541 6.779536151934872 5.337587342588908 -0.44039320475306737 0.22798254552469766 0.46375039142176905
Ni 8.445020312205047 7.892765673591851 5.9727026423977145 -0.4107789814310603 0.09993440900380852 -0.6230639137148432
Ni 8.920571644128561 0.28850438127548333 4.19004902328577 0.5478930848089597 0.9051992911328605 -0.06308021628993653
Ni 3.936314668147358 4.443235039184488 5.637174961975068 1.8667949587775785 1.5257342677782626 0.3272250706678042
Ni 0.6770476634061661 3.315049977394709 12.916691967612612 -0.749134100573755 -1.258832419480548 0.18785019628018615
Ni 8.93682009116432 5.396675938919847 2.7196379229697207 -0.8666134604398622 0.1256690947657513 -0.34329549386710556
Ni 6.755135972723725 2.213300735471797 8.137574386323601 0.6113504819326567 0.6485607724343669 -1.8735510465544893
Ni 4.3153014426591545 5.442386158148543 12.495097950439217 0.6270118426189976 0.5011936238698916 0.0181419610163494
Ni 1.806695268820214 2.3243990336011655 1.8574203163129386 1.4334620033054022 0.3462430065312037 0.48294059119697463
Ni 2.5954051578346986 5.390880781737792 3.1227910531038305 -1.1606695005548657 -0.020317114290797265 0.9018056920702792
Ni 3.6802915927041346 2.2412311923966945 6.391021295416948 -1.3817242086114785 -1.582599356396423 -1.1334631153434025
Ni 0.5864130555982991 5.090550428598869 7.995087793020359 -0.3047865391586299 0.9898076113025599 0.7433030957142747
P 0.6069464345188254 6.34654988273144 6.129508408890031 1.2240561923416273 -1.5200397884966468 0.35512745350502706
Ni 8.3314462348998 7.170021545285743 8.837255256173536 0.847509906841192 -0.2541987989087493 -0.8262288859752287
P 8.791170919202706 6.151467653224811 10.817070759299847 2.3117181901905153 -0.9217484537407933 -0.42792541130335976
Ni 2.212411288878982 1.2269044640397613 4.105163724897441 -0.8291118639499786 -0.0451745396541093 0.4125188469403024
P 1.013593164156673 4.6557210793422845 1.1349466898056755 -1.8258295721088103 -0.12098145948209486 0.24770239255112822
P 5.852558580723891 8.601095265362853 9.523824582899076 -0.30297365431960727 -0.09501614576658475 0.3443756143051617
P 8.191518863700216 1.3284572580132472 6.309719458146889 -0.032353219519724925 0.2141736646660634 0.18246502070887283
Ni 1.5253733980205257 8.632574339106508 5.813199193558943 1.1980499980858528 0.21532808998548075 0.381138275746492
