# total energy = -340870.14599664696 ev
CRYSTAL
PRIMVEC
9.24606945671511 0.00000000000000 0.00000000000000

0.00000000000000 9.24606945671511 0.00000000000000

0.00000000000000 0.00000000000000 13.53255725692861

PRIMCOORD
 96 1
Ni 1.8771092735862656 3.0631025969183523 13.420412709145829 1.760342289039278 0.7072194626178401 0.1887966193538555
Ni 6.972248283139394 6.0891654397767665 3.864464980399961 -0.1980037397744203 -0.9380885856617134 -0.913144514121866
Ni 6.845456933308156 2.74013739239672 0.03820106037794379 -0.14152971594709174 0.6363791427665104 -0.9067175275495997
Ni 1.533627041041916 6.423891644589023 0.6461902235937103 -2.1316800337555804 -3.715608907596704 0.2735658905814514
Ni 1.8762771273392873 0.5906564814981526 12.781730293913743 0.46561546965496586 0.6114756946566114 -2.1368854892159197
Ni 6.1647982875576695 0.598539680277859 12.259589960570947 1.5971952519327266 -1.5874877948369757 2.2995537869138394
Ni 1.3926799589426386 5.209956699497292 3.9490027176304716 0.3984932220851718 -0.8093015140922708 -0.09549488517521619
Ni 6.732359012274414 7.546244272166103 12.564681588314432 0.10805163879430425 -0.27843735974113987 0.052015988055974925
Ni 7.758663470811393 1.7822630935695778 11.418812507797748 0.43618199488519716 1.157691134652832 -1.7217253479980286
Ni 3.580799269302284 2.6630991420653642 1.5557159008644805 -0.30040229404800517 -0.7241473487214303 0.6554577566645163
Ni 4.859382731714806 2.0722753067108752 3.7040771127573917 -0.10295031301199688 -0.9011855419877769 -0.5661718285134895
Ni 9.214031780359718 1.5856269354086399 3.2664615721479326 1.5636323283756168 -1.6811890784468788 1.086202382584226
Ni 1.1791050016209899 3.575704685056895 2.164397594679121 1.7397865763751135 -0.9396623579067365 -0.062097283551376926
Ni 4.110636030822685 4.427036526062601 3.1741155292999435 -0.8688696034638907 1.068808355477495 1.4564319818380143
Ni 7.3884416055308115 8.612695164085073 7.838639197394581 -0.8741552773428622 1.2141312199184315 1.6153811788131343
Ni 5.714671890428364 7.8506341232413 6.395703152776108 0.6122645091064939 0.4098873228547264 -1.204196734413539
Ni 7.704684917590742 7.339825772568466 1.8342435711905385 -0.4808199453095461 0.6588996924665297 -0.038026101534786125
Ni 1.5192309109691942 6.00892804942925 7.050503316205219 0.04676810939347429 -0.5154493624579575 0.08138595657765983
Ni 8.849496247766822 5.226793791894483 5.586997540968388 1.0023029155560932 -0.6659974798535756 0.04587130861081777
Ni 4.258092345787214 4.64604817219784 12.378568381750004 0.3967626125473102 -1.1175073633450947 -0.26560961184885223
Ni 1.560320443431093 8.82425447827515 3.3179390635929424 2.68091729129726 1.0725292559725077 -0.3446890317805225
Ni 3.147056907169037 4.31129422917735 7.761273636206081 -0.5172252234114577 0.10507018756847712 0.49002012375157544
Ni 0.4712425704498464 7.247217141349208 4.5468036369624025 -0.5143761839984368 -0.15781739736352177 1.816891389078916
Ni 3.195617263714918 8.503582298967414 10.283917587064826 -1.053227213209786 -0.8667895810064103 -0.04127134794496118
P 2.8066998460855612 6.7408838882712345 4.718965449392772 -0.6783120355548704 -0.22952726430399825 -1.0816602717394983
P 8.619324595852666 6.866223605204966 13.281487742426707 1.517825297343831 -0.07978261664628196 0.5507179558522645
P 3.089943936418103 4.743067178526083 1.099173656170974 -1.1648511427363808 0.9547164240263816 -0.49273469446926105
P 5.655598752962326 6.317765259891075 1.8217530560233965 0.4361701678106553 0.2875138681211113 0.36802050741761133
P 5.139742048391158 9.115098837663428 4.805438388950977 0.336636079569059 2.1986210185525037 0.684741079009666
P 5.382414386148809 1.3220030043659605 1.1440568509121523 0.7682193993399802 1.1600159261312666 -0.001196077190630198
P 3.0049633124628117 7.100555988354015 8.461339781649981 0.20699308775722416 -0.6973970772107796 1.9390861521428218
P 2.8502950633578057 3.1383378637145882 11.314502975739037 1.0333811250181364 0.06351576116545835 0.24961683596502174
Ni 3.6456419540807037 0.2726517932154511 1.8908905400431648 0.23494612132672443 -0.5371291614242362 1.6242136895030994
Ni 1.4705133712433285 3.9624400303052867 9.82291781230834 -0.7738974235613639 0.4125831245193346 -1.6716806247358116
Ni 4.557840670018156 2.1227680917636276 12.763312123647294 -1.6171205301017442 1.0785546362309812 -0.0681450324073536
Ni 1.7422183669511069 7.596099078429504 12.25482638561047 -1.0051514407484816 -0.3807770357523313 -2.973366906157092
Ni 1.7608676889528283 5.121573521998801 11.956122867222955 0.8998002316044761 0.49840629093274164 0.7204904686951334
Ni 1.0431138127259378 7.397798627774611 9.415831868286627 1.0414914128300967 -0.183862929497664 -0.39741567275027684
Ni 7.883235763984023 6.075185382827533 7.920578789120638 0.32444236571634444 0.5327035215527148 0.5377919918192158
Ni 2.1931306799803356 9.32604791127239 7.8293284054978365 -0.44747427996956485 -0.8835488027426203 1.1928949362474743
Ni 3.8088350791825305 6.702808574437278 -0.1354012896666387 0.3363416882570917 -1.7512662948799385 1.800183846516248
Ni 7.8077231151054605 2.8130888800484715 2.1374813620171422 -0.8568049589898727 1.1461427676936002 0.18593909530040237
Ni 8.267409948005604 7.555850938283995 10.339888668243518 -0.19409694852084636 0.7876104022720822 0.4473511241281392
Ni 3.6338624616512574 1.0016266992793714 5.877473906794111 0.06809181057191499 -1.3185565748140582 0.714065539005396
Ni 0.9291837454452176 3.076407690800592 5.309715316191975 -1.223497748734996 0.649934769963758 -1.9029688375949743
Ni 6.000967183666492 1.161953542863829 6.624471251353697 0.023955482374332936 -0.3670422026647421 -0.962057437772485
Ni 0.14208527324375544 7.914395017898649 7.1121163489384225 0.6456705953707654 0.20352569803391402 -0.80429737600946
Ni 3.1833014992596413 7.811477019286273 6.557552823992537 0.9240177093909442 -0.013639702270621673 -2.508706601326544
Ni 2.8649778215822645 6.696502755099066 2.4821008610990285 -0.09517478283163609 -0.2060482073454516 0.13669578489355813
Ni 7.754724645242363 3.861056879215115 10.208649959025651 -0.47147192843574287 1.0222227944084716 -0.09659377466634977
Ni 5.077728660852463 3.4191779760003045 6.813615319471007 0.7978246238009228 -0.20811640272838994 -0.2675767628775521
Ni 4.109896345269815 8.819723904263826 12.616727713028208 -0.27578115306521533 0.43828798548460646 -1.0071967533132848
Ni 4.728671048453361 7.675171464031251 3.4042640660405734 0.45687680423038735 -1.3250493816272535 -0.37158996993642457
Ni 0.8203769252250597 2.2528510423051347 11.553893883462772 -0.5309834535378146 -0.22103388212100641 -1.8170166018028708
Ni 6.412093660020755 1.916136932569541 8.864217839482807 -0.4333905481829891 -0.5927691193860437 1.352435229839374
Ni 6.377605821118216 6.469336075743441 10.02195517469528 -1.5604192207549576 -1.023556682728547 -0.6612211415108548
P 8.779697669784177 8.599436300549886 3.20533488266574 -1.8766170870743228 1.239171450716511 -0.7670798864188982
P 0.06864374391322793 4.333882376748102 7.646300612295814 1.670716203940013 -0.08863723882343444 -0.07181759616293439
P 5.769944893366535 3.8229075968258726 4.481874963738462 0.16535767160462492 0.5357968157660579 0.9881986149442271
P 8.77867135607957 4.714598530810019 2.4825881289569813 -1.266867888190515 1.3166483020477517 1.3833959398869466
P 8.86661996831575 1.0408022953732208 7.120006019966717 -0.27011855546279934 -0.3290634094281236 0.08943325236216856
P 0.6794649781895433 0.17231159875482524 10.584259508951945 0.7175951494252092 -0.5674334688347323 -0.29979602792257404
P 4.065792594179974 2.328955439625992 8.354947110152999 -0.4418785310493422 -1.2789685281087908 0.25119549330605123
P 6.599992282588422 9.174615786461187 9.991168537377911 0.37823241495360665 0.003934816278031933 -0.13554830155267622
Ni 7.36723112230228 2.1621840856621595 4.547832724487832 -0.8303277386349507 1.4391557112560698 0.3656568922814412
Ni 4.7823259892446295 0.8843643485829743 10.689827431057475 -1.5120984221623828 1.4065199274989195 -2.2920191690996914
Ni 2.2304478161226005 1.6447832874993757 9.447700295725067 2.3486482304476457 0.08532437240011757 1.7903308649815683
Ni 1.8617607983642241 2.231862464742463 7.057594126836414 0.5376657506539966 0.9730833565693435 1.9541155356721183
Ni 7.628756195588692 3.0181944377897647 7.233490426701834 0.8915217936457678 -0.287435192364376 -0.8863531049606349
Ni 5.204455288197825 4.30830774875764 1.189893315409591 1.595276694753775 -0.030061338161754683 -1.5730533645792006
Ni 7.551292626064436 0.6339401062312509 0.8506374611929496 0.6365843167987811 -0.6159221604637393 0.19973486353291406
Ni 8.497221003212736 8.996656688510203 12.278671074014158 1.6752511156958891 0.3268458329515145 0.322085949669026
Ni 7.715151468163846 -0.05456567862823973 5.1819679227836515 0.6541688626497637 -0.20808554949045455 0.1486401017396279
Ni 1.1657721695305177 0.44034498029954755 5.7066657189254935 -0.28384978900596275 -0.19489656160400629 -1.2747496049314369
Ni 6.284211273999034 0.2964114177805595 3.0040109673134925 1.5594589137242174 0.04700465088431259 0.019180429583192774
Ni 1.5800330634150646 1.1043782686423516 1.3760444308586042 -0.5086865898128271 2.826567457170629 1.9960345445034073
Ni 7.521335361173223 5.219027093589354 0.7757184099705654 -0.6762070733967258 -0.2599084476990169 -0.5769671193567806
Ni 4.809934752505482 3.5202190225222743 10.10619518849076 0.28652862138970653 0.06531039117203591 0.09172539083045494
Ni 6.65447936962667 4.982355454879356 6.1622796582501485 0.18563596223768675 0.31638401418824225 -0.029555087949297485
Ni 4.6658717450147424 5.739710246392995 5.358270125096209 -1.4898475811839826 -0.013793968460298824 -0.7568065295173482
Ni 0.4951492075185877 8.507863229104647 0.9376475973839266 -2.7317099484690957 -1.072945774684636 0.33739249811910926
Ni 4.948265196961484 6.289176413272671 7.739783921681341 -0.6065875133263746 -1.6463303188964808 1.8169024448225093
Ni 4.767254896104914 9.088109561053102 8.439268489359296 0.08417123263228084 0.12690965204107177 -0.3485153475051482
Ni 3.387020146589304 5.5595228457139925 10.150541186599169 0.819179692437931 1.26562630247393 -0.4165601068892117
Ni 5.512996624438503 8.400174258676262 0.9804837123575386 0.4504588165191855 -1.4259386983451636 -0.11882893191546631
Ni 9.042138103942266 4.0490757006851235 12.772663598249444 -1.5337167717631068 0.6530110948962367 -0.3689499612104162
Ni 0.08160580862032431 2.001552121787143 9.111429997321196 -2.220989616055691 -0.09473743818390135 -0.557581258631001
Ni 3.3582463785826815 3.1132162931252587 5.2191556139541655 -1.1334230061340869 1.8177892183028375 -0.556625579585951
P 9.182382484766316 2.020293904482973 0.10473762507243482 -0.8789771242115377 -0.5944611623764858 0.20863345157412455
P 5.011138468955389 6.777803443428832 11.710790435295797 -1.7001543066954719 -0.5143353034581724 -1.8715684689068222
P 0.10106138787467353 5.432389391314553 10.707716726153626 -0.6338982853261858 0.9174320857536264 -0.24739000351703203
P 6.5589212422653445 4.406510251970474 12.195445354033048 -0.0009258542483790508 -0.49995589480804864 -0.06888062502179751
P 2.54422242764983 8.255537994882049 0.5800253508895361 1.4028867016217064 1.127361373321039 1.520710589311426
P 2.3594952068900903 1.9500884994462495 3.4580419795550075 -0.17691940830029532 -0.30498091455762316 0.16937733428697926
P 7.663160819866533 7.0823412316146035 5.63671643001145 0.4497083115064061 -0.6312497919597452 1.744239212829828
P 6.2746878225058405 4.55213584519165 8.438916214114743 -0.08457669560081563 0.010591145252284986 0.6372990834776184
