# total energy = -381165.18929150794 ev
CRYSTAL
PRIMVEC
9.26960735468215 0.00000000000000 0.00000000000000

0.00000000000000 9.26960735468215 0.00000000000000

0.00000000000000 0.00000000000000 13.56700734985551

PRIMCOORD
 96 1
Ni 2.402645111205616 5.529422668291074 5.225156154167691 0.7538219929677276 -0.5564569152185707 -0.4880617144736239
Ni 3.0374370827656394 3.482888057390965 12.837170351496376 0.36052394193025006 0.4011478860991995 -0.6684197161418229
Ni 7.511514969845741 7.0188168072552655 13.066316895725551 -1.7102163189171644 2.4077046702901694 -0.4388459148706055
Ni 8.399580419289185 4.436675021975259 8.162318333944944 0.5571577979403373 0.3886224999386791 0.08937951630609768
Ni 6.541042712277874 2.9646057788923446 13.288069074280838 -1.7614023548726763 0.11853839725824099 2.0091631114655653
Ni 3.54503150414756 1.827771880671045 4.938051390838635 -0.4292343599227704 -0.5954919176338453 -1.1220199065034675
Ni 2.245330607192165 7.45243976307668 0.6939756327334768 -0.11750481378740409 -1.9302582694385468 0.7642606718025483
Ni 5.396756049857245 1.8736008187325912 8.83182313059657 1.4216662962220548 0.5490930186543318 0.43504659572917337
Ni 8.68269276279156 5.730081855632962 0.77362195182984 3.3209875097621127 -1.1726068754224 2.2737985323266066
Ni 8.232189852235097 1.2771108641770805 4.4924836191624244 0.5749876270329065 -0.2975036323439715 1.117271850295521
Ni 2.6995969782771447 7.730138655966608 11.441979522795993 -0.8083995711032916 -0.11063559747139656 -0.21773952764045082
Ni 1.6209020564963827 3.798759192784422 1.3102042888885543 1.6785637250088896 1.0904303046226447 -0.2418909280756737
Ni 1.6269736492209608 1.614626532413117 0.7914474065006234 0.6038194636629343 -0.3347010673298752 -0.23555007345931045
Ni 4.168987304875474 4.902537671683822 1.3456623904000888 -0.7358052446753328 -0.8420727949860207 -0.17989237488569018
Ni 3.9477773983421525 5.769653808825669 12.745362307736432 0.4501605685524764 0.7196697725660509 0.2673361076216557
Ni 7.814195454174962 2.0613659824410626 9.221562838910467 -0.4573629998381865 0.17803655262387402 -0.6580193467441054
Ni 4.881792290740913 3.5840194720858416 11.042838578846576 0.5496838581607953 0.5756352879192344 0.6867282846430238
Ni 6.7732834513947795 4.310209770766991 9.895557833296115 0.31215146416413336 0.48311516910162594 0.025087539096247117
Ni 1.611734414962631 -0.25396962538512396 4.366256596859533 -1.4815794276379193 0.6843003919278215 0.02021427016434583
Ni 5.472257000607911 0.41381658608919303 -0.06046379392958221 2.575072430346288 0.2582104911713036 -0.0726272365484233
Ni 0.8751102464024209 7.4657045709986205 7.733709308665094 2.499357041790844 0.6894533968836707 1.115136549120073
Ni 0.6606328555879709 4.3678574580252345 6.2195365826595745 -0.8264320031249702 0.23121493641906632 -1.2652210966157114
Ni 9.257408410003508 8.040716845641388 1.1695926901123808 -1.7169603225092174 -0.1588340115534942 1.350911594105996
Ni 4.441671340263118 7.405359428041366 0.9080090093624197 0.9699630657728069 0.48160593154595116 -0.04080623538308457
P 1.2336178671332343 7.091944738559378 2.7420147008842717 -0.39964816162522143 1.5996059182567484 -0.36257928179738197
Ni 0.9332547846072865 5.0613353128513685 3.0765770722622157 -0.6207200960730149 0.23483427833920847 1.369606599412338
P 4.482707891395494 8.290217593389078 3.6033289908714417 2.7951709451372184 0.8325519999797791 -0.1565321028931949
Ni 4.934888600857526 8.002989544284087 11.899404976019197 1.3000945114541287 -0.6197659596898616 -0.11149100349315638
P 7.6239645749478075 5.928358753921084 3.327430255702297 -0.08676419017043767 -0.15646473999036925 0.04673288528016468
P 5.903506936982774 6.027858717746456 11.699847944974946 0.2599120472434427 -0.4309955655882513 -0.4413509406806463
P 2.1099665330593247 -0.0047534545788756 10.013495972829057 -1.43969564291994 0.19786849974813664 -0.8043598538162792
Ni 8.209507123384652 3.769717513385793 4.199219201840266 0.5778040134357791 -1.0194056366746507 -0.4059831027043137
Ni 0.5387171275998904 3.5582221552117956 12.594212092519689 0.16014553127606612 2.2211251131922904 0.17882356730154364
Ni 7.936934323283566 2.6648174120136083 11.700308644453436 -0.005865200531525383 -0.5284827986031478 -2.506991675517966
Ni 6.667016674303848 8.045073561031543 5.024120620772952 -1.0523820916006714 -0.05575668604532979 -0.6675108311743084
Ni 1.1125753361446276 -0.3357006791437122 13.141477651891496 -0.19498577888370291 4.102528823021979 -2.074618769966214
Ni 8.078017745066886 -0.3694717121424634 8.583424539146517 -0.27747730982071567 1.4538325965419543 0.18351634479152265
Ni 3.0631695123891935 1.6593801960379442 8.29191022366619 -0.029772603276742273 -0.6670444330608513 0.9069831225061606
Ni 0.5862220106455645 6.932257215099375 5.127365505912415 0.24048864841150844 -0.8272210746851688 0.9019640720250144
Ni 7.7285813619548085 5.336151357898023 5.61618433788421 -1.4170871614918046 0.7581489024778556 -0.27848492514962364
Ni 2.6864897536778267 3.1556616531614647 10.252465519821948 2.306063048787267 -0.5631541247330882 -0.30508350157375846
Ni 7.405072070217759 0.7136012451250437 1.3705522127279728 0.5089097615672268 -0.4294860709222603 -1.7667880446646218
Ni 8.724498691322623 3.517194873686633 1.9466759132755906 -0.4215789002600417 -1.179543711751549 -0.9924651035300649
Ni 0.6279092882042995 2.8677476531227053 10.140849252408339 -3.3327837310660926 -0.3574887546483521 -0.2759680722650409
Ni 0.2581622687276073 7.783355470976992 10.162706059256097 3.379616375148915 0.43850267259857384 -0.9499963928428928
Ni 6.085543483433552 2.596129622564568 5.009128885027212 -0.4542486225789209 -0.2015498052544658 -1.3592478818858333
Ni -0.3845561439603344 0.7712582019905004 10.901266648763123 1.064327693998322 -1.2905328359076225 -0.6876232856534673
Ni 5.166517545898368 0.8155706323119843 2.257658257824861 0.3555527139679038 -0.7565296217068778 1.8037720780881386
Ni 4.213101365602598 0.35405450142564215 10.037563580997139 -0.8381189525445952 0.17194380946257481 1.296155838521355
Ni 6.509285037965808 5.441676566411909 0.6968167673442908 -2.948385039400774 -0.30624821130582097 0.7573225499218182
Ni 8.531978219113833 8.803865068281151 6.067762522877392 2.5337049231430946 -0.7194383732815353 0.6975917097200889
Ni 2.9889477674339346 3.425314526990426 6.571885476358007 0.7172274816731454 -0.4220758945011182 -1.328183299270545
Ni 8.665636685519464 2.1275417083353547 6.894847861269484 0.25638243682362943 0.0465243688137844 -0.9736605692290522
Ni 8.639765211787713 8.03641574789451 3.560444080060775 -0.84695017768298 0.5003359038552867 -0.7040719181277939
Ni 1.6431583834150263 1.8067298722973173 11.934855661844962 1.2128091586728984 -3.085037629761222 -1.0624343336303508
Ni 4.464947323975202 4.044663332933432 8.724982564819147 -0.625277119316078 -0.7468152226325913 -0.5530746290098991
P 4.843898136453777 8.109608566449117 6.869016246848749 -1.0548680912473187 -0.35054754744382854 -2.203098594707883
Ni 3.2128829384879065 6.721512695109639 3.384073117538641 -0.9773498451551813 -0.805405007251342 -1.0167010932592941
P 7.10206714963608 1.9548674651698035 2.8996490063465745 -0.8120122281552143 1.488761032988023 1.7056790931684431
Ni 0.5220225650091046 7.051102849178479 12.396595190265138 -0.7802580756720692 -2.347012237506119 -0.6105372420027421
P 3.4375596781189257 2.5595239436800514 2.899961392109656 -0.40949060163693995 -0.242661230582795 -1.120677019322328
P 4.716246375522232 4.511786649222976 5.96826255905202 0.3911766338191005 -1.4061100936550106 -0.9637703066985337
P 1.8461813205962536 5.054837318194989 8.83605563325007 0.002522509311537591 0.9974211619837597 0.4952546326776374
Ni 4.299132590147341 4.377766668136034 3.7582917955349306 -0.8439198754970885 -1.1950942578916386 1.3683953527130563
Ni 5.764564794465679 8.581746740240947 8.552939581904807 0.8765633725637227 0.49448767260462584 2.190643913884298
Ni 4.979197323336125 6.1392145091973775 9.595279104195807 1.5746505338629913 0.11934058144456221 1.0777930754746083
Ni 9.438684848662813 0.9341724757213831 2.418292208181322 0.40956927739367527 -0.015168223100006133 0.6714615882919404
Ni 6.559396534559804 3.3493686350935308 7.052360734877295 0.14722856610408191 -2.031261743136818 1.127113518976291
Ni 1.3897273222089832 3.1946403514925334 8.01285055243738 -1.7785508416275049 -0.7460359212644054 0.9555312066181931
Ni 2.9722439352359356 5.370643566337954 10.67795346835315 -0.7556896423040856 0.6214855134841296 -0.3570331551681722
Ni 3.4121516847478297 5.7499188150689875 7.279010973883984 -0.6636289796213991 0.43539498020752754 1.0537419480626755
Ni 2.900330322476737 -0.028780276475220284 2.500765757477679 -0.1578932449067797 0.42654807133985895 -1.1703075378652616
Ni 1.4458269850626397 2.749782631728846 3.8414707619402044 -0.4100714138410744 -0.2725276791249242 0.02205749402067169
Ni 4.645194836233853 1.0968262734895775 6.776312759032019 -1.2665308165660705 -0.4598685398688596 -0.301777577128977
Ni 3.5524008418819712 7.605870301667845 8.699409572439658 -1.5016921392273943 1.427195196460084 0.11575877763057484
Ni 3.38583526986985 9.480119992905353 13.089991472547798 -1.9327272998043297 -0.08277589494665098 0.21631719337162744
Ni 7.346441804594927 6.810213566531753 8.720723180304729 0.10468323654270359 -2.4058953849955724 -2.4637961139670987
Ni 7.878155743945324 -0.13881978370188222 12.833452312043203 0.48848466094365545 1.3612541136825849 -0.44439049883791854
Ni 5.9812325934645845 5.388756378832343 7.376680190284768 0.33812860495418545 2.4091054072924383 0.974526002553141
Ni 6.726944684936512 0.6418164799061075 6.646816346265069 0.619004656043805 0.7146322101421435 0.48119172682666805
Ni 7.530601091097505 7.423861564038705 10.674250260271519 -2.5726152270550466 0.8026968642915595 3.4571569898385555
Ni 5.484511421343624 6.040335609055283 2.8550269711441736 0.7938610111674843 1.364054045025225 0.3956575524085896
Ni 0.8190828864850264 0.5997370979622584 8.049033537232978 1.29561025043053 0.31417312257985247 0.43592617012064927
Ni 0.3245372911769807 5.109824628183073 10.78781963392493 0.28787536522558804 0.9976633599015529 -0.7896156056275693
Ni 6.4215945537299195 3.910439420487802 2.3992301879083113 -0.9678280217076751 -0.3508133995107055 0.4875585495849603
Ni 6.4076252556597835 0.4775803601866374 10.90704624886049 0.30812923037861767 0.5465530258412975 -0.08833539131229948
Ni 6.471288917999328 7.902748011881668 1.928536218920283 1.1382654218280526 0.2521696842938625 0.060028059727174045
Ni 4.8145412904099025 6.556087284784728 5.271297477992319 -0.2620110958643165 0.5264696248278611 -0.056912654026643916
P 1.4321543144233233 1.6717643912746403 5.890129966813555 -0.06176869656736459 -0.2360000165125355 0.37299507781406727
Ni 4.29619412466079 2.4566313036146865 0.9246729822494022 -0.3035081866668386 0.12462676954416602 -0.19157238232677976
P 8.755978277418297 2.2018468797555317 0.11502284806442233 -0.9307172328983068 -2.0735738736414673 1.5274095985981566
Ni 7.696239702388316 4.932154066729664 12.408357394857838 0.051597412461317584 -1.4709605144714926 -2.307906529753909
P 8.65131514237523 6.463780536156719 7.005636352758964 -1.5244176058493681 -0.6817205470157872 -0.31293359374579655
P 4.471630710775844 1.8011310295406073 12.053146046452 0.3494070060814821 -0.6102238245273813 0.23421875624239663
P 1.6827303366077329 5.300009159374163 12.976028140587832 0.8910350838173364 1.0039828743616772 0.24850200563428815
Ni 2.71072050693286 8.433386676795346 6.264620244301189 0.6402681934082716 -0.09734247990691623 0.8252366972652885
