# total energy = -381172.35114420054 ev
CRYSTAL
PRIMVEC
9.20928438370520 0.00000000000000 0.00000000000000

0.00000000000000 9.20928438370520 0.00000000000000

0.00000000000000 0.00000000000000 13.47871858427993

PRIMCOORD
 96 1
Ni 7.950043503894356 8.371147232601997 5.7495089916913145 0.5562509698553517 1.0241580637579717 -1.1984994269184457
Ni 1.0902411084077794 0.40566528469754887 0.3202961412179756 0.6352429722795382 0.5173599492171089 0.2895640657819207
Ni 2.419923605662138 2.0569396694549105 4.985966318867901 -2.037728324697768 -1.8291972030294625 0.5536171317769304
Ni 1.2693524765492072 1.162699756386429 2.6631389591683066 0.951156731699581 -1.0138625953692346 0.3970366921443033
Ni 8.15402914862327 9.18693325368648 0.5544200893753234 -2.2088131285941572 -0.2485164038119914 -0.7648461119923731
Ni 6.1901585051561865 8.159223184904402 7.182270085915707 -1.8709907420264809 1.984706263974782 -0.9414593019061592
Ni 3.1354389405250216 1.1270506173008479 1.16700785952883 -0.35253295330497353 0.06611257535835711 4.25502403684164
Ni 6.291285654807121 5.22008934609683 0.7032504101834266 -1.55544079370376 1.0768679925571776 -0.4636274926906596
Ni 4.155219815622602 8.837505383801641 11.214037605162687 1.2651678747802726 0.011014605942948773 -0.16275417254350677
Ni 5.462459287314687 0.28773947976219005 9.43948313764399 0.9542361419558535 1.554471230701639 -0.6105583250486647
Ni 8.600780733790053 7.2019088844432195 7.777260755845827 0.1237914181270642 -2.940511550189968 0.6961238669253108
Ni 4.4122048908442855 0.5653119097825868 5.234082853418076 -0.5071853226769524 -1.6445667992381547 0.06116731553793981
Ni 2.760335586328482 7.060979208538635 11.956552719403277 -0.30081804142918517 -1.1187252949125959 0.575734275390944
Ni 0.621859677472381 0.03465361546503048 9.498237449824847 0.459931274785995 -0.7798395000774118 -1.6359890848714727
Ni 0.2668730836526293 3.60519531758945 6.163750882751664 -0.6262939906163665 -0.8651756995520713 -0.8931809265157457
Ni 5.593120611351427 7.457116567816927 4.792088784461989 0.9056286653607951 -0.26186917096981355 0.050716809628577164
Ni 5.000687359639872 2.089402396211995 10.947360679263227 -0.5891911722267983 -0.716226808322773 0.24543442245255795
Ni 4.614882817218729 6.500391661543675 2.335201874860869 -1.7770752855232428 0.10138091164234797 -1.444170390861842
Ni 1.2261148872940268 2.8739781531887436 1.0714246989581129 -1.119888976203394 0.7289283150498413 0.56117026153384
Ni 2.4808890669761516 7.603682325643593 0.9490637027585805 2.1081886355018598 0.05989384814215491 -0.000923797365850022
Ni 8.964538249868939 7.2626441136525735 10.619329660257089 0.8160583732001301 -0.9393983056120724 0.2082454721070865
Ni 1.328061663237551 5.434803806902907 1.6359123778060163 -0.9797484272943447 1.221347792271529 1.2461368262907506
Ni 8.892558484667983 2.2006781770363495 3.852406579504101 -1.1146616663661835 0.5266280047825963 1.25798421254764
Ni 3.978023978591947 0.5309916704051043 7.657138536632011 -1.9673775428883475 -0.8630000320569912 0.8846510346678635
P 2.2933972502250937 -0.25355922150434085 3.940544033810108 0.5591316338372564 0.715449049616484 -0.099063576363081
Ni 7.411005681895588 6.989966418177252 13.07128315631955 -0.425586478757538 -0.03211230715351244 -0.37770302481269785
P 8.583531744508914 1.980898609927749 1.24426270271176 -1.2714367385081198 -0.6047900551063197 0.7462488086061599
Ni 5.812301574987911 1.3891652638143608 7.035513695906383 2.3615921922028233 1.7098630493428038 -0.5029196054220629
P 1.9530128974113088 3.8917606136178735 11.119969371840634 -0.7051610374269146 0.11211860977482627 -0.9587669399466713
P 4.421239198631151 6.768925179135113 6.667504253318633 0.0006247780681924725 -0.013356880922880222 -0.06858546237888188
P 4.176834005608098 5.680636438974852 0.05727530114052036 -0.15462511567846918 1.5089935579848142 0.5837908271468333
Ni 5.332065032519351 3.6159517615191734 2.165585278715627 -0.2047760255012473 -0.9120399682037775 -0.7763998782682435
Ni 5.161149927303826 4.881463966562649 9.966488108924798 1.0148262448340846 0.3912493960385649 0.38006149774254544
Ni 3.231464146736686 7.071901419583713 4.514845125887047 0.7106220605414859 0.09230646014490554 0.2955776189658523
Ni 6.401226089424446 0.985936755712535 12.507791922020616 0.5785460338081261 -0.22806636348775564 -0.11478047287770556
Ni 6.35733464099203 6.312844589087498 8.165879655514336 -0.08593835183503265 -2.7443394643076475 1.2938714133625524
Ni 2.0223772259033255 7.0695070056952485 7.787343080173106 -0.020660356562828934 -0.626514848377921 1.03638340217957
Ni 6.861045648851741 3.0701451156433963 0.3969090972931132 0.23540532035133008 -2.1448790489443574 0.5189391207787708
Ni 4.365891400670846 7.568023977273826 9.176311265305877 -0.7131795368560169 -1.5789586743200419 -0.8590222783561657
Ni 4.41629381302305 8.815274171775656 3.0039745669072255 -0.5512458033312764 -0.4449085761249177 -0.45655258812174915
Ni 6.586268236581919 1.002522676532254 4.354920380419579 -0.6260229963431669 0.13052667996836875 0.05846817143922189
Ni 3.445506329797155 3.079971421870293 9.59068761191535 0.41805777448066067 0.6302586316910694 -0.6610586477910615
Ni 8.778151547220249 4.794086278202021 11.213646210584765 0.44503635995203356 -0.14658219076933465 0.9033246998179668
Ni 1.612969288112421 3.395352568117983 3.375111482404679 0.7738226044593706 1.563136876796437 -0.34949905157465616
Ni 8.076772463583502 4.601059681654932 9.017855400666141 0.6255486278099097 0.09168476740050661 -0.8536167910698783
Ni 2.3521801111869287 5.15450082412124 6.080263196031374 1.8875833562778395 -1.8038101304149257 0.13493612188997406
Ni 8.52884701501003 0.15434299832208626 11.487777131104702 0.1427309353440445 1.556995025564757 0.4728690658935857
Ni 0.419769303429031 7.38296341154798 13.564307710809356 -0.46254274426691305 -1.17237110526251 -0.9167108913168857
Ni 9.061125222415974 5.106142872858417 3.7326886478660675 0.39136175324671313 0.3223296902487158 0.8871190365923819
Ni 6.608517867176278 3.600793279748348 11.777677108937022 0.18334150977655522 0.9839287839242797 -1.648174314083755
Ni 6.952853002906031 3.9544021646538132 7.100103931476166 0.3564225181673668 -0.06967689567084775 -1.1229578449367046
Ni 8.30865303011304 2.0738018688002215 8.33789434926172 0.5991984199511552 -0.4875531502683216 -1.1289415733239654
Ni 1.8227752004471425 1.5994776867793348 7.399749173834543 -0.18062565350728893 -0.9918989466139498 -0.22413771785731074
Ni 5.9232366122973685 1.046478589953974 1.6544046204523215 0.37847384154045144 0.18028112568367663 -0.06599173350977668
Ni 1.982491816091997 2.3262007204970754 12.548363423503831 1.7913024848662182 -0.24132065739450048 -1.2971770806970178
Ni 4.162955614339183 1.908882007590047 3.0877044578016184 -0.7326774976796285 -0.5411426534590036 -1.1360118499071856
P 0.3778698231661356 -0.33613518909017687 7.223649241622071 1.364528156448166 2.153207623414711 -0.6619119969302922
Ni 0.6309676595327375 8.06062858840473 2.4185670781014803 1.49724078832426 -1.84825447677123 0.08852565294623464
P 1.980355262160751 5.537634674128326 3.8348435536322043 -1.0490419714838448 -0.40864239470403174 -0.6472325405412466
Ni 7.635813518169966 8.901620420307408 8.969520472613786 -0.6465373142464349 0.7706231236854664 0.56303379710514
P 2.2502333352434047 7.672024423590918 9.929650051250754 -0.12642217088169194 0.32323728966464976 -0.09514727202781033
P 7.105469260443167 6.0422205639857465 10.3692856225267 -0.592114259410864 -0.43866670898026394 0.1186813505940085
P 7.507905770104962 2.1990665523037283 5.867973539751578 1.115722246420214 -0.861440400879355 1.1629384990947005
Ni 8.897853823075167 2.4874552866010595 12.532283092385946 -1.2205795466469365 -0.18910489462289368 -0.4686218605814575
Ni 2.4063951671923065 8.63005704821864 6.180275101367334 -0.3322428355973697 1.0759868755038051 -0.9103201572991935
Ni 6.38332324096607 7.84815198365595 1.7758483719468876 0.538716303405698 0.44267120215396666 0.7493567581075223
Ni 0.6999571701583674 2.328318855859949 10.145633551417715 -0.7901226271709747 -0.9258164531625797 2.7406283340046476
Ni 6.70455228267213 8.030274787726333 11.107825088784018 -1.162859309117333 0.48304677775753585 -0.5536749815980593
Ni 4.659170264871159 2.455434605484923 -0.03461493647144757 0.1840925290099668 0.3829223642301083 0.020014495448713917
Ni 7.824870913232713 3.873756463033448 2.272121040969238 0.7306219007021805 -1.3500448752303267 -0.011340364713483694
Ni 4.966419613182253 6.574876352043334 11.676856628449496 1.0482161331484399 -0.9765797997583762 0.26162054529411716
Ni 0.8539824481760225 6.656581121345136 5.5231880700251095 -1.2788574564522233 1.6657755721052863 -0.7594102856887825
Ni 5.42782316948961 4.7335996996656995 5.512526481722507 -0.9925414652939553 2.5061020738241613 1.0442103544231565
Ni 1.4728316106478672 5.34203868729323 12.632308811648185 0.3102182516971625 -0.7534625527457798 0.37374763970937563
Ni 8.198169247728716 0.19675359385732724 2.8367312032968206 -1.8999688744263858 0.3306166128478564 0.6638596075749664
Ni 3.9611433606782627 4.877347416531324 7.969669409424007 1.1270872937240461 0.8371249640624422 -1.6771498753804988
Ni 4.000614352701203 4.164880354734143 11.956269994378756 -0.5064736413219084 0.4224561606586725 -0.21556463147631907
Ni 1.8270483083096356 9.09238153294464 11.657285057696543 -1.700456154206607 0.5977182358612029 0.24431316436392117
Ni 1.318916844040449 3.4862942494587505 8.502375848544622 0.38775963771775157 2.3002513272014964 -1.516163593370692
Ni 7.7469235318789655 5.975600602181278 5.723872186373195 -1.0305194871996253 -0.7497195407635798 -0.07386496561026633
Ni 2.690124003691316 0.9441450240746206 9.81047178366604 1.4424315537938641 -0.3103321515672075 -0.940714967540967
Ni 3.9041010544276586 4.678546598799359 3.692130960309131 -0.24952993267817025 -0.24545833371195788 -0.26522317504371096
Ni 6.312273613467941 5.3444883568868145 3.1817054633491106 0.369179560722719 1.6768829948723571 2.0499500635749404
Ni 2.5372406769127753 5.392975238128246 9.645411020407815 -0.7183914200742596 1.1044947531355107 1.3128757223791971
Ni 8.649286033599859 4.70656124129441 13.723760940926478 0.4475598977048356 0.01519239146972222 -1.2745464877816952
Ni 4.416542463696083 2.798130488629496 4.984470731116029 2.4017481955964186 1.7504741379959465 2.5978318355299903
Ni 7.206679293651779 3.7226044816819517 4.537408793072162 -0.0005149919632055647 0.18692357070085874 0.016201549460526935
Ni 6.189255995305918 2.9300442753155886 8.973470334601336 -1.1221949986287512 -0.5815282563649017 1.2001863277025653
P 3.816244483289337 2.9096272922743243 7.17739008622533 -0.2570388394607057 -1.4968517804159576 -0.3015091539589388
Ni 8.020761597161775 6.234215720703957 1.8408557880903151 1.7795761975682254 1.4112502430950533 0.24017960181152187
P 7.629385437807855 2.0712877342173326 10.467262276057465 -0.10621792801967513 -0.42918319496986085 0.6891363798638841
Ni 3.013323832213266 4.1521254961359695 0.9999864396673175 2.548034195281573 -0.3073162475590191 0.1727267103751864
P 8.18742201308318 7.213300768981805 3.831878164124181 -0.43494657981619933 0.2690605465119302 0.40311092336284127
P 3.5059744897651024 0.7490638362255448 12.838209987487872 1.0640705836821933 -1.2417479531944358 -3.575241844499146
P 0.6185774885883457 5.220291950348931 7.500542947397928 -0.672860525521996 1.4877022527062056 0.23423932506768694
Ni 5.060206963336619 8.345655933974022 13.453809193570333 -0.5534273843636275 0.06365048697110974 0.14015391864548765
