# total energy = -340861.48338361614 ev
CRYSTAL
PRIMVEC
9.31521928491494 0.00000000000000 0.00000000000000
0.00000000000000 9.31521928491494 0.00000000000000
0.00000000000000 0.00000000000000 13.63376502027058
PRIMCOORD
 96 1
Ni 7.339572922071522 4.3779946245696735 3.6931276055681894 0.8786325963879256 -0.40022511717461395 -1.45033692468387
Ni 4.8042590511985255 4.448203431027315 2.1774352623212936 -1.7970620130578148 0.37787528872450404 0.32185249350198114
Ni -0.06909843233932488 0.7722884873368522 8.091748919820649 0.5485602860793133 0.526465511062803 0.2116519266854742
Ni 1.261923418072205 6.451748703593171 1.719026809097856 0.6356690040733634 -0.5649538969459883 -0.5644653873453439
Ni 1.4857308724905796 8.16233965026194 3.4870535337759807 -0.3555421724449425 -1.804920332759969 3.06359848605084
Ni 1.3546936852224836 3.668668634742154 13.24116664787154 -0.7410883474511429 0.8833073761557756 1.60196079164217
Ni 3.0922242455671833 3.6559719910906 4.141583678690878 -1.44743003544972 -0.23440259011842857 0.6590220769770069
Ni 7.49471789640508 9.064332317011761 6.303352605507268 -1.357999354190713 -0.04880802264163853 -0.5968018946945205
Ni 9.40846445671783 4.995118575612831 11.709304015765706 -0.45918951152396403 0.6685109903040487 -0.31806525854540707
Ni 4.959664851667258 5.589774218154485 12.583582974131271 0.9656194440921305 1.4410629555811116 0.5997923447814122
Ni 8.750716835121166 2.22237839997768 11.873304968910363 1.7183885703153114 0.8299091630402933 1.2737461033675872
Ni 8.996694511029416 3.2137878549969585 9.168965515702945 -0.5933401613981653 -0.03797442236124428 0.09812718059174069
Ni 3.651668359860212 3.796855364961552 12.377617890402691 -0.520956922539748 -1.867791775473209 0.9525263583535982
Ni 1.3932959532283833 5.012230633124133 9.367800730722136 -0.37978587548365556 -0.14076224165344792 0.44026387826405466
Ni 3.2366474027012244 2.643808227886682 1.7351011511999266 0.440412488026777 -0.7043182298106451 -0.29892442395089813
Ni 0.49122876472565424 7.140851352725515 5.9894082963819715 0.6515147128563683 -1.0835739438224437 -0.45189169231097015
Ni 7.675936169037022 0.3413338478844058 0.4136227427700678 0.6260204252400057 1.1262018057952992 -0.34810499944060697
Ni 6.498362060036588 8.69062435662067 3.2727718224229614 0.8382847886984983 2.5403262851143538 1.709705697829333
Ni 4.2704783655628935 4.135090970968843 6.125091914943827 -0.5390572316848845 0.7912287157509599 1.5969692519648497
Ni 2.9777122570062455 0.18489312657217638 9.007828060913743 1.2120182873404868 -1.0455694395542123 -0.054045616891494015
Ni 0.4383043473329132 3.7336236576198423 4.830306266883395 0.16455060232229726 -0.5714844989756546 -1.25438132568773
Ni 5.810023258871543 2.51445709527811 1.3692393998680463 0.45588358707918264 -1.2330866779750118 0.6024642351866205
Ni 2.932160835541755 6.32607708253439 4.184147709385703 0.04590627561381126 -0.14276641656767025 -0.215164567824423
Ni -0.10473752914525428 7.179062381528651 13.483629691608305 -0.2772875624074128 -0.6988093841772739 0.5855114093823659
P 3.2099220390649004 5.230318543006885 10.911538404153724 -0.8266451475770409 0.5942140793626863 -0.4349463227058832
P 3.1359498840854485 5.04456375866672 1.005414886956265 -0.6158064608214814 0.25975032485459776 -1.3422950560815787
P 1.941319608888393 5.193905351492632 5.730053034304977 -0.31670128831834493 -0.1332708183724092 -0.07642115637321678
P 6.4737698815772315 6.77913207933336 13.899896093562754 0.18161861354817754 0.8714587043473055 -0.6927598355490844
P 1.694904117681814 8.477669132469398 1.4730193244884437 1.4393002072537342 -0.738398973544438 -3.44955912288664
P 4.569142920776493 1.5515242650884729 13.238195092974369 -0.3507812607211894 0.8707709342516616 0.0018391100912678003
P 0.03920030507297944 1.6715601785836518 4.182007072033446 -0.9330068002634319 1.016280717892424 1.0583984729980804
P 8.268179169828308 2.572118301590011 7.209507312156953 0.5443092241124432 -0.05213374458076183 -0.49624373606378414
Ni 5.0393379207441065 3.216927083838172 10.231976402437317 0.758645639608616 -1.2890433958462897 2.9181506659962646
Ni 5.887516566675858 6.918441181174149 10.675074361525981 1.1010456182446458 0.1847399327859786 1.010900170306801
Ni 1.5753246499231912 3.265813353745257 10.905389428016973 0.37237132818713936 0.9221881123813731 3.7395618188678763
Ni 4.44857603979185 7.198279678559581 9.100060839921179 -1.2456452313663129 1.9598529523765278 -1.7519473801073633
Ni 8.138828037219735 1.3426211612515264 2.5726641734300557 -3.627882867733629 -2.6118235218233923 -1.920851631412666
Ni 7.062007338149758 3.792756668551659 5.876247946114386 -0.30100084686395256 -0.16063146977354917 1.0675701121950196
Ni 9.120186370815663 3.1635229326610914 2.482898995965758 1.822175777406307 1.2855225271772248 0.6687984396374804
Ni 3.4674692171119834 1.3626488823453209 11.099220507328448 2.0993720656514943 0.05184552391638167 -0.5183896760332041
Ni 6.750217639205388 6.191574633756111 7.428425208062708 -0.8012110237746524 -0.24084551753029487 0.7765880830196497
Ni 8.88614149059167 7.496580940227758 10.253231869410255 -1.0854292518636275 -1.1953572817450382 -0.03042772036223792
Ni 0.24389386139258346 0.1495493222121415 5.619579193229697 1.7710141669308275 -0.19911419922977966 -0.18515670860842304
Ni 5.238823338057412 3.269660539239088 4.2462494806489595 1.372462323693578 -3.606708033428227 -1.038074673839064
Ni 7.921522605742508 0.446990789156152 10.660594784936125 0.9105896089104962 -1.4257119270463383 -1.586222812081623
Ni 8.519075281428428 7.723909547470995 7.881392641802012 1.443176659490005 0.14041462850604206 0.6080414721640819
Ni 3.890985654102386 2.792963516330327 8.09138003714376 -1.1187823734027764 -1.224122012582556 0.31745822108902744
Ni 2.572518856011887 6.13979133070476 7.75453053574054 -1.1313355274774386 0.8179000543945592 -1.1080495603663045
Ni 5.587613087320177 1.0299465164913848 9.752791284503369 0.08410386972945515 -1.6111288312946832 -0.6220876658445028
Ni 7.372912091278355 8.133918916746978 12.239234721341774 0.4271358255225289 -1.2174466574449097 0.2829774137033384
Ni 5.3077932203729725 5.444549952176692 4.163002161998302 -0.5067631475378692 -0.43718703911094386 -0.19222492830911408
Ni 4.483787568040475 4.923046725332512 9.132618462244398 -0.732164562598952 0.8742830611699781 -0.9434336520237107
Ni 7.0524685537776435 1.5405323065346692 4.6426381365373395 1.2077607976157136 1.2555223812707088 -0.1961918833766621
Ni 1.7526771066230762 4.2837432375803655 2.488993943831651 -0.022676101441277078 0.8828067823702731 0.0005874970723538269
Ni 8.142926733629627 3.1315996767594942 0.4532217392211004 -0.20504496289191781 0.8629097863360299 -0.33860117371522974
Ni 1.424883861241898 3.335938323230878 6.968203081677893 1.148583515924609 -1.1144395230530484 1.5047957178533826
P 2.0892452884090704 1.6697157651992 5.008813810753341 1.0377190902718578 0.4386931913428251 -0.25432658273586517
P 8.687792530010197 5.682581746181217 8.55376981501626 0.02451983951823519 0.23870687392073725 2.48125853241792
P 5.4216065675004055 2.1395102107449375 6.230166655020986 -0.5139331829237471 0.5038063789023904 0.5338312073992548
P 8.694108248569078 7.915113734992495 4.116142883770292 -1.0798962378605401 0.27854380341201707 0.9133316904320076
P 1.4990330053845045 8.198510646079242 7.868290786119026 -0.04079440830854265 0.20034755741624852 -0.07165124578839918
P 0.46716103310238133 8.449145931544189 11.958460975957356 -0.8092917439002578 0.25604639364044934 -1.2019079383793623
P 6.677549614901812 8.646945294197971 8.231521919573284 -1.569087437952917 0.6270902612654168 1.0735425277283706
P 7.398668672126886 5.722450883986538 11.586873159436474 -0.029006928755311336 0.12434111998294715 0.21868029428716532
Ni 2.435836645961075 8.664476536569376 12.741557912031478 0.6441685569039423 -0.9199206565034351 -0.37852526360367716
Ni 1.1304670459440063 0.8147742701911252 2.4830489709934835 -0.15853139271141087 3.3191018627036253 -1.4937245476408856
Ni 6.893467078731143 4.814924977083361 9.56137284694226 0.598382351807763 -0.12091281102768854 0.8240992412267356
Ni 7.279005367396243 6.21531912727615 5.206585227749783 0.8138045441689469 1.387136123655669 -0.48046924683834674
Ni 1.4280044596448844 0.5168195346739668 10.514577793811783 -2.837601346387287 -0.3164292656038808 1.907025524162851
Ni 2.675237777175269 8.229828412738469 5.93669999207266 0.9086065170421965 0.12909431839721638 -0.17982115532812254
Ni 5.129621024391109 8.282617759454066 13.094739787106207 -0.7017365851263978 0.08448850676238352 -0.7125853549154436
Ni 2.5547174722861934 1.1311563721583973 6.995634538923013 -0.7653042825757141 0.013917381412040547 -0.630897807936965
Ni 5.369702166600581 0.2238186326813107 5.228085684985405 -2.198898697693923 -1.3707846788808393 -1.0023628222597512
Ni 2.058365337048173 6.154071561605591 12.864193703181204 0.9457705276870033 -0.7813901323939834 -0.3354562003283449
Ni 3.6635266337915615 7.306010187605969 1.855596304997396 -0.5267293062471509 -1.1612968497262193 -0.008562801968346544
Ni 3.72864933061329 0.13487412602090254 1.0321691277718403 -0.017087551609906056 1.1630356867941969 0.47245151874019276
Ni 6.1994087330304755 3.4339344283037696 13.017191519509124 -1.206696103796625 1.4926624249249583 -2.156980717303898
Ni 3.264294973029774 0.44162335990301504 3.407541617989794 0.4856099104990217 0.27350521254684507 1.2757423078620094
Ni 0.04588583783066144 5.8789558803106505 3.8155864075547625 0.6008971478098167 0.36882320582456485 0.7266611162822194
Ni 5.955601503175646 6.928855596142921 2.3262887376656645 -0.7607063787923867 -1.5769321308083166 -0.3677921934568892
Ni 9.11449477193738 4.905375754674405 6.728494548232956 -0.8208061722977605 0.42858078549917156 -0.6760715762601259
Ni 4.628574018719939 -0.15882262283952403 7.3200090988895745 0.8152286782099832 -0.048884898626160966 1.1696789031423276
Ni 6.45638768271164 1.2541172644551817 12.39433311957976 -0.43707288213058276 -0.5123108168289758 -1.44017978164521
Ni 1.911697212107804 7.284165998785062 10.25312288134663 1.5136927632326964 0.05986685155896142 0.2019555253333167
Ni 6.726100536920815 4.969399255640754 1.3632739335478297 2.1336456421223833 -0.557637308679917 -1.2841444158827755
Ni 8.444134343661183 8.305374839748085 1.9402623315190228 1.3489675830057477 -1.638634750024436 1.0859753541750847
Ni 2.4126976416834074 1.6693152107773241 13.066136475296622 -1.273350667701381 0.12433494933536005 1.0467454621401844
Ni 6.21279470289642 2.9344523794436497 8.167293483786441 1.257962358170769 0.08492096631411182 -0.32973575290479984
P 1.756328672515526 2.248228133017345 9.308916436140645 1.0803461809137653 -1.436000967677172 -5.240603211885149
P 5.186518382735712 7.298474175343234 4.779616570555958 -0.3039118498631605 3.1435893620531856 0.6602261245874371
P 4.136199482043337 8.370972612744596 10.931348149120264 -0.6457369298323266 1.1540990464261995 0.49918662074219183
P 5.2232855525762725 1.1928417531272841 2.92950040896297 0.618922894963276 -0.06331418667761354 0.857117090913653
P 4.5743594434799935 6.009350317459922 7.242664834591075 1.3594882800314136 0.12133190084297812 -0.872039002330808
P 7.270174539676747 2.4377369506602067 10.434465977914693 -2.1199051526078394 1.1265959559099243 -0.9639978493283075
P 0.30004507068620373 1.6912525517893642 0.4817663651502698 0.5462306095048721 -0.42855610290882323 0.08098306471228633
P 8.894711492175992 5.164450628656084 1.893048143442792 -1.493387733126757 -0.4081937372023874 -1.1434503084631018
