# total energy = -381172.6273933532 ev
CRYSTAL
PRIMVEC
9.19190690044582 0.00000000000000 0.00000000000000

0.00000000000000 9.19190690044582 0.00000000000000

0.00000000000000 0.00000000000000 13.45328488098667

PRIMCOORD
 96 1
Ni 7.159714291720617 7.161534289319534 6.136164187522235 -0.580511127954297 -2.02915498120646 0.6609216079925649
Ni 2.9079701029731324 7.178318711620661 3.3969409528341723 1.0293990004419369 -0.2868664643450995 0.3960648151493373
Ni 5.774098644985298 7.142461082159163 1.9281652036889299 0.22174839168952776 -0.22413926051920754 0.47890061679964624
Ni 0.7598361288780886 8.918889041587247 11.598736233396693 -1.4337728496776017 0.6622470116722078 -0.9968375215661477
Ni 5.756863819237974 7.88739161454026 4.301243527484503 -0.8346801020663754 1.9789606197402563 -0.3479430199414459
Ni 1.4864416753339251 5.7577002827809105 8.338103908814361 -0.3098624110196405 0.21858799168367518 0.4957220592323591
Ni 8.231665301761721 6.454198656835264 1.1966815121535708 0.1625464274080749 -0.4870864950445482 1.0522347673895296
Ni 4.4911749839828286 0.5805424664263633 7.147205944586239 -0.27160773841381614 0.7732888434430876 0.5755080183127508
Ni 1.0554699206731306 4.2035050604691095 2.794556676839388 -0.14556943323410415 -0.13050379715023333 -0.9583925873263882
Ni 4.556382372703634 3.8790123572520434 12.189335565343134 -2.2152084905975395 0.3950222328174358 -0.8914575160667356
Ni 4.587717583889034 4.128793239842847 9.158714169635692 0.7188416202378007 0.1255053154943774 -0.79081296836978
Ni 6.76040865689957 9.402677494244905 6.125899584902482 0.042077131675708174 -0.9035224176510698 2.4633538842233573
Ni 2.666204563343217 8.34932171219678 10.13839589736522 0.6585073421241175 0.14887767167173072 0.786923917728019
Ni 7.3118035860220605 0.7661619993203861 4.16171957014124 -1.3582580071687382 -0.12394979808179943 -3.303204474747079
Ni 4.186840132959832 0.9290995823402252 11.447010019424326 0.11530549214324012 0.3056067210670801 -0.15716279449865836
Ni 8.837770461736513 8.17411477162626 4.782548326853133 -0.6377320572499791 2.0097706631425774 -0.0787426054175418
Ni 7.78622548538024 7.595493413776531 11.032527626847864 -1.410306134014229 -0.6441675284626777 0.1412561505707309
Ni 4.036727098677414 6.306806427044157 11.833724579947406 1.5380094856011899 1.2494460931696418 0.5023436783139348
Ni 5.233026227497071 0.33381329698121864 2.130274098667285 -0.32528645888419466 -0.6245204436557115 0.8639744801551186
Ni 6.044055763584302 5.5287850292282 10.933444383828826 0.6452846727862565 0.24239666406749868 -0.8134435612851023
Ni 3.544656737753976 5.023965493205276 3.242147399474135 0.08269284831454146 -1.2414360783809717 -0.836019132592773
Ni 1.8681999595674303 5.228356738707929 4.827617166384705 1.2318479204719042 -0.48163807033546735 0.2565161341880163
Ni 4.3686836304314545 8.263800208861797 13.227915356783887 1.0993438050621906 0.8341779656189763 0.4276970973426376
Ni 0.8618515902509368 2.465618767365572 7.021968968394479 1.3648783406987333 -0.017393769996415204 0.7433411480410617
P 3.7707316920235283 8.323143160874979 5.757050414951399 0.9763157474637121 -3.066328997608126 -0.33713795890614195
Ni 3.2425555201478318 5.159095718971353 6.920289011629511 0.44718837329802985 -0.2829537595542546 -0.007310931839116441
P 8.21757410823071 2.5721529702516923 11.432547472847878 1.0537018388533594 -0.8747463739596418 -1.5352512061297623
Ni 7.835567642506443 4.432806374118561 12.18262271561339 0.44719942904162335 2.0250646131871703 0.24444480484577902
P 5.709801255063951 1.9910681813084796 5.718762445261852 -0.1082167036172588 0.5275183778073496 0.1236528356666709
P 4.806291941993351 1.131293962054287 9.418698988259615 -0.10928756808393436 -0.6716459363886046 -0.10228979660986254
P 5.904347968099734 0.8607246624447386 13.602751215806562 0.5107547851957656 0.00885333662557185 -0.577064049945961
Ni 4.739999908238848 6.034643250749497 5.019285893318362 -0.16679388983051918 -0.6980910179540105 0.7413151187499684
Ni 7.077961470282381 0.7326216496300355 11.723677230180952 -0.7286493503568419 -0.26383709332946176 -0.2857603757651143
Ni 1.4331378062626043 3.4524986775178896 9.383505014488229 -0.8307080047925048 0.5344523859230215 -2.306979132843633
Ni 4.030899429598052 1.6185385717684744 0.3616601794353601 -1.9604610182741722 0.8194995376711951 0.17493477377009872
Ni 7.285266550324716 3.0508950659305336 3.3868509964486595 2.265965409435433 0.5498332392544659 1.640778535840316
Ni 7.977922707225798 2.3138511898114116 6.166837581398937 -2.598178934456764 -0.04518688094928347 0.26843268311994417
Ni 0.9628798408049783 4.118957899283042 11.434175359589132 -0.7577866340424304 -1.4119871212610777 1.98743394731859
Ni 7.37694663139341 6.347590918692623 3.8428366878060887 -0.28170651741071484 0.15566101314215128 -0.616885552818273
Ni 6.157879148773155 3.0739851364784143 10.786224961890547 0.4255952205082864 -1.2330313992570443 -2.326622103885541
Ni 5.2708233493493335 7.447319871884879 7.398257148733459 -1.9254323088048133 -0.1909514609133292 -0.3537606550644875
Ni 2.6015946485816523 4.961855777165456 12.9180727150474 -0.7313695775014823 -0.21429913450033414 1.4096476744946238
Ni 7.8665076016880375 2.253166219366704 8.955327599575268 1.9659284691466463 0.9013508639210477 0.5340451231822738
Ni 5.490923564026481 2.806087005062024 2.1197530418404122 -0.8322264983195603 -2.2021876528578392 -1.033184435626298
Ni 2.199320027778534 0.48335551383488495 6.021892237268597 -1.7444932378221631 1.3170979879906608 0.17526258942316267
Ni 6.332828715945849 2.9438920757840865 13.014586820041702 1.0920205319279 -1.817969195524127 3.1576604954342713
Ni 6.594264936695376 9.09171527822787 8.516750461008694 -0.1762285528808578 0.5484669550345587 -0.23020654975921
Ni 5.008853997990022 3.4388027359906834 4.358447522723604 0.31228284753567503 0.349928682912907 0.16546462949613439
Ni 0.4254069741234989 8.610224802336523 0.7215104723695747 0.06124959083910097 -1.0360144488759255 -1.461398324704354
Ni 1.9815361736818269 6.135138370693754 11.060994963028907 -1.516343570591982 1.4347915207501032 -2.47675447389998
Ni 7.088283981916645 4.561713678801473 5.287706125056057 -0.8974980658338607 0.21258035203701456 0.43609740559119087
Ni 9.227571664652103 6.520334428169659 12.377452539386782 0.5498188410767627 -0.5797665364787886 1.1026047352016495
Ni 3.4432700028243897 2.5772912463011606 5.803316959973573 -0.5914889671220394 0.2812216073544963 0.561256136379427
Ni 9.634956985783495 4.385118760264102 0.3601885551142154 -1.742964974103095 1.9042327919090625 -0.08220228183136812
Ni 8.97684401563358 1.4609249413208218 13.141922308616458 -0.29378247473864244 1.1799995683420452 0.1831589614521039
Ni 8.449467539672558 4.696926631731138 7.511210979513942 0.4484968076968083 -0.03344490992200692 -0.3838353629626809
P 6.944715585464677 4.3455843679765085 9.090572724179662 -0.38853919619625343 -0.12731434367865815 -0.2615110162994464
Ni 8.487117591011776 0.1526362127718258 9.79479873450376 0.724644600072823 0.003360174721484536 -0.5589202891573988
P 7.990000873109523 3.548710368769746 1.3264197652351797 -0.7409628776168723 0.08399305518320374 0.46934973988641754
Ni 8.857551445740908 5.412902656856732 10.074949678038113 -0.6059506510733241 0.453005237090123 -0.7547496469883196
P 3.09864702313445 4.394375010678797 10.481629060706895 -1.116742460154612 -0.03293608860638844 1.3165212895515843
P 1.7483007238084531 2.8904962876421134 4.494069515517673 1.8068774564863397 -0.8596892225162034 -0.306042265942602
P 8.470811147878043 -0.4721257609732825 2.3609036428876635 -0.9268649490317522 -0.3300072613986316 2.747171020219172
Ni 1.391921294982073 0.6517540088421826 8.905173797055204 0.045364801288044446 0.7836231354895601 -1.4508740281342625
Ni 5.623627126327335 4.9907275572573715 7.214835400818735 0.5147695627821135 -0.003568434077548693 -0.2863820685095132
Ni 3.6550423497004307 6.4694664144706255 1.3126089248696584 1.286455066293823 -0.13123836132341268 -0.9394227310921046
Ni 3.9667491101897494 0.5670744841943751 4.247470871152855 0.8629452675596557 0.707385298771743 -0.641740921299056
Ni 0.1067906570932399 3.827261920474748 5.0984989908344716 -2.232826460789619 1.4174350317495268 0.6899154241217538
Ni 3.9592852816527753 6.517540088421827 9.371221869076951 -0.2209400368556195 -1.0806716825739842 -0.8652062956796905
Ni 2.1316859755925055 7.7510940165768965 12.779006514675986 1.949736946988449 -0.9460939724646932 0.8993675149424318
Ni 2.6066869650957947 7.904865429871279 7.655013769596073 0.8417964013961825 -0.22457120585030355 1.230115768272146
Ni 0.2103696618578853 1.373850005691813 4.468898397210222 1.274613850684521 0.5775846983361214 0.37084743534344516
Ni 7.17389740432228 8.346904240638622 0.3011857036624464 0.5590609285003211 0.9689868179024667 -0.14465694872216378
Ni 0.005445285745447569 7.6543308109011265 7.328326958162535 0.189145518052842 0.5167066319038263 1.4110885207062085
Ni 2.610271808851238 8.941151840499257 1.5395001204866041 2.004163087147813 -0.6228865075967143 -0.92102211709773
Ni 3.0833516897778925 2.5848286100946565 8.104245247641964 1.0169949703506291 -0.9923283208418845 0.35858275904347925
Ni 4.0918141977193905 4.105013776265074 1.0560113239992732 -0.6625228910414138 0.4558645609157891 -0.17709167221210145
Ni 1.4902195491377384 6.393504494483492 1.1859591525619697 -1.1899600219888669 -0.026361520712664278 0.6569798497359975
Ni 1.7080493627697715 7.292564924534515 5.661814904229871 0.57356683542598 0.5141730668486951 -0.6600312349678117
Ni 1.9227171603713626 2.925204928720456 0.690617391914013 1.7265903893998134 -1.1744534417128354 -0.337793847322586
Ni 1.7748193756916677 8.997121362619497 3.605237839648846 -1.386223896254045 0.6176291158525169 1.7783394969476471
Ni 5.9823780671765485 4.845182900786377 2.816431577273244 -0.17706467562890796 2.251120888223433 -0.7740617170533701
Ni 7.420929906700578 1.4244882217142145 1.7561653194934717 0.9040476940269205 -0.927214361951371 -0.9380870429998167
Ni 1.8323515220129982 1.8873191262631275 10.963270283874113 0.2876161980269305 -1.206254645383832 1.2492576313079196
Ni 0.3821094150833973 6.562378211086061 3.4463814633659733 1.8448593350467517 -0.5907518318456988 -1.5635009450040749
Ni 6.154248345482387 5.373064931635986 0.25933403160370677 -0.17300798906103107 -2.3410282520085426 1.7087075955821216
Ni 5.329798625079907 8.171586997183319 10.291454018671342 0.12130721825262979 -0.009978451368950557 0.6927315534143101
Ni 1.0295487427491568 1.3645569876488564 2.098228353065742 -1.3932494356422584 0.6594982452824771 0.13395473181331125
P 0.6747429684123454 7.442733110259325 9.6046227732775 -0.2978692432135064 0.30307932665953613 0.06493963809617848
Ni 3.091789860463782 2.5531624902549086 2.8937345965011976 0.38239245986856724 -0.36817863026203046 -0.5669236190778495
P 8.989657534082523 6.105641540921402 5.637733946100358 0.03945357800993205 -1.5001620757361132 -0.11423282790435166
Ni 6.949780326257623 6.435888377961309 8.746599612319235 0.12170316813946781 1.3897877023459033 0.099143537671397
P 6.033512646180473 6.994655216550121 12.60317176685291 0.14573989737369739 1.4438724000054488 -2.2967019192873415
P 8.73740402849117 0.6861648321316113 7.475290845084402 -0.28744521966670494 -0.0036424818485937265 0.2751255217590875
P 1.8829437785000738 0.9273439280907646 13.130231122020179 1.2708654393856822 -0.0287359344821118 -0.0047241449485467026
Ni 5.845767944372966 2.406983592196413 8.04569647639922 -0.6451288639346825 0.5033428090024106 -1.048752208157568
