# total energy = -340895.4897071806 ev
CRYSTAL
PRIMVEC
9.06375756308676 0.00000000000000 0.00000000000000

0.00000000000000 9.06375756308676 0.00000000000000

0.00000000000000 0.00000000000000 13.26572537223865

PRIMCOORD
 96 1
Ni 6.394761736842895 2.0205380914314217 11.430398567681134 0.6976824696616823 0.09364831888478066 0.1837811684171351
Ni 4.64105159594932 0.345303773811287 5.991186161108891 -0.6309178625416231 -0.42609864250726615 -0.016916316139364417
Ni 2.7752499687857797 1.602862028498405 4.69641121265828 0.09072471748008247 -0.09549077141015812 1.0688160687869788
Ni 3.5093961808739804 4.302048946198426 4.857630076132135 -0.5929349555399465 -0.42480177807271363 0.18198550996929305
Ni 4.9262064637054 4.47262885819008 2.652282880156685 -0.23084212646067984 -0.6997406377422917 -0.547099899483703
Ni 6.989860848513246 5.975336368755022 2.764391587565482 0.8053908661839548 -0.20934230471569107 -0.5613798064414849
Ni 5.334003031204256 4.416533264390062 11.52640279115652 0.03156594773173919 1.0138685089065056 1.057531754122411
Ni 5.795556743125137 7.914898852655443 12.486310882302666 -1.181088944751482 -0.05987199376528398 0.048729603995219306
Ni 1.8164947875655288 6.756052165742965 0.46529251179848713 -0.7753840354092194 -1.270816588425618 -0.10949968409474045
Ni 2.546100057256928 1.5727340993028547 0.34763587855918565 0.8613604395710391 0.14942840196887813 0.33693561308734876
Ni 0.658015182822851 0.11800921339745639 4.713722989061259 -0.15266850617273062 -0.6776661744407555 0.518835505321371
Ni 8.596565910097967 2.3343344321892876 1.3618458459398257 0.6620127841742146 0.32247572890827686 0.3813408786756013
Ni 6.946146347156405 0.6797029412401533 4.83030284793581 -0.6763564544903965 0.12680783635588483 -0.42429449941899183
Ni 0.8177602793631324 7.548215488174341 2.6517789352519694 -0.43945115255477224 -0.7995534335665713 -0.06162162946653904
Ni 7.936824081513457 3.9571095354297574 3.8311414367655705 -1.5204874175570264 -0.9818328206271995 0.1656623473292373
Ni 7.5762315619238745 3.835827399278837 12.785267133267551 0.4615343576070568 0.08574757598046523 -0.47680979570888854
Ni 8.017527776326085 8.836936753138277 6.836862812891486 0.6850964054665556 -0.574008808059405 0.38403359501641604
Ni 6.941551022215928 0.6896331937150766 0.29574586813664494 0.10369181916371174 0.12600359528703461 -0.06981496391060879
Ni 1.7337698748796724 6.393719404755805 9.490697408294345 0.1268777703618718 0.21649099994533036 -1.1727755397897803
Ni 0.019915793869248685 4.853379173968262 1.287155047706116 0.13197575371006948 0.1141981180116743 1.5688560386684014
Ni 6.2977614064425405 1.947964586898097 6.936143584623249 0.8317248760927934 -0.4313046121882379 1.1921850546646435
Ni 3.4733586819324924 4.514158994042671 0.3926365270739232 0.2466230434440204 -0.2537149172937953 0.37302850215516403
Ni 5.803841017278185 5.419782430093151 4.740679509584871 0.6243453515304279 0.5548885422901862 1.0824285173640906
Ni 5.315159479821119 3.090777487183943 9.370377843166459 0.3384471646358687 -1.2070352323035987 -0.6283866114793372
P 0.18163135124199478 5.5273873565099905 12.544347932911856 0.41855425450110495 0.795521686699359 -0.8954154722732192
P 4.260999189481625 6.096156253284711 12.330279207119611 -0.1680421604153235 1.1691875653282056 0.963253000742483
P 2.4355131546952826 8.667226961845412 1.3136701632502383 0.007046622434136252 -0.7020132358265523 0.11404256627041649
P 6.338385166567226 7.810266838626132 6.0109786878791445 -0.16944803962391464 -0.4713400308435689 -1.8604541041612153
P 4.5600125421173665 1.2723249280461402 12.632949785817448 0.5466198745234908 -0.9762105893444154 -0.45288079569711676
P 4.109978865698155 6.121380689792297 8.310870842408056 -0.6166860352129572 0.7563738128553039 -0.44244674484798635
P 4.747541680220837 0.9639124591120279 3.7301893081915516 0.18980423468276345 0.11871348938352458 0.17827540810755751
P 0.02994484129851354 5.698610795268456 3.7329220310111837 1.6990451327916933 0.8148239865723967 -0.48619560779916265
Ni 1.4397869075338017 1.0391597720426713 2.6357270211107786 -1.1227035628340534 1.0231393926854704 -0.4070094870862991
Ni 1.9074495918607595 6.294570963880316 4.976451402181794 1.2384260879100542 0.8361713418999212 -1.4555518932259062
Ni 6.022812329382668 5.545125129505084 9.22234493378216 0.08017291010616515 0.7316572839452302 0.2256590395978436
Ni 8.776699022261734 2.1720387943506823 10.157698400083643 -0.253038460052061 0.33195975713931214 0.25013388481075627
Ni 2.3847651776899017 5.0964691441922865 7.218663618138309 -0.02350965308616596 0.8284438913486765 -0.46442299200876147
Ni 0.5783755731147818 -0.014956105886154487 8.95867570265606 -0.2986986810933372 -0.24192846618182848 0.09925023845259037
Ni 1.7568643284266825 1.1566079388645547 11.383544380802832 -0.6959469750278143 -0.5259433200107458 -0.020742374753673954
Ni 4.002827127145268 6.925698510734876 1.7342810707902103 0.40362128734035646 -0.43384434789095605 -0.6951221651336738
Ni 5.550998444221906 7.9942973664198895 7.9911667446557075 0.12062613302520515 -0.021066847972628235 1.3448651308016
Ni 5.344671073521694 2.8050244114474467 4.928574823482414 -0.20276593704975404 -0.2868793198609059 -1.2136501665169548
Ni 0.8219105738212078 7.1958256689222955 6.875704638335112 -0.8030817584348041 0.663428947795451 1.0776987159885891
Ni 5.163840052047439 4.686524466218297 7.034946696346406 -0.6161448179975066 -0.904604852081971 0.34741208713864036
Ni 8.068756132467255 7.091166463621147 9.085907289084947 0.1633532395800864 0.8153955428051506 0.4405001626445768
Ni 4.671351736533173 0.5506404758408998 10.467943560739577 -0.3335193883169482 -0.26204297754351646 0.2995214341049487
Ni 7.993436309478381 7.430758257595179 4.351874232712801 -0.04216403496255964 0.23150084309060132 1.6981555310978882
Ni 7.2872880436251535 6.0559766172666984 6.979588892388902 -0.27495274362664907 -0.16185737176085027 -0.2493676960686931
Ni 2.290937162337213 5.208451865374905 2.6570848587631235 -0.4528597126511943 0.9089986102742925 -0.24306206556563945
Ni 2.405158631567756 5.326026924798695 11.498876160300057 -0.8111300826605772 -0.45111290516341657 0.3993416861283961
Ni 1.1802462178483077 3.363913812788007 3.7630753387271154 0.2042767172673256 -0.32232351960112876 0.24602988994471173
Ni 3.473331490660655 2.4061918998975673 2.5868697438738066 1.0609574919745082 0.7362266484834675 -0.45799729098807573
Ni 1.0755598212753217 3.314298805442507 8.329906545445509 -0.13838577100147134 0.25152639428290874 -0.5688259783068849
Ni 3.7761063025672006 2.6424115421040755 6.913524978333388 -0.2961815710984383 -0.0014264480338814142 0.48271999054573644
Ni 4.222514476074794 6.82167376844326 6.194788059995294 -0.4323075995314555 0.5637292805102678 -0.8542629092943094
Ni 0.6143813489057937 7.479194976494403 11.495188117463213 1.1763288043586775 -1.0095241158948807 0.32748398075614565
P 0.15582683426854965 5.475261688398195 8.155515323518017 0.3045150306647981 -0.12952729216957692 -0.35087510598657634
P 8.577586402355642 1.5872995572502822 7.77176490408047 -0.08290393588408301 0.7676406440183747 1.2303579661899393
P 1.7191862894176866 3.204446067220464 10.530199790362163 1.019048253335232 0.42179615847717034 -0.9706963443944057
P 3.9620039643604428 6.127643746072118 3.754823694100272 -0.11921125495554954 0.9968583475017542 0.6801735142436415
P 7.0566969946889335 4.043795310046558 10.462345784244038 0.6954679785088668 -0.9361430318995684 -0.5016379104961619
P 6.304368885498965 7.900578116154549 10.278575386284189 0.20681902407320507 -0.1654170640876506 -0.5270301253170213
P 2.3899133918244004 8.334877109937338 5.920241413758611 0.7572575010118378 0.4209482086545782 -0.48640181027269785
P 6.980271393312014 3.9461514528793904 1.827366764421745 -0.5111538204063971 0.2874179659731953 -1.089369467458298
Ni 5.472315967282505 2.817505205220694 0.5644309825409689 -0.6935558490878184 0.520722952152071 -0.1152890370830079
Ni 1.536053073594554 1.0963430167161752 6.8739807117006375 0.036641562482433665 0.5255347717184174 0.12711302630112947
Ni 7.027040380871894 0.6219006419444906 9.181141999567343 -0.76501966145576 0.7163011132041341 -0.7270742925602381
Ni 2.6766272258324753 1.6465493385834085 9.065212918465429 0.5249624441547153 -0.45868763218688097 0.3683547508285785
Ni 6.464090416270321 1.9271179451562903 2.5668778144434143 -0.42115492534874566 -0.061990839880499686 1.0291961404025114
Ni 4.2065078807199985 7.158229203728812 10.277301928386482 -0.31546150237397286 -0.49167642840807574 0.3780125856333167
Ni 8.142145375155694 7.202659741910697 0.3701747237849904 0.25537842103914726 -0.28793887147367186 -0.1951205046893543
Ni 7.693715983774874 3.654153448377631 8.2833704964477 -0.34979575687946857 0.370637119104852 -0.4524717331841562
Ni 3.1289449690860076 8.243024993671481 12.435781341847711 0.7267194803239807 0.40077944701618723 -0.6794039830674686
Ni 0.035095774560195615 4.807969750000239 10.309882510301742 0.15074892055251454 -0.3100462448956725 0.6923284044386205
Ni 8.669302562262313 2.4806053471585385 5.664477591731295 0.34988471704884905 -0.0036671644389420716 1.2906400509094482
Ni 3.710502827381463 2.924258138453302 11.480224760571236 -1.3771098497679186 -0.9125264209218931 -0.06631106452240838
Ni 1.119926913156254 3.314507271859925 12.692751549968868 -0.5941089212433898 0.7218523820396665 -0.41076689724620224
Ni 3.040228912838701 8.151825467929717 8.193402735320158 0.07557192099904404 0.5173334668545477 -0.740788299712221
Ni 5.547708300329612 7.9505738013057705 3.7848310753240106 -0.50027856825479 -0.453001123325065 -0.2640240125292872
Ni 2.9332947044605118 8.450929458138248 3.4558275626033605 1.290165425265875 -0.6302372915348307 1.3244883669174607
Ni 3.3785245895218297 4.399584038278245 9.269650495772959 -0.5259944849636554 -0.9484467889675858 0.9870295343367904
Ni 7.248721756402811 6.271376809003237 11.404410962810651 0.6576771329133383 -1.0553748556804081 0.24004461889555437
Ni 0.4252569895212112 9.161464582514533 0.5424423073820024 0.09832566975579195 0.06593414079896387 -0.9450524185740564
Ni 4.652227208674385 0.15893479663953466 1.3002730236160798 0.2780401243027211 0.5963393532358052 0.43279713757336435
Ni 5.95891284056539 5.594078482569214 0.5929908817272441 -0.31673265577691256 0.056451398119509236 -1.211538519490591
Ni 8.020002182063266 -0.14445272525907432 11.207096592348725 -0.3282062036341509 0.99027580918823 0.7174501392069128
Ni 0.1881010611877781 5.033050034510799 5.916393848793655 -0.7166839504648497 -1.6713111572115347 -0.12979468689835064
Ni 7.853809128594671 8.913172015612336 2.442153263277912 0.26339923446109476 0.24169860955920955 0.2704700252649471
P 8.50262006590065 1.6581872029297042 3.667283207172058 0.4270309245135484 -0.06294857580807868 -1.1903472301249562
P 1.8515624644781594 3.435408730205125 1.527335551843567 -0.3404521108810395 -0.6950218921103837 -0.13020092119783383
P 4.702875484349697 1.1042103580343874 8.328314949667309 0.17150723614578847 0.35789781716131264 -0.8344016515940081
P 8.625216446857031 1.6763691000314713 12.400879531693286 -0.6188622169286697 -0.4791176179064587 0.32711836988661086
P 6.361579321444306 7.615414184641192 1.4905366972906384 -1.2790238068267585 0.9503195805102667 -0.09423221641270868
P 1.853610873623224 3.347526539627491 6.049834108958688 -0.17265986169299297 -1.0188615912457226 -0.6471464085853434
P 6.882781620018591 3.883094893489065 6.054238188620578 1.1415682609490403 0.8704582881072493 -0.5475182179680441
P 2.2182367652019823 8.400607477724982 10.212844112120814 0.5414517000589901 0.47778604357922877 1.0094323275120227
