# total energy = -381164.56695981184 ev
CRYSTAL
PRIMVEC
9.28640969284429 0.00000000000000 0.00000000000000

0.00000000000000 9.28640969284429 0.00000000000000

0.00000000000000 0.00000000000000 13.59159927016214

PRIMCOORD
 96 1
Ni 5.970808519978803 3.1804374354128244 1.5985356261869956 -0.3079425682891083 1.02939745778004 -0.582302415526765
Ni 0.6511974042205256 3.0189653444566074 12.622939557075645 0.3830241799152952 -0.6279693214362605 -1.0169746586356552
Ni 1.134464948215743 1.3360078968022844 8.53336354578264 0.7170917274262295 0.6432558152816856 -0.7174231426237193
Ni 4.416588569272148 9.446878806529837 -0.09343613931246128 0.19817986034096838 0.10176657711654086 0.8608472473800464
Ni 7.949231663397674 7.26340245167755 1.36064102703408 -0.04662438472675841 -0.4340798609405298 -0.5069860621819526
Ni 8.040414919729574 1.0632196133977017 11.583331568848479 2.9323704091400726 0.45589798525688574 1.9054748918462794
Ni 1.9717833605206827 8.884094522643268 4.029542158842772 -0.18324457918737472 0.6991282009692733 0.5585485076402767
Ni 9.281627146846958 8.955646308979688 9.537170567535549 -0.42951306750545376 -0.747122726570681 -0.3616842807869384
Ni 4.777272719993306 4.225511404358695 7.639769491011938 1.2649603867551569 -0.5325191734560506 0.5373441056485198
Ni 0.0773409341108673 3.7348268049777666 4.094456019562932 0.16446781280050385 -1.7908471424963546 0.06748528733616764
Ni 3.307206213515155 2.2480911931817875 1.237267360298991 0.8359445706010957 0.3296352227711936 0.8147723073988548
Ni 3.958452835706814 0.26335979168915563 2.8411064550358542 -2.817694580161031 0.13449337792560062 1.6137035340003951
Ni 8.501633741297983 6.6865678299938365 6.277701142814989 0.5811325635883798 1.981253529539491 -2.4142293587825647
Ni 3.6277916473770446 1.943478383914141 7.976148321761867 0.6073768419968895 -0.20550699013000093 -0.6112162703476377
Ni 5.850809534509731 1.6770234318893684 12.020668530725601 -0.7203536860069529 0.23691378657605652 -0.04631276702361056
Ni 7.017080435769241 4.52332656176414 6.309668679386629 0.20689281473393398 0.21468171465073346 -0.39318697938090996
Ni 7.41355440927308 8.1300102000117 11.05067704106425 -0.28234672209787504 0.17234284467320643 1.1652326944455158
Ni 4.741111440824711 8.934649736765977 7.8219521327647135 0.549033626171306 1.320215964794352 0.7051268417548695
Ni 8.525694828695475 5.476520793654523 7.924228934061896 -0.2714413880392809 -2.2851355546059806 0.47188896136850345
Ni 0.5161553637629562 4.702554267966981 6.098577444400203 0.033815662997864336 0.33321959768834225 -0.22383355635333063
Ni 4.287674630541172 8.506973426845478 5.506745271135268 0.43465321694549663 0.32121100326324037 -0.9539582057041185
Ni 6.181415004381613 5.5294347558277765 1.4291022962397062 -0.20138885419656927 0.22665097119746772 -0.09795491667993453
Ni 1.0792943884980706 5.294971485039729 -0.4561763011296449 0.9347739194661837 -0.6324512684670139 2.264373896578597
Ni 3.4253757762836083 5.590010005960478 9.298121667663409 -0.41452996383306023 0.4435248084035136 -0.7649571836489406
P 0.2728746470143074 8.254225215460881 7.325708688568604 0.9249487058456457 -1.2765550335712919 3.5319089860394657
Ni 3.3630639675467657 2.350297417765646 12.279479838969257 -0.3606108452171015 1.0807357030427 1.0668550884058658
P 5.184435351001779 4.554909640976361 4.0703847171148295 0.7465833091274432 1.039070976314062 0.22440125593134258
Ni 9.362279614638236 8.469864933892806 13.161724043868398 0.006543200435156473 0.44133962782673675 0.15525812127677777
P 5.629105790577781 8.523493949608943 3.7416448869411933 0.6107429302556449 -0.9789727254705851 -0.5754879637080927
P 0.282042190618631 2.815676550856276 10.1641508726765 0.7157223578825287 -0.635760278235589 -0.025871468450123187
P 3.162226786093458 9.119189269287368 11.9431966582387 -2.3377128144820642 -0.685383083469039 -0.5912971628262075
Ni 2.4008340590690582 9.090169239137945 6.847814261195613 -1.1701625276469654 2.014532346197279 -0.37828357990651623
Ni 3.930008562955555 1.2277283603087548 10.433713057369431 1.4654542399412827 1.589589928781643 -2.157930739921993
Ni 1.6971935136444238 1.08626848214358 10.902868044622863 -1.7120695700758193 0.07824921072089104 0.2667630087270051
Ni 8.160144599318862 8.048169071785502 3.666279172162416 0.3758978532831591 0.01114624642480661 1.5494840618996928
Ni 1.35124689503435 5.991331485300475 8.448973298108116 -1.6075074324920122 0.18448925022775323 0.10647863788022953
Ni 1.5592531847357711 7.20044059426536 10.355384977913001 0.13507213324720607 0.03938724354837087 1.200883867990222
Ni 0.3210023936550765 4.895683729412601 11.037846008853863 0.8549056850846309 0.6986875138874289 -1.8018108405967097
Ni 7.699975142040656 3.580430958173185 11.04820314153407 -1.3763323481719458 -0.7057526482643265 -0.5017343268647102
Ni 0.08276048278133248 0.1599342615185391 5.804605003307024 -0.4470492766170042 1.3944023182997793 -0.9850438713653294
Ni 2.4266595642996336 7.18802466456623 12.833486608456708 -1.940192240722807 1.8662676255191988 -2.5590151197731092
Ni 7.124032015683134 1.0846155012262688 9.629593559555431 -1.661942828622757 -0.5747891378688552 -0.1778493763137324
Ni 7.397813944920032 0.47522458459924427 2.4024647526032146 1.5862156129927716 -1.025570370724466 -1.033774246691497
Ni 6.958836074458143 3.0906657133473914 3.7524096930049406 -0.14667140804903125 0.08142452312507913 0.3562625955507348
Ni 6.735897238043034 4.9618586845629356 9.171678842539716 -0.5939770236512157 -0.9753662390662492 0.01212120874356622
Ni 2.5744992058928577 4.5717459016678506 7.179884197868955 -0.03357192241817444 0.6412580681253666 0.5956243294466516
Ni 9.154914087202515 2.0147144323225343 1.1117318173978905 -0.20480045098127955 -0.2018174570935556 0.9146696925171409
Ni 2.502306657290739 3.3852956322436363 9.55310047464541 -1.2732069430346653 -0.4236200990597866 0.141754173253072
Ni 4.579397903217651 7.767570917867106 1.7059088090988985 2.8626048104101605 -0.3445545630851872 -0.5407883554433783
Ni 2.2839645936512993 7.0504929376820815 5.53638841937206 -1.708739734371638 -0.94120887645825 -1.5505664963305938
Ni 6.8179798129200755 8.860042721655427 13.245434526356703 -0.17179108593479447 -0.2599148754569201 0.6654187245319702
Ni 2.1528683486530866 2.441081358482691 4.090323567269654 0.012793552220242484 -1.2459859025351832 -3.4379773315863114
Ni 4.709964822865938 3.977137091918219 10.311769497720105 0.7849709077667062 -1.1424336942731292 0.7548910576621902
Ni 2.1893917977979456 5.046987201804461 4.1284071332353465 -1.4124488913888449 -0.3304780303874631 1.7037283971999755
Ni 2.886178972902492 8.892099407759686 9.150340530450967 -1.0166614982706104 -0.21840004404258517 0.8467133790818256
Ni 1.1663359061270462 5.971709301714641 2.2467047322213687 -0.8846165818855023 1.4863043439174144 -0.5890896136519274
P 6.602024356560124 8.18888603717885 9.031821798679754 -0.35819632223833797 0.018229378523833124 -0.5064571862616762
Ni 2.8541408596175284 4.865586475744032 11.444914847124894 -0.43101947684765124 0.543440962574877 1.3195991571459598
P 3.537824910709007 1.3590196199095717 5.562348577542529 0.5853951955194757 0.11048827326025489 0.003890593303657816
Ni 6.873930431048165 0.6048972229984467 4.939010402265451 -0.5296829895588362 -0.053575362123294834 -0.17711044126517883
P 7.32559353708897 1.624731659162519 0.10685964445837869 -1.5341453746600935 -4.015479754621272 0.9232350655886488
P 3.0541886962507716 4.233135546679551 0.10319244128845631 -0.045345518014334806 -1.3604462730693085 -0.5926148531963665
P 8.495792589629508 4.938308349696075 1.3403242200065892 0.34281546890689346 0.536394854361373 -0.9995811457495559
Ni 1.3473930350305063 3.7803673578906545 1.8810096348542502 -0.5798166729904337 -1.2563549044743332 -0.6802725017153509
Ni 4.5730181397896015 2.487318392119165 3.5103974998141836 0.558407096966406 -0.9377926516878494 0.5316699380818779
Ni 5.321019864101851 6.713321976189193 7.907307238401646 1.2434307402134972 -1.1240114830121997 0.9217785356477801
Ni 1.8362017796625751 2.546537826443285 6.242839032356124 -2.251831541137212 -0.9309375764392289 2.4058431916013987
Ni 7.5613847644566565 1.4503143131572467 7.482433566912857 -0.07498905191238052 -0.4418962716611551 -1.6188537107427667
Ni 1.7941622031869142 1.0117729039488035 13.635364366981726 -0.053109221120153705 -1.0918778357024486 -2.1638923568220667
Ni 0.5351144976999365 8.334274066625051 2.243184254323882 -3.615487322282754 0.8264888245048347 0.872367332204504
Ni 3.1007786134538624 7.098122932765729 7.529596455591219 0.8815001477437077 -0.6874376520052227 1.3820412256312649
Ni 3.2679989919820778 6.1391339812551085 0.9536984839342592 0.47027816523795785 -2.185975047653719 1.891813078088471
Ni 8.50747489296646 6.379029801687128 12.65761129613673 -1.8455548184518795 0.17716366310061749 -0.4154259932847684
Ni 3.933509539392781 6.515957911944169 3.657254639266669 0.7388532874730371 0.6284645159051241 -0.6559647782079219
Ni 6.761369859706991 6.77625597437244 4.767049311612024 -3.312011788626064 -1.1187803165202475 0.1847378759034496
Ni 5.581791533422161 1.0481756297682405 1.7604924677268292 -1.022183456530104 0.5872461326852854 -2.2367638481708125
Ni 7.597778203866445 3.500781422623871 13.4163759692308 0.46579801797941717 4.24952701828281 -0.35226735834841266
Ni 8.345492049479613 6.719376715279569 9.606488043710703 0.4785290923928404 0.46782970369746524 1.0653291386796429
Ni 6.61275015970335 8.27757124931549 6.561548611469155 0.8499655674705362 0.1383726583753488 0.8013958860919489
Ni 4.991928079002562 8.567910846954444 11.060354408558238 1.1839315564065997 -0.2346062214888024 0.06100893558320461
Ni 8.834421517437102 1.1943808632634492 3.886246357490224 2.3736378105134475 1.8846091041408641 -0.8035607549537517
Ni 9.132180956384662 3.2336764219237515 7.932356399785664 0.2200221530270404 0.05887363440775667 0.2852566966558184
Ni 8.001551295353467 5.35550030312419 3.3807332191836643 -0.42496427179250684 1.0569105755986443 -0.33905085965813864
Ni 4.483181412856633 5.975135986874685 5.876884844159831 0.5567003986879444 -0.9309941407087772 -0.31765799580465937
Ni 2.2816894232875846 8.08847208965702 1.3168983230290097 2.904999216215971 1.1971316000366414 -1.1994954722831277
Ni 5.239522333032621 6.35117985915333 10.399381200901457 0.8731427769179478 0.5046658986892083 0.2131853326108651
Ni 5.7155344051700006 2.5036717595089684 5.933929401344433 -0.5380102784776088 -0.718370337028337 0.6050962734928289
Ni 4.506991767193632 6.5581089253356035 12.666419455687683 2.5363544449508 -0.3927702035584655 -0.2528631108164613
P 0.45673534299044344 6.592626509996535 4.2644864656505765 0.38027824173904184 -0.05392683192544261 0.297404644872262
Ni 3.5648855084227415 4.324374521469339 2.5364509282838275 1.397714670502464 0.39500757752941645 -1.3027959695456919
P 6.6776993087801735 5.456666449827494 11.796882773750612 -0.31042728238417505 0.020559312208590398 0.08604119596148407
Ni 5.1442437700460335 3.950912271072788 12.694159818587638 0.2819356027023854 1.0539121550919526 0.656992705251804
P 1.5278001152586198 0.9387631512976773 2.0939627949750625 0.6808216893506016 0.8188621611975124 2.1838289478449937
P 8.06590611421283 2.5518960848100747 5.653330318785073 0.36890188158130016 0.3021424166675635 -0.006064718136841168
P 5.906072958323881 2.7881052006119114 9.062851407876966 0.11755623585062981 -0.4817848803259767 -1.3449186097473547
Ni 3.677854681788418 3.6663209610058316 5.444440891526144 1.2447785124906434 0.3724191507059393 -0.18737865596040632
