# total energy = -340888.6781239109 ev
CRYSTAL
PRIMVEC
9.08180937160986 0.00000000000000 0.00000000000000

0.00000000000000 9.08180937160986 0.00000000000000

0.00000000000000 0.00000000000000 13.29214601871493

PRIMCOORD
 96 1
Ni 6.93108231524676 2.0133099323986428 11.22383460576338 -1.587432773229324 0.7240892417899852 1.2935505396880238
Ni 4.724284439948011 0.3419437353721367 6.224273266512082 -0.9653777603949696 0.843585117865489 -1.03497212365434
Ni 2.8456849819467998 1.8376859080005077 4.758534666611197 -0.253214323508293 -0.34391898638371743 0.7124069203560505
Ni 3.388804411623171 4.522759095993382 4.5947360658436756 0.26487093391061484 -0.2760832576866665 0.04821898290738792
Ni 3.6611769483759105 2.7152974486815182 2.630462453505809 -0.36668147689121366 1.4592108301347322 -0.7443657326508342
Ni 5.305429404330918 4.572690882431532 2.7535745495001556 0.004841644363017468 0.2566881409895063 -0.48044096470357256
Ni 5.6050019593416165 3.1448034465024404 0.07519737935756322 -0.14314539717364377 0.5005387638947121 0.8752549381649444
Ni 5.8418737043179405 7.965509453677414 12.29785298278961 -0.0942720685117086 0.5865007698788287 0.09119780046175906
Ni 2.156203116796215 6.620393625896249 0.24203929435488136 0.8659174628141022 0.255421872682573 -0.8366241131666237
Ni 0.8751540031382378 0.03130227142895087 0.2409413036345517 1.0948101788578952 1.976635056930873 -0.8917069130733803
Ni 7.984871870681077 9.45053055066187 6.7297068211423 -0.0921280255855123 -2.1443370603979583 1.151260805646456
Ni 8.7226326330134 2.808985391369033 1.3632022506061152 1.2452302553160814 -0.1346255326280907 -0.13485616058165806
Ni 6.815171185688719 0.664139985034722 4.669743635391025 0.3650007467546811 1.863086656688056 -0.5043272844028669
Ni 1.3922594988252606 7.806123703952144 2.120881236659093 -0.983381653171558 -1.2547379376962002 1.672274292455752
Ni 7.9046522508905745 4.44081393247366 3.444951788210152 0.2907943386445959 -1.2024123888196065 0.7725393668715728
Ni 7.691938118123322 4.051994439425912 12.572070034970793 2.6891425074205304 -1.2960835905225225 -0.8252392683684497
Ni 8.46125816708216 7.418666482269569 8.927828844206717 0.0649792330848623 -0.11091893303977025 0.0630179955934334
Ni 7.412881369872133 0.9620360380853469 0.29938546974321434 -1.0988434683870043 -0.19490350358254174 -0.7578424269810303
Ni 2.069998584808052 6.815870484989508 9.079439657160489 0.0383271777149727 -0.5533330248776083 0.13810886319100085
Ni 0.13889264748851368 5.316436556961517 1.4475014190448559 0.5109663869859393 -0.07810780004702032 -0.5606005050732991
Ni 6.241673104568985 2.101503380579959 6.857019253845931 1.3612278884303395 0.39858269647518446 0.1972159537658023
Ni 3.548462615621476 4.402570434348696 0.17203580162226864 0.000209802017960929 -0.6021659872199113 -0.5752894745440414
Ni 6.348120989043622 5.9414103320665985 4.496440013218235 -1.2915584489586596 -0.24575401057550583 2.551138031017877
Ni 5.841574004617603 2.959834240539217 9.068792144170294 0.49369423016905306 1.3460923183404816 0.5371960101064296
P 0.5861317857603513 5.7559507084119135 12.371265786658796 0.0719410091146761 -0.3950101486325778 0.30063575021504996
P 4.2452462552893895 6.211821198053488 12.576071480060763 0.020794825258164187 1.8815014117498177 1.3752900229503604
P 2.8735298086509413 9.076169297703162 1.2005225287198564 -0.39768563858221184 -0.471734180958194 0.5992560126619679
P 6.534670429790447 8.02216177885042 5.8462311563246745 -1.3161564500129979 -1.0856110288571301 0.13758024438104047
P 5.135962846503366 1.3836590256064667 12.388053510782282 0.22783110754849792 -2.4336105915226542 0.45991713371860793
P 4.282290954613001 6.343561920874842 8.256429769157442 -0.8833631690943755 1.013747409947609 -1.784880126279642
P 4.896430131460404 1.3436536565158792 3.740915232284051 0.1328303884008809 -0.8149417430971836 0.3092718286234932
P 0.6848110907298609 5.837823217458825 3.534022539150639 -0.08660786709823148 1.074121283049976 -1.8338802103274288
Ni 0.9841774886739628 9.005294859477749 4.376146910768886 -0.7551067732174221 0.45439646101069486 0.5889186352917017
Ni 2.2668649606937885 6.669353658760575 4.8725013808406805 -0.8858257717022551 0.7148975479883881 -1.1019164508853732
Ni 6.299724028343567 5.723483240875285 8.939765065908365 -0.11073587049468672 0.46945438378508186 0.5508197715374513
Ni 8.933612140242332 2.5600439220972735 10.256804480853308 0.6547748716648788 0.7285128247789776 -0.05203655688126522
Ni 2.6509255857725313 5.351737548937708 6.837971067437168 0.22942390595691456 0.9453306119361075 1.1857202728759062
Ni 0.5663679527944179 0.34081395831995304 9.381104660988091 0.8201716240375553 -0.8764638708713808 0.26815011888251883
Ni 1.9361781277025334 1.4666031881273152 11.194818225685191 -0.1198987679408774 0.006118711303228172 0.7541078996392626
Ni 4.469276322196681 7.350044332701242 1.3850948596253596 0.06092743161299185 -0.06218290128664774 -0.6853897683372584
Ni 5.721267279454603 8.055628245388174 7.97750743168095 0.411376248695427 -0.38673402466671464 0.3915643561758224
Ni 5.42433753089234 3.155983153505962 4.86322431284385 -0.18475921605968826 -0.0476620819626534 -1.0551077180619506
Ni 0.5700606163749475 7.585036143193627 6.492375536625459 1.8650844038443752 1.538885203337924 0.7270341833509221
Ni 5.2352451835971925 4.716092648138769 6.815694297892946 0.8614355157833488 0.5650276876067172 0.15119140740657186
Ni 1.0772297047243966 7.65787225218489 11.313051573830398 -0.06292595010025936 -0.06814400396608909 0.130087278438105
Ni 4.823675758751052 0.29365757274311594 10.342087209217706 0.18098920749429476 0.865492973682174 0.0010060726670111707
Ni 8.274844953471854 7.457255089140376 4.679406680274653 -0.270255852371612 0.4533523360168966 -2.108576357858581
Ni 7.677098442052036 6.400150673384139 6.758458012394737 -2.3755990480048763 -0.9051478690696346 0.9993682584078015
Ni 3.031971050229691 5.418724972867826 2.184006167178491 -1.4862439229931241 -0.3942830406585661 0.9042811501939652
Ni 2.7306184606351667 5.434118639294284 11.21713495518946 -0.5112132128894228 0.18400562572311538 0.6385913199264809
Ni 1.1751316068348474 3.5944801423370283 3.6368104545575113 0.2094757449697618 -0.12672633238567207 0.26535970062157527
Ni 1.5126933693156768 1.3730423907672167 2.5487425188517965 -0.581830618096669 0.37576878390446256 -0.9439746121288453
Ni 1.2228111046159111 3.808892573406196 8.19862223786677 -0.2270636332548541 -0.20881265746446617 0.28167797816562457
Ni 3.8504690954712837 2.8299825340109033 6.746866899438933 -0.11968716615070356 -0.5558521917550362 1.1791061099934983
Ni 4.387866985413927 7.049518187734923 5.8536482698175885 0.7176751107335253 -0.09495675328355906 0.6041745330095079
Ni 8.53689147327658 7.432498077530628 0.0438097389230615 -0.20551393210853638 -0.8310581890430719 0.513480925877677
P 0.5374569217018011 5.873051554962205 7.737025667586916 -0.0970822842669941 -0.6356926582224472 1.379921865295417
P 8.66317402882814 1.8533611105091012 8.22866213783066 -0.5338852005656418 0.9295782341978571 -0.9522797895604308
P 2.354713300129261 3.498367356619505 10.31907844585993 -0.8576904469186197 -0.279729339079686 -0.47037046784144804
P 4.061003594054259 6.579525484941052 3.61910546771481 1.5073853329574296 -0.146312996268348 0.0805061250758678
P 7.272930691623335 4.335528519563971 10.43420127438799 0.530230377421874 -0.7936535231423686 -1.1211076791018435
P 6.60294747061293 7.623869958910166 10.073984030923418 -1.0108387209412464 2.1398653977798503 -0.3912123721530424
P 2.5767635326524996 8.655608881846877 5.8472682989240266 0.36708282609469034 0.3541149530801127 0.4101554889144485
P 7.025732929698997 4.237272426898575 1.4149622052163278 -0.03763118008921261 0.3090090618804097 0.5777914150302889
Ni 3.056364789475393 1.937731117058831 0.19328995946170163 -0.27117836418588137 0.28265268337406807 -0.2384970719027763
Ni 1.2429727208204753 0.9222940414586929 7.027690059560297 0.8544488000528704 0.05176144884300764 -0.9213759008927228
Ni 6.977399541662652 0.7780858111032731 9.22381862552701 0.43401172670675575 -0.45783762548175994 -1.1737700424925654
Ni 2.488352121052756 1.857620478977543 8.800423777050254 1.3898512085939871 0.5658049320923739 0.7688020113163276
Ni 6.655703699681539 2.2928661801503956 2.5227957902497966 -0.016083535825423913 -0.21749578706076092 0.7679142093947355
Ni 4.438697870953091 7.045821891430752 10.475154784348737 -0.6106061475674646 0.3978872130700567 -1.1358755814396375
Ni 7.812008716249692 6.456158190110962 11.270635892604362 0.3967392155085425 -1.3874762806039072 -0.10869672857747086
Ni 7.840707233009343 4.194124751858988 8.004769206240796 0.5760559203964207 -1.148933700175176 -0.2131927888100328
Ni 3.4115543434215647 8.828408463614553 12.364633341472222 0.5291294310482113 -0.507770505756461 0.403038418253693
Ni 0.542150400645278 4.928507081205683 10.348519854604055 -0.895389247020974 0.1860509382879183 -0.7654742324946753
Ni -0.41306156608146116 2.291449417930615 5.81435673092235 0.6637878737967665 2.627860263571281 0.21713608972849702
Ni 4.329425543847995 2.7041903961508056 10.982210350084424 -0.7305483671517676 0.6598749118956054 -0.19661354429511302
Ni 1.3063455847283345 3.510664126142469 12.366999152743075 -0.1415050333567434 1.2428175321095305 0.6151377168892309
Ni 3.2738196265934483 8.734012139817148 8.253411883993127 0.4221183177032795 -0.29590672017049685 -1.1107564177745064
Ni 5.67304287312747 8.149016488375352 3.434610332186667 -0.5426428921536138 -0.11241685774153543 -0.21266237022785958
Ni 3.2100834903215425 8.851349113404071 3.4232190190310883 1.1068395992186035 -0.42077003120550116 0.21936369350743512
Ni 3.9637555821990906 4.536690591154554 9.201873342014979 -0.6590850690044585 -1.1274958420163743 -0.3274988931544811
Ni 5.326381137927283 5.019443235735547 11.231211759296249 0.6891860021548969 -1.9369107417580576 -0.46576922162401074
Ni 8.21214414343748 -0.04181809818717822 2.2926291449328553 0.2605098287284417 -0.07094059287461976 1.1790847698372595
Ni 4.854644727785989 0.9501479499719352 1.5048167162822452 0.684783502211827 -1.2099158962855034 -0.65855233642944
Ni 6.478099840899352 5.752327066580553 -0.08254910382494819 -1.47640585385678 1.778441312632834 1.950594152782421
Ni 8.0684154326026 -0.07613462205680242 11.235438433251927 0.5132736949628773 -0.2116143885793194 0.5533839327202018
Ni 0.16769288051009634 5.3240017039427805 5.46600941195299 0.3041234516533343 -2.168137762361982 1.0814666676714537
Ni 7.103028206958928 6.458746505704791 2.4839964854078427 0.8144061823086877 0.005749757999583646 -1.91497717490976
P 8.586687032578213 1.7389938884982568 3.7920231130008006 0.725498720543002 -0.33873050020424245 -2.2708703029362183
P 1.848892860431333 3.522334250837453 1.3773053919592988 0.20304798706654706 -0.3562073168327672 0.562937894957224
P 4.765997189149616 1.305264849445297 8.336089041326403 -0.26346068382664944 -0.20990151965327075 -0.8179093103659397
P 9.135482592942806 1.7867642043703318 12.499601739248128 -1.301586779728939 -0.5044188156754087 -0.471392224237743
P 6.712737460836793 7.9128712881271195 0.9962372229793864 -0.9201255734253896 1.1456002649265689 0.9653679902029567
P 1.913001350876386 3.500410763667265 6.14467938336865 -0.3834802936161073 -1.558974260778315 -1.9356269899496277
P 7.180087357182228 4.075007743688239 5.731094705082962 -0.13708402147091228 0.9083080119651712 0.36692521747090356
P 2.647964916005555 8.741195850816162 10.298395533812958 -0.3844362297714734 -0.772863840090527 -0.7329906580446731
