# total energy = -340871.5047841749 ev
CRYSTAL
PRIMVEC
9.23572260550327 0.00000000000000 0.00000000000000

0.00000000000000 9.23572260550327 0.00000000000000

0.00000000000000 0.00000000000000 13.51741359430538

PRIMCOORD
 96 1
Ni 5.947611281169667 6.421108297629841 12.471490079904694 0.013296717108906132 0.3909858579645331 1.3788389166438833
Ni 5.018368306719251 7.733707637829438 0.9285299766804486 -0.10549879046546348 -0.09105716111883673 0.9924062252676715
Ni 4.3043176643965175 2.2800597339780966 11.320468779676798 0.9057106835516401 0.3876081997415518 -0.16643547804983597
Ni 1.081355322525221 6.843134633105142 11.56183514911134 0.46273814810717084 -0.3361174880614276 -0.21036200422945706
Ni 4.653871286129073 4.861896697667439 11.30374750425546 -0.1733147216681725 -0.9972890072812696 -0.6730986096747311
Ni 0.7329727903941154 6.235220912705642 2.628663923447016 -0.6773728115700527 0.8366392826752753 -1.1483690859209577
Ni 3.7824901125704993 1.12522500396756 9.037377881604096 -0.42732094495014145 -0.8755354455198405 0.991855237860208
Ni 4.445356381303035 5.5247999092896105 8.763730815205918 -1.2159029671068737 0.6218768353852774 -0.3658353268408345
Ni 8.18147393165838 2.7756670698852095 6.744391830542484 -0.9746548148215214 0.28960777453566255 -0.7578020606613981
Ni 4.7768911086158 7.964720762443589 8.5890592915751 -0.24717454507211625 1.2212189800031485 0.12810752900391487
Ni 0.9469847971979395 6.729313590137692 6.829970034383476 -0.20087000557862178 -0.977095305942214 0.8268963443558984
Ni 0.8672444934916217 0.8734296567888711 13.487567316443716 -0.6933182791557156 1.5674452743638037 0.7158192884717092
Ni 0.979900911863307 1.3605050323346297 6.225782927975973 0.7653860436562432 1.0896126938173556 -0.7654089264743786
Ni 1.7608828344834362 3.167040042685325 1.0942899517589044 -1.8902141090324673 1.0715206122023353 0.43363557431425964
Ni 7.0920281163029495 7.565331182592537 5.256448606120703 2.1945483911450268 1.3350807977213266 0.7197461343299411
Ni 1.7917209116067982 1.7186109330178394 11.183239798263957 0.739956290729229 2.4001032037938277 -0.2590067618203539
Ni 6.312791745218105 4.515058378323104 7.522318576189745 0.8061879081639534 0.1816381539322033 -0.037762306350438195
Ni 6.410487216859591 0.0972429212434496 6.685077250515719 -0.028650316746840983 0.2711403118590943 0.6371836409456768
Ni 7.384384909157104 4.322419680317988 0.6061561624250842 -0.013292089123215818 1.428314911886824 -0.9475908687251939
Ni 0.7222187152211766 7.814372437348888 0.4681892467917716 -0.5372741716425328 -0.7375787916359878 -0.28524075581621844
Ni 0.4355391209317809 9.052661155046366 11.485922128771277 -3.5500373202090603 0.4657291124146946 -1.2788096339334234
Ni 0.529564316487965 1.690063315051888 3.140216734093118 0.08563033367631061 0.3487014953740253 -0.3755404699437403
Ni 0.13907058446117768 7.829426664875416 9.089095156377288 -1.6343271237880175 0.46960170799622347 0.48727032892058014
Ni 7.009229864907041 7.29245252829878 8.438650934284741 1.6238514210676742 0.33887011110590026 -2.7894674669945374
P 4.241745645076128 0.343058138162367 6.964996296001791 -0.08936717501092352 -0.8395402583721542 0.25427258956947824
P 2.5751410649428808 5.421433704089051 10.974449668910134 -0.3090365726842355 -1.2170422229176396 -0.7249798719250546
P 9.016013808527799 2.2200737169322036 10.759684950729982 -1.4830644968238782 1.6998074648790145 0.5122969328719049
P 0.7460875162147725 3.1568345694234763 4.837192987368078 -2.163328256788481 -2.2143960219985734 0.01831576759005233
P 3.154387102985114 2.036920105841041 2.1652329208403165 -0.7121423538407542 0.03395398834794152 1.0277064432308622
P 2.26923546731485 5.224832881170511 7.901887372179029 0.7124092343488956 -1.2707561675013277 -0.37435082051101337
P 1.969942646931601 9.082917381657966 9.822360719171765 0.9675446861393014 -0.2686322007252599 -0.17681682128416001
P 3.810114158295559 7.044399495840183 12.971026292124558 -0.79549571855743 0.3463795321090679 -0.07449617143636202
Ni 1.4700868787163879 8.585176593874394 3.0174379639612634 1.3896987421765228 -0.26633620560223165 1.6006464437061207
Ni 2.9139350700690523 4.255137442569054 12.850261833050089 -0.4789155291979817 0.5466522704233231 -0.09086587104363705
Ni 4.23646281185823 4.119039837151305 1.4767504524344188 -2.1942496289576856 -0.18918177060741612 -0.5528807678315382
Ni 6.796050920264501 1.9819306146183706 12.591592337682446 -0.5714112225355578 0.7123233595033086 -0.21326657947076172
Ni 2.2412881713054777 4.061852243995313 5.98567261678904 -0.5391328221178263 1.4433144706194498 0.24927513635488685
Ni 5.337684173285024 0.8826820034981205 4.269786221881831 0.12057368252071492 -1.0448168776589037 1.2748771316482368
Ni 2.9285644543647713 6.747304777390256 1.7997356715132533 0.029664616943968262 -0.7328677593135637 -0.05076334659579645
Ni 1.9656757431786829 4.232288265329402 3.4656891332166726 1.8471167636223607 0.20629297636640598 -1.3662109434672278
Ni 0.5130619276877185 4.405956789506609 10.373086846415275 1.3569948241855985 0.46159117898692115 1.2185787141668238
Ni 7.202284170420558 6.816101673614251 0.9054055749130111 1.6087767861227389 0.18500681329412008 0.48651108215705247
Ni 7.432733915967766 2.972332542860612 4.233532317137882 -0.31344807148836984 -0.7586451253879838 -0.008133684850727928
Ni 4.891801966827502 0.8698859101005709 1.772930834365864 -0.7623112613856613 -1.181717065253784 0.7225653489462911
Ni 6.320328094703779 7.977392173588619 2.813852164184862 0.4146171242302279 0.46819994255269043 0.7586682653164353
Ni 5.351463871119123 6.666575327813944 4.390374278658291 -2.9151771851902377 -0.7682397110549544 0.6844207195557697
Ni 8.88270539127754 4.106119061501235 2.492015868973696 -0.40681074081193164 -0.5058761169472256 0.09426641208475378
Ni 2.125703105357926 6.880179115687293 9.320837903061745 1.6087544175252357 -0.7634469176520012 -0.563813612693958
Ni 4.436517794957704 4.822136912697067 6.048947474584748 0.15188714792201582 0.2870742094805314 -1.0728125915408815
Ni 2.719162920187477 2.024544237813097 4.528036415452109 -0.4270242396453291 -0.3508460525208538 -0.4232871412004
Ni 0.8974573122079004 3.127760515280216 7.899387262122936 1.2108245241427018 2.472722469922451 0.06996460211459563
Ni 3.350793975733067 2.299205386531774 6.924132842203553 0.3840942730510224 0.09007062883585133 0.30840048176213336
Ni 5.865875137850784 5.373380240395474 2.3659528759532322 1.5221858883053718 0.4241859988655856 0.49562024354717227
Ni 1.9221108405758383 8.809974077307348 7.6358385346066635 1.0427754217488427 0.5513982697487407 -0.055290545042188645
Ni 7.052591581616889 4.280720393641744 11.373294341139061 0.016564075006268247 0.038140001404831085 0.5260824166917714
Ni 6.150760231276127 2.758719519264853 1.5043938931765375 1.1118807611869366 -1.2027029234768318 0.8247142491029151
P 8.751715140351921 2.221329775179816 1.199446963534552 -0.2414993490642099 0.28119306810940603 0.5372232637999392
P 1.2106554362500093 5.686166451218146 0.3300967253336979 0.11879885000847928 -1.172072857295801 0.4016214833015083
P 7.802975555896288 6.045436052924879 3.3988049551035626 -0.22979877279783004 0.521331018049715 -1.0831718232880183
P 6.960760793705062 0.8497123216427813 2.7960226020744545 0.893525711449674 0.8555790570025715 0.3352538545095517
P 5.570830749775635 6.617662941936337 6.734375689590018 0.8479796473887591 -0.11085054169568007 0.14473973824395717
P 5.359665192618238 3.7720168033587913 13.109309069464256 0.17199137487105862 -0.24933478594822867 -0.28477075815833536
P 8.225546798993715 6.195156348895774 10.176652266500096 0.34782809163013645 -0.8059955896474893 0.34271956675897747
P 3.9836626180814516 8.399658637846551 3.173916038018761 -0.3577852028428483 0.06052196864445706 0.19829504576259396
Ni 7.951467500786799 3.817391907553783 9.196936992657207 -0.6253192854079231 -0.17342862153821745 -1.5510182391560319
Ni 8.222739139381403 0.6877297570295713 4.916851093144956 -0.8425286515765167 0.40022948804998815 -2.5015975010855884
Ni 8.74960015992028 8.974785543694408 6.774359902614926 0.11326686444665654 -1.7243327037138885 2.1870672522766332
Ni 6.855787572805353 1.826530349365993 10.10473923753533 0.7913480149376435 -0.44113265402225316 0.7109673596960465
Ni 4.631659373735636 2.9413836370683435 3.5456307756715053 0.4348524774404962 1.6972790420302057 0.5266976816782671
Ni 0.5097149018867283 1.2460744316881924 8.952204202404614 -0.07684641683609346 -0.8206061404718126 -0.057941352401474404
Ni 2.6998787317976656 9.016577187594741 0.9586993875014054 1.3599217680244062 -0.047653340211905024 0.6961737463266398
Ni 9.021195048799198 3.1759986934219713 12.85980510501522 0.8185777971878742 0.30346576346467735 -1.6263299645151539
Ni 2.3515072825334506 6.6592144570540395 4.593852020482508 0.7520728714871048 -0.5796145842819566 -0.17070093819440926
Ni 2.932766708060827 3.5563349779434357 9.500700826258612 -0.16053685317721386 0.39302782809522635 -0.010164599237827655
Ni 7.1692110484742395 5.184112581069612 5.275467729277378 -1.0386439160789727 -0.8008245869695111 0.6646900738960616
Ni 2.513788160980469 8.978054989427163 11.915883796940316 3.12926060413534 -1.840250889740463 1.742445354154199
Ni 2.8616516455121936 9.021324348912923 5.287200791025662 0.2641402263921774 -0.2894123706954048 -0.5159738675028598
Ni 6.063131697060357 6.619676329421481 10.243590011803176 0.4038868822969173 -1.9555494399051674 0.4524802178245884
Ni 5.811319725581331 2.10968836270087 8.086630451096765 -0.3481322531341166 0.2377617363986486 -1.421209154079978
Ni 3.269094775303819 1.8410950836048494 13.447366063942196 -0.9686898554873382 1.4606539903391618 -0.05754308852179122
Ni 6.777662596948354 0.13339523304090037 0.5202916511894159 0.988122767400969 -0.14173617553094298 0.7791509586508194
Ni 3.9875693286604217 7.184172918776679 10.84865728255625 -0.8718358851810663 1.0278134011223716 0.275464393155745
Ni 0.23041926766325874 5.233181974228168 4.7637523699168804 -0.3097263996624085 0.6812415504968397 1.0906876720490892
Ni 4.638401451094143 0.29050318336668596 12.890097350944213 1.8039669677077639 -1.590887307436828 -1.3253933952302335
Ni 8.624188285329645 8.59363651560096 2.2734802053339864 -1.4944876510591552 0.48821598066330113 -0.31929758829061133
Ni 3.4366584869687355 7.003254352508474 6.88555430612928 -0.4996640745992427 -0.22209883305041106 -0.36355501544708996
Ni 8.562918502868913 5.860823197693108 12.672939657087912 -0.43420610210574895 -0.016939970288448247 -0.09417230970905072
Ni 7.237952530363782 8.529411301969375 10.789788787921838 0.3127559305173517 0.7619039986449136 -1.0627256396185247
P 5.273265009482853 3.723141360370821 9.5121900649353 1.0600558060958452 -1.1870726731387429 0.022967150319134638
P 0.6431987978627541 8.026323030911042 5.1968911265945845 0.6362307901141042 1.4467471504500826 -1.8761285774736787
P 3.9395528078564808 5.322629945758495 3.5442112451372547 -0.5534016733320146 -1.1690813787676446 -0.6012244492422484
P 5.366167141194112 2.852305094434373 5.971655560889033 0.7971404532497045 -0.05229186742518091 -0.6281598401805117
P 5.328651636769107 0.3723824803829081 10.789721367148251 -1.1695824867737794 -0.25045193027180734 -0.5324908913212765
P 7.87309316042476 0.15452102447904897 8.653456289643492 -2.037669446435374 0.745258933889065 0.38931952600570374
P 8.623347834590435 5.194558183114093 7.061294402842808 -1.0529595613706961 -1.5275903471503949 0.1701437801393586
P 8.03501384569783 8.265749898639713 12.700609881425018 0.7040595768326198 -1.286106938925785 1.7852174550144029
