# total energy = -381173.7205558691 ev
CRYSTAL
PRIMVEC
9.20917112640903 0.00000000000000 0.00000000000000
0.00000000000000 9.20917112640903 0.00000000000000
0.00000000000000 0.00000000000000 13.47855282078305
PRIMCOORD
 96 1
Ni 2.8324186609251836 6.817475575353588 12.710504181236493 1.4319427384473984 -0.03232725137779594 0.19425430003431707
Ni 7.897628444368514 1.1164370025283143 11.005871905109139 -0.6375387102922504 1.1982942528861749 -1.6843872736692023
Ni 3.2783175087893315 8.046034234106648 7.807761670643376 -0.4553102310742158 0.3916962537679964 1.1779503991225002
Ni 7.661017215343265 4.9661467316150265 0.21375498766309733 1.6801418681292868 0.8856285680897844 1.8111298040047905
Ni 2.1082094580082185 3.598087551425214 2.4107472999765243 -1.3348900218667592 -0.2724528600229308 -0.4581749542165206
Ni 2.040503633239074 7.976597085200317 2.1262281218742833 -0.5311405479409691 -0.7123524129690313 -1.646193021987668
Ni 5.644724492511982 0.28372350573281035 6.948678633771161 -0.26318686133997254 -0.10343625150947992 0.8601959869492928
Ni 1.2218635914778744 2.233030560962651 13.422872232155612 1.7323794852777648 -2.079895444984121 0.04662104229264875
Ni 6.188682592571702 1.0997868214643027 0.09589233427280629 -1.1927028748413266 1.5615268519968397 2.036468484148738
Ni 3.5864103226701434 2.378314441751283 6.966308670623454 0.9114023346197787 1.830105573776345 1.244587993746392
Ni 8.274513765189683 1.3979613582400592 1.4745936324037539 -0.24214109641326684 0.7063612283826028 -0.6503034661570865
Ni 4.288508306154204 4.224900562454465 2.5049350167078765 -0.38152651232384616 1.2073748750312046 -1.128999166034778
Ni 1.1183617192552935 4.507778666294755 4.3806101456670845 -1.324606894773196 -0.16097548337652923 -1.8993021873766642
Ni 6.785151385345468 7.3057550278950485 6.089610331572457 -2.135068490611839 -1.804402769693602 1.5174578867020834
Ni 6.411139325858353 5.77408571674106 10.428828016604356 0.22034688335631086 -0.12262799394658234 0.2207538889867424
Ni 2.2571217521481897 0.938257963133128 9.023082146166614 -0.9735273860852974 0.297968487795532 -0.3343405986666629
Ni 4.539918672884026 1.806351252855468 3.430089250506944 -0.24367527366960612 -0.03435405199983761 -0.8148805508419451
Ni 9.002572401560608 2.5098121936390165 3.5436466164816234 1.364932076754804 -0.2826737664199906 0.3829267351054825
Ni 6.969684752690969 7.0434686302821525 13.064262511069801 -1.372173845918882 -1.650359751770848 -3.2682171600386165
Ni 6.322989141596893 3.2067806689081135 1.2452898805213661 0.2559679749940301 -0.20362314284372676 0.5412781505956034
Ni 3.5631019110147157 2.7588834309494468 9.449907880091782 -0.2414217017487391 0.6538443894308095 0.5039907269990547
Ni 3.7110748697185536 2.5930354714462474 0.48411967002673995 0.7285390500312227 -0.923717661652022 0.9182977761880314
Ni -0.03138853824036349 9.08390779932463 2.879774059745627 0.5827490161458803 0.074906005280271 0.8732952433354121
Ni 5.542871061888106 7.385073617222665 8.446806302518436 0.004131248559554176 -0.17172500858354942 -0.4531109094300519
P 4.711098742362924 0.526015872312478 1.580319519408945 -1.1817638593313196 0.5604300409337057 -0.15976629355977648
Ni 0.9253190779589375 0.24324275302093207 11.111651205305797 0.26120299814072434 -0.6669107356964643 -0.06837746013313385
P 7.262462715294429 4.223721788573827 8.895022177791711 -1.0059790788560998 0.9484591302627602 1.214843415494108
Ni 2.0433400578893592 9.098255687653019 4.199161850587315 -0.24347549895397422 -0.5331596352535269 1.2780802119665666
P 0.24106478409303456 3.8579427279092933 0.5768053709773733 0.24703313439824554 1.750712736369314 1.9417513576798109
P 5.059868464296689 7.138857222904406 11.658975257344995 -0.7687865846973598 0.7259435213899046 -0.0010104435423853564
P 4.0208529618818405 1.0356449458498995 5.3868649433711395 0.6051492382179513 -0.5665976031969984 -0.41925282323002633
Ni 8.912994795803064 1.1872923637597885 8.87696115173931 0.6705899843202644 0.4590622419174804 0.18567709988826733
Ni 2.715480608297518 5.894698228574777 3.7056856628830115 1.1178539480512362 0.615581746405185 -1.2052799401753886
Ni 0.941867958142582 2.5986806932339896 10.533664297696502 0.46397896249280735 -0.8016511966358645 0.10251142570236538
Ni 6.55799797487815 6.268295875369479 2.1484001218354085 -1.399656367609867 -1.0502920418408623 0.7605801376271676
Ni 3.1998829998721927 8.334354957973947 10.862972278677516 0.39634455117328515 0.2879764095798266 -0.022176021876406972
Ni 5.573390254391499 0.2793509913693188 11.687050335880254 -1.2677081247036233 -1.5780497893525274 -1.7083826081425353
Ni 0.4403549269567718 6.852083639755444 3.8900587906541126 -0.5899740731394097 0.11481132611564099 0.5212582558302506
Ni 5.140144807402325 7.756258461230438 0.7304677554894777 -1.572458668417995 -0.35550283456657483 -0.3071023317760001
Ni 6.183654385237106 2.638924770252646 7.734572705495076 0.08472427692227344 -1.129254476578694 1.326700029856799
Ni 5.179836334164432 5.064758534067149 0.19890704135252993 -1.1579320470190446 0.9134525322805882 0.21734949129088377
Ni 2.556907893838881 4.70274602431809 0.23092917055373632 0.12244904516655686 -1.1692076199328636 -0.6004528611835466
Ni 6.558780754408261 3.816400157787746 12.311256230615687 -3.158225881019438 -0.5895128172322751 -1.807677326679816
Ni 1.4113146561066616 6.3221418978701855 7.865813521513513 1.2381301539361902 0.45226964447567913 1.1158708561829362
Ni 5.079005121515172 4.41686573075055 8.574071519441002 -0.5896876522472425 1.2496944617350219 0.4770257683744365
Ni 3.1441306789863925 0.05495204393089807 13.25629122264539 -0.07631522692297178 -0.7372746301320077 1.6692414191666993
Ni 8.21107178656691 3.7100066058892254 10.740869722985305 -1.268999332711221 -0.1447623639517765 0.05733560049667546
Ni 3.9533405297024884 7.988891328408533 5.526071692254826 -0.07334534566137045 0.8378003928629121 0.5240157639707298
Ni 8.483267252113919 4.834354286257134 2.6944708057093347 -1.4749277266493568 -1.0037291064796585 0.2695590834149035
Ni 6.676179265583051 8.857656887609675 2.414210869167993 -0.7659190333415777 -0.8742547790352041 -0.888323084202812
Ni 0.9044418874323257 5.842841386997647 1.6740495403444557 1.3034330889090584 0.11968588059912291 -1.2844776308524781
Ni 8.052885857287857 8.665323352475891 7.625882386363498 -1.333087935661014 0.28548758171970184 0.5468672146476066
Ni 7.100998321159851 8.102992956385913 10.02588626751852 0.5723586740504917 -0.630939716918494 1.673165436811454
Ni 1.758334635561355 4.444014366688994 6.376177629292306 0.8407101103105392 0.37588345510545584 -0.10675400302880324
Ni 8.401784507614817 3.852233041924953 7.250153737412704 0.2877655791206012 0.5034022014854362 0.11040085575277114
Ni 3.575506664274242 6.181987525296517 9.577698019758072 0.4102184809419 0.0010166141899724426 -0.5066214797536823
P 7.2737899955536856 6.2733332918750175 4.263077180596534 1.0470498807544806 -0.75164349725917 -0.21232761259626012
Ni 8.96628826804722 5.979376555390919 6.296208872496149 -0.8117646309207827 -0.35657575591577945 -1.3698860783259699
P 0.4071623121287756 1.0381958862009677 5.328327769192332 0.24949419434422837 0.05069675502391915 -1.0046127946361922
Ni 7.795903942137833 9.097380816413484 12.770659406749894 2.4591303330603136 -0.6241342639608864 1.0651866995645076
P 1.2964210394282276 8.291053436202386 9.038070071875508 -0.1749406873073697 -0.13237915979607523 -0.5074714864588035
P 0.4692137059392349 9.031332642413986 0.7012378469180325 0.7198556633246119 2.55628615087772 1.3950124410799523
P 3.5281070614332757 6.169131522660808 1.4807536468471816 0.02032945558597144 0.8320244096110833 0.42583073355786016
Ni 0.6198803471437493 5.0062434618986025 12.189126968327743 -0.7134235345460229 0.05815115441943534 -0.07363048100195706
Ni 0.6362699086700886 8.072860549062106 6.462898550223492 1.9582568115340018 0.39858732446087486 -0.5401280961515601
Ni 2.4688498012868463 4.41530938086127 10.821740978533825 1.1425789616017419 0.06261433239711152 0.841449302469409
Ni 2.4469596019565607 1.1722906242944815 2.348152565080458 0.058279709577499623 0.40236813165954577 -1.5277299580520527
Ni 0.9022141889813388 2.426192921481259 7.079663434837399 0.7496264668291412 -0.9258393359807152 0.2798931183510599
Ni 2.906856389653284 1.6645484386830949 11.791697828968077 0.7260067705276722 1.163939686665705 -2.06240577283979
Ni 4.14129049946765 8.124975247425624 3.1037328088129965 0.3378882068086052 0.23755347704258442 -1.1556445365364485
Ni 1.2826441196982707 6.726682359031635 10.55992056497062 1.5157285627158024 0.22053663076961375 -0.501944128882671
Ni 7.930146026966426 6.526484191912969 8.334517039382535 -0.160173299190208 -1.9651501962197255 0.46798088456334885
Ni 6.206631266738603 4.667032859403137 6.341955429152939 -0.1598539681775763 0.38276321294442467 -0.31557848756781137
Ni 0.48077121547205265 4.7741907724898835 9.388836342069604 0.27900145977472596 -0.5187509160273646 -0.7900766044243878
Ni 2.247544214368006 0.6131042391642694 6.5201556496412945 -0.2607173167535574 -1.0014937893912366 0.31299530022166744
Ni 5.796906042336535 2.5233588840954106 10.434785429287048 0.03955822190859639 0.022308433689213193 -0.4761094272077542
Ni 0.6084296639938642 7.513845454511423 12.885658007977073 0.7225774331311491 -1.4651382513627604 -0.5921723663423093
Ni 8.20043519412834 7.46612353068747 1.275056683758758 2.3716084387882446 0.3733177512608087 1.3807978401424672
Ni 6.064690315002094 3.6224089718843144 3.6262289359912576 2.1745827466563776 1.2697724634318197 0.22498078258389642
Ni 4.245262039408298 6.019454867332611 6.909645562731442 -0.5106246873758045 -0.6856638479342514 -0.09297314719462696
Ni 5.783055449239039 8.949196046777969 4.607750663295081 0.07931698986377309 0.2211542097489546 0.04558848726307633
Ni 8.129266721084822 8.548744457514982 4.971146390519701 0.8359466274836247 1.6517260359907553 -1.2886901262719288
Ni 4.4618156941208165 0.49660085940508897 9.385089130413107 1.7759815382384316 0.0975553672486707 -0.36247078124397575
Ni 5.066324093127371 6.3066612815158685 4.300952658848783 0.9191722083731848 -0.9385285014126094 0.4130821756429402
Ni 8.12566593524631 4.2247992615740975 4.990784947554549 -1.1312619939270259 -0.40766408995116243 -0.7654238388727141
Ni 5.957827095385506 2.2810563874277063 5.462371856845662 -1.3037117964917417 0.32748295231488117 0.550451075344123
Ni 4.169884975244064 4.062929663918051 5.002497171159201 -0.27346638888910973 0.320202616603384 0.213499007196542
Ni 7.896191813701487 1.554112060740823 6.524603679206513 0.40373133055565946 -0.24053389982714707 -0.37961104046868815
P 4.31425714810939 3.502754213828616 12.093402240966089 -0.3078595216569988 0.05860906789246035 -0.735193836343579
Ni 8.188675082834788 2.4624770549946473 12.846570602828793 0.13689273139571262 -0.09017090185914148 0.2985559848678858
P 2.5751512614759426 4.280045078058061 8.204745086129423 1.1176426033713784 0.34158905269896006 2.7910880333170964
Ni 6.997947698313453 1.4079256811998273 3.6971800726005335 1.6880374688272801 1.1042918930960852 -0.6717053288716304
P 8.599238341792622 6.8636227309463775 11.28312504733776 -2.909562152996305 -0.32491467736707264 -0.013766200546156937
P 6.711183324335434 0.717123666793818 9.10860403304109 -0.769896787042403 1.347050311378377 -0.8995963431237862
P 2.3725034548865755 6.669852565145564 5.706145058112881 -1.7246690040073844 -0.7061879360295321 0.5061494252132702
Ni 2.411458247973284 2.503927533406769 4.597170246799262 -0.5936705481543905 -0.9891656068431868 0.22872945099305125
