# total energy = -340897.37037585315 ev
CRYSTAL
PRIMVEC
8.99669919844049 0.00000000000000 0.00000000000000
0.00000000000000 8.99669919844049 0.00000000000000
0.00000000000000 0.00000000000000 13.16757867721711
PRIMCOORD
 96 1
Ni 6.1967646157921 2.002116490898075 11.301087911507127 0.08364415648421723 0.5186925519856035 0.39360581208588347
Ni 4.686011860090503 0.4409210409219146 5.938828343922014 -0.03207219794419638 -0.7462320964356116 0.10737363889067315
Ni 2.855633364306783 1.7093369018674063 4.982493590930044 -0.3845467872074087 -1.440156127496126 -1.1823600981544218
Ni 3.4389433675146144 4.3049026762129206 4.814474831353449 -1.381249582967905 1.3715686082347154 0.10214915726694021
Ni 5.072096218744043 4.622630112718686 2.66528929513428 0.03452554458069538 -0.2648945880596986 -0.3632356844344583
Ni 7.220049207143489 6.01976355152054 2.698194723241082 -0.358100420090422 -0.10022520077134997 -1.5830945508652865
Ni 4.852909630920111 4.56948660928003 11.493519214943685 0.6911564956177064 0.11086879652812519 -0.6385213859204939
Ni 5.482129791237721 7.744988624553117 12.4071646292161 -0.15402322042841216 1.3763179499942426 -0.7611920601795535
Ni 1.6486181775221402 6.512143913750803 0.4607272746818942 1.0597827549401166 -0.045011274603367644 -1.1661868308286691
Ni 2.66682863040402 1.5414764842004969 0.48494638950445396 0.41385299237069373 -0.385818969051613 -0.2692598070069298
Ni 0.6764060494042963 -0.12075729821483122 4.726884765198368 -0.6153727157181724 -0.028800469171460077 0.7332577956631308
Ni 8.794273677211045 2.0754755779200487 1.375709598487232 -0.05404124601611983 0.774151448553699 0.4065870548368998
Ni 6.953369043112913 0.40406066375270605 4.714796799865682 -0.358936285728156 1.3956788710193577 0.03986546873637005
Ni 0.7833534140185967 7.495897007876961 2.449209267618012 0.007909741765379926 -0.7955869927196556 0.9635782452923856
Ni 7.620519288160058 3.8409428874315665 3.7417254869537984 0.7672842891202204 0.2265427277543776 0.3593995985178197
Ni 7.517552063366524 3.863974437931475 12.45251339228244 0.6320879715903244 -0.47570962066617434 0.6053137888202738
Ni 7.959316994693473 8.790225162474732 6.958446780262189 -0.1441967212562936 0.16105853000863876 0.1537134024974772
Ni 6.791383470163362 0.6335673654744671 0.32114978096286073 -0.6611370664374807 -0.17933521683063952 0.3300494274904768
Ni 1.9067244870111508 6.314819305502957 9.202584381766936 -0.061331351919629865 0.13272651583316497 -1.2977854037049776
Ni 0.18402028915438376 4.726128142777648 1.2715125248837997 -0.9897531039155406 -0.4141944348705125 0.7456685106226577
Ni 6.351246941430352 2.0781475976460144 7.026523005388246 -0.06149410274973925 -0.0847849549568798 -1.094577751132115
Ni 3.4359384699103295 4.111032800540061 0.43688422189484083 -0.30534189744146767 1.1585293142834112 0.06578707369813831
Ni 5.906890960672161 5.627525450467806 4.804744001267237 -0.15284591229085934 0.07015743485169208 -0.048715977148464484
Ni 5.321574693495002 3.058625893185466 9.10070665727244 0.15262016943329845 -0.7745792801197371 0.41154439884217514
P 0.1850090264199853 5.44365090784393 12.28541679439578 -0.1812458035897911 0.8645367804164918 0.849135358259757
P 3.848338174349897 6.255818950745771 12.545727295241228 -0.3650215726902875 -1.0017529565898942 -0.2862532562411328
P 2.5171235521546165 8.524255737697862 1.3996606116672536 -0.4119449767147034 -0.7350979341956629 -0.18707860822148428
P 6.378713864741375 7.663163643382544 5.841230349338771 -1.2652776608852596 0.04207224657970173 -0.08473224734207342
P 4.674145213563403 1.012308618066278 12.568309010770436 0.18000961718984482 -0.5599582435036098 0.06577910327833833
P 4.111689559597284 6.119267047039674 8.103867863848581 -0.7007209993776901 0.11033143596741643 0.07307692249133221
P 4.9165252924766945 1.0013686315788215 3.7581453630543384 -0.36212111121404084 0.3036596246430383 0.5016967887585554
P 0.12369472057351091 5.602073787825525 3.556576112022954 1.5944930225102152 -0.6275592304820353 -0.0753304944121993
Ni 1.577256357770081 0.8770369446867975 2.828421947259118 -0.38381685101991964 2.041429170588123 -1.2382080583619772
Ni 1.760231230452555 6.5406994376909235 4.889608967169809 0.824075844187968 -0.32223687342459345 -1.155827599081532
Ni 6.039439333139016 5.602865497373959 9.037962775889078 -0.3141348131427493 0.9544824536387044 0.8865091709225248
Ni 8.377582547150986 2.2884994266453713 10.283681763552861 0.9831204290903715 0.5593139250513917 -0.0728573502813584
Ni 2.446265547569743 5.209358861703848 6.980752297119385 -0.09178066954842258 0.16705074303633163 -0.1377180555104854
Ni 0.4690591180092243 9.136957957891319 9.189455498312046 -0.09511359057639748 0.43735313237516293 -0.228407034656626
Ni 1.4281000781849331 1.0348723401966569 11.418635187371033 -0.5192857054849122 0.9812088138899553 -0.5926837587610889
Ni 3.907860337673097 6.666185401117768 1.5523651895012933 0.6266354331161853 1.0976864719644257 0.005384918460997178
Ni 5.569289815160811 7.886641656826966 7.881388484039116 -0.15586798694663478 0.2542350514633234 0.44216443772087727
Ni 5.1306737286287705 2.9551458565253315 4.847749124136226 1.851585598026992 -1.4893392740889961 -0.06466504427855316
Ni 0.9195436504082491 7.409699630791171 7.0483678912354435 -0.6644404197791008 0.10863707898412904 0.14171329271280755
Ni 5.156017430878083 4.4773963940780535 7.026114555234849 -0.541017697845365 0.03582832255251894 -0.15059028348746323
Ni 8.318150350821925 7.106267949654295 9.1330461929861 -1.2293608923839925 -0.07969237092532082 -0.6339751613107081
Ni 4.5814612162001 0.40652396005226654 10.336510382512028 -0.27396338313018626 -1.0138445976471055 0.2534336386079506
Ni 8.062994958740717 7.1357951171311305 4.692345536477978 0.8224398512464416 0.02532613746961445 0.2227776042849905
Ni 7.17120612602474 6.0180091951348045 6.983162512892402 1.0981700964690637 -0.4877680944926051 -0.2639080557767132
Ni 2.2892911361938055 5.164960150095626 2.558789966150798 -0.7427901606335982 -0.06835560575626293 0.43677669104640254
Ni 2.2413747151147 5.283239757291835 11.331570528461732 0.4437101849414423 -0.43032167944967825 0.6114024182165148
Ni 1.1808887716863092 3.237138402958583 3.8139231000814204 -0.8110382942777193 0.22388857796098213 0.007119127543284514
Ni 3.6379233684546417 2.742733783360163 2.8108037107966295 0.26705277205328204 -0.7020296908867845 -0.38790053417099
Ni 1.1481857693163222 3.4032624576385846 8.082826383259055 -0.5631060451039721 0.02899124502602749 0.6093704753881506
Ni 3.698795036689946 2.620585595415923 6.971864457768268 -0.3185313995485482 0.3389377311190421 0.9691930203760017
Ni 4.15060028456295 6.953405029910568 6.02128399372151 -0.1578485077117733 -0.1452868689966788 -0.8207866319137347
Ni 0.7322080775197966 7.250835912538289 10.997561765026402 -0.2604532644588934 0.7045964231726961 1.9027433518477297
P 0.2379303113831142 5.561381716375882 7.881625996903646 0.0042256080455733685 -0.8498763501908396 0.3381620292952821
P 8.445210736646224 1.7645586428707019 7.901324270270658 -0.19909980105207645 -0.5206015960828583 1.0097220908382996
P 1.660988639216427 3.2558785278380005 10.420795960972335 0.8272282737740204 -0.9084010858996097 -0.9489399265539206
P 3.8719005301152327 6.175577388672067 3.7631889127458416 0.19655903690809373 0.1982186839987038 0.5068829609451851
P 6.8442390792207695 4.09228367896123 10.359066007612933 -0.3642042189953147 -0.8269544512873436 0.49659751985877704
P 6.35041924508426 7.782180979930703 9.978667562989058 -0.3679739704503921 -0.2612338513786598 0.7973268582288978
P 2.429819581040902 8.41941719942621 5.844008530117822 0.9437586394632972 1.209053291174892 -0.13616099543601065
P 6.85970440551348 4.02226236742186 1.4964561006627664 0.9652268366394021 0.24608362600078265 0.39729585934296097
Ni 5.360152540582348 2.781410594141063 0.5654290631224536 -0.3122080284336816 -0.1380317300961623 -0.4591252339449318
Ni 1.3306208400339548 1.0610347420926463 6.984939361026674 0.42287139381922006 0.245840399641725 -0.22206515159899823
Ni 6.681056945249154 0.8256441989541118 9.018580286671499 0.7303025696895488 -0.5382113387448214 1.0103370987144793
Ni 2.6491231259572157 1.5064793234799336 9.10293154103753 -0.06254619816333744 0.733022539723873 0.5132456699384192
Ni 6.50958885111722 2.1054795704658273 2.6561378524903323 -0.16520134853241872 -0.9297615538532569 -0.18313170775859428
Ni 4.044574181968646 6.827118360235877 10.24931437179128 0.7676301024954134 0.5105547533698175 0.4175949759116292
Ni 8.095257122839417 7.155236984564842 0.3477134356527158 -0.3455549793252436 -1.0152684745778258 -0.44200940020025165
Ni 7.614302568864965 3.8390625772540354 8.267857001757635 0.5058725174027998 -0.035082445525429905 -0.6397737702703563
Ni 2.9352271640226766 8.388981365308558 12.261373115211796 0.8070970502417842 -0.7251788753097381 0.318141106088665
Ni 0.028565420309475998 4.891127610030897 10.14513259257685 -0.0844486546633836 -0.9247682144037236 -0.29152247505987217
Ni 8.528799070901945 2.343055411892029 5.706130512918097 0.2143652118515792 0.190231294917853 -0.03583603586200279
Ni 3.6453006619741433 2.558202481679062 11.455213967848582 -0.9678645313725655 0.17536029134329154 -0.5511576144928443
Ni 1.2602396605180242 3.3441631391878435 12.584584040010412 -1.1239767731195225 -0.23274962789603787 0.2373390470389332
Ni 3.0262197818961423 8.234562016566205 8.024217384926379 1.0249872445274864 0.10971951341503039 -0.394882621915778
Ni 5.597575438118511 7.789306365866612 3.4467848907238796 -0.5412282711942743 -0.12563232799054494 0.6636546906530119
Ni 3.177517275941828 8.354101161680378 3.524223081260173 0.7078822930128196 -0.677579271153904 1.1133334344730632
Ni 3.442515057181983 4.354312549394755 9.217858078362129 -0.7150518141780654 -0.3575707728391971 0.4200213259649347
Ni 7.118233559874951 6.149028128701274 11.314386832580942 0.3067449484365814 -0.019148805014308958 -0.18176336665615792
Ni 0.58658660113442 8.838861319506961 0.30905641761052605 0.6894775652533868 0.6688706876363125 0.0867186816444829
Ni 4.669844791243498 0.4782753368889532 1.6429844443490769 -0.22102154082583225 -0.785532436697131 -0.18449387821344357
Ni 5.904012016859673 5.685788075873043 0.2950260648743515 0.1507805451213984 -0.8470445371689993 0.9850937507666583
Ni 7.818248747881536 8.867992632209578 11.253302842239467 0.00797093402061853 -0.9923982548478715 -0.5909336088392015
Ni 0.2361318711702503 4.811029995147818 5.725381650324232 -1.0757001975013216 0.08193180177880084 0.12826050964201136
Ni 7.785734676199244 8.763486971816246 2.4436133205824877 0.4728796074165469 0.14433838904048046 0.15011591495420598
P 8.584101782199967 1.4605961564683976 3.647643402501556 -0.373144458907738 0.8794468647591047 -0.5026334416402118
P 1.8296227730329424 3.10314156188607 1.7172629940511637 -0.3063515696529046 0.555739577436572 -0.8194242043485694
P 4.63146487154326 1.0468289537178983 8.214673013171616 0.18314250639187168 0.4004405756195297 -0.835285082640226
P 8.451220531854794 1.4459315364235341 12.479243485911455 0.6650968224161771 1.8294638264272878 -0.7964287718946607
P 6.25702450846725 7.599907849802523 1.4015571159037306 -0.5362272184352571 0.24595249973955707 -0.6385787215209906
P 1.7864476125450286 3.28823065893084 5.984204097086599 0.3944095389341014 -0.5801840836321814 -0.08081774277901564
P 6.865075435063655 3.900815922031914 5.852119954309509 0.7489415249469747 0.5215112523813211 0.0024296924874151705
P 2.3824339652272233 8.442232829140181 10.075818421611425 -0.38648102811564405 0.16814397610051043 0.7323738503962806
