# total energy = -340858.5770166594 ev
CRYSTAL
PRIMVEC
9.35693740847985 0.00000000000000 0.00000000000000
0.00000000000000 9.35693740847985 0.00000000000000
0.00000000000000 0.00000000000000 13.69482371104182
PRIMCOORD
 96 1
Ni 8.161027167925619 3.003118392291697 5.6615225349589275 0.40764532089808503 -0.43196795680384964 -0.021815810323510817
Ni 5.953145522185511 5.753833400166244 5.413850953748441 -0.19017833019273053 0.8623482574056053 0.7780893501555245
Ni 0.025892516973461944 2.6090416197944712 2.275518267214042 1.3640710143060895 -2.207125456479089 0.9768561933482145
Ni 7.4701483433908775 1.163974932765158 3.5865103349671776 0.3028240161156204 0.14761705979175221 -2.1975846068681895
Ni 0.3238913212952019 8.46465978421242 12.715232897026626 1.5354062436503881 1.6078424472339277 0.7086595374984762
Ni 4.672405368506855 5.443594786126022 13.518091804725433 -2.42104689592503 -0.06926963293010005 0.3110155507874772
Ni 0.42123621878487055 1.4399765131229951 4.816044649119499 -0.6825209314298956 1.4544190651730435 -0.4551724199447709
Ni 3.9053704310612263 0.46506692030943975 3.132786829780218 0.8944196840188532 0.4742633751379509 0.42971721309645994
Ni 2.5658593540267183 5.089752844138295 12.694375348029247 -1.2678809028360616 -0.7222380475138593 0.15736334054523865
Ni 5.766109701940305 2.8061455046043786 2.885060978333231 -1.1118928453717947 0.5168282450833551 -2.7128077122479537
Ni 6.576139766407132 2.3661729545143406 10.46666635209155 0.6012596733555581 0.5177214463215858 -0.7061557972400161
Ni 6.084966055259423 8.154252745300298 7.000998991325322 -1.2166118202484402 0.33974377196010525 -2.77299903702587
Ni 8.33676916481618 6.110014576485919 10.61370781511658 1.2657599998383169 2.5000818357720105 0.2696534429009227
Ni 7.934364718097221 8.839573549062331 7.784931621891208 2.4970605324471835 0.9773128212696587 1.324272651362229
Ni 2.797378054328239 5.7007795655176725 2.2189583881487462 3.0853245648740213 -4.131266300165988 -0.4074190638198918
Ni 5.42987751600348 1.670072958950692 4.732670594753955 -1.3686663469862557 -2.1721738801045687 2.5548159940900965
Ni 5.36686790003814 7.723955268407195 13.580800127308818 -0.30049536798244375 1.0159413322751343 -0.06173835755006141
Ni 0.6895688533088505 4.700232900119704 2.5374451424434166 -0.062125051465518805 0.45180504613443473 -0.8726997758432583
Ni 8.57354646389592 8.053544028841289 3.120790300432258 -0.22970004243643666 0.10232784893664956 0.6462498649130032
Ni 1.694279355817686 5.678079635560453 8.556621635657411 0.5561573817002808 -0.11163549949082063 0.4304625759029167
Ni 5.280924430682384 5.10794273030352 10.740193022526187 1.2945910651373962 -1.3793040292057601 0.826367468435622
Ni 1.4192696108165948 6.779568940850625 3.5417551680346224 -1.40038604668704 1.5031846646125209 1.3039236553922318
Ni 6.719216695086376 6.467786432151317 3.2296779158094893 0.5349396099720851 -0.23167130723019458 0.3930833639235101
Ni 1.849735512581598 1.0769554156167063 7.590917397786936 0.5980609639126023 0.3078376672801279 0.44753470089385505
P 6.586666320900895 8.270035487794377 4.520250339232187 0.3086030846912427 -0.20291248992994732 0.02373565305404299
P 3.822926456266064 5.136771454210443 9.231078099488148 -2.3712397425949163 1.0776928024513184 -0.4937068285745433
P 3.669060978847877 3.0572482747329652 2.309878812469154 1.1822392563058415 0.20818273718995112 -0.1691456778921474
P 2.0629520434699606 4.695264366398646 4.358610182588339 0.45998938171744 0.19576970823757897 1.3267568512366632
P 4.8775000777946955 2.1682830869688985 6.873746515054838 -0.9844262923859884 -0.05190851594383318 0.816803736006587
P 3.879199077355396 7.492502066666969 5.964342033391945 -0.4977306050219557 1.0850088764967574 1.5124514346264275
P 9.272341257409972 7.8493288716622605 9.462890607621762 0.9175999787900584 0.31436389843441986 0.04031129802453703
P 5.636656474010325 8.539253288589567 9.141486360268287 2.0321413175282936 -0.7692121022705526 -0.49709245721732453
Ni 4.579350626781977 6.760798924571077 7.85057147293939 -0.4308451560533161 -1.9929348225321615 1.8422941454227366
Ni 7.760335040737645 0.26658101585621763 1.2838195217532318 0.6624575850211172 -1.62896148860073 0.001592027077468226
Ni 1.866839994016799 8.0220672916706 7.4005186942661245 -0.07294091113410019 -0.0014706710082555317 0.39684360229689075
Ni 8.686334986445107 5.21026083998291 7.144986350006562 0.8124940528876394 0.8140616544850755 0.2884430648036
Ni 9.351613230451013 6.027813882061279 12.890869160525384 -0.4471194677333074 -1.2770805670574585 2.1061101557062765
Ni 7.812649677337322 4.142222585639588 11.650569689977436 0.7243535511949654 -2.191841533736825 -0.2025214251391157
Ni 2.897806062667415 7.522622047925126 13.324391973715374 -0.9226773933129657 0.02015050680594594 -0.9584468376030914
Ni 7.293910428821943 6.634330559648661 8.45645749295088 -0.7424752004963406 -0.1710691201671054 0.5369928929566881
Ni 5.292929381273939 3.7434767014157946 8.870836012368212 1.5083428117746926 -0.11292799304999905 -1.6739041147496914
Ni 3.0319471161986193 7.857141914330966 1.907044882326849 1.34574110564865 2.3951458597885527 0.5071943215380168
Ni 4.163911966365406 2.6852258035173415 11.21795075693331 -0.8692516693936578 -0.07901128569789619 0.30532184283680963
Ni 4.531761243532835 7.303510646520256 3.9873025813845584 0.013260978774964259 1.004637991447173 0.08051075306155811
Ni 6.568420293111705 5.7719203600208635 12.503565874959746 1.7123878726471862 0.4867095713211037 2.079045438279
Ni 0.8881820121097306 8.637126853038255 5.146145234025423 0.2227480365986357 -1.4134413372091013 -0.04424791407478186
Ni 2.1578501018484118 3.5713277684591045 0.9516847386722466 -0.17577783849668438 -0.33907991312386115 -0.31565304955948864
Ni 2.889852665938793 2.6446821940760254 5.673244906043183 1.5399229005738189 -0.13711693159137675 0.7982557978010704
Ni 3.5852508912028567 6.525602947899735 11.193025747279542 0.5790160314660093 1.2507429576041944 -0.6059768763255692
Ni 1.9683440501486704 2.668149392894124 3.5069838532308197 0.5410943167195713 -0.05967633281471013 -0.2825179575684167
Ni 3.945118700829681 9.03705171136535 8.003775414888503 -0.7322560938714937 0.800978338938556 -0.9700160304979294
Ni 6.782441520610257 4.214317787750214 6.984771254917735 -2.1466029736139998 -0.4001857792962463 0.8316965939580192
Ni 7.356667407479434 7.017927562338762 1.0185044995174641 1.2201018356795699 0.8129157138060904 -0.8341031465169828
Ni 1.2299881256127203 6.141790735651095 6.152632618932806 1.413379116512598 0.2329290908966956 -2.1402086400518816
Ni 6.498767251643632 1.1622906840461558 13.195277466916657 -1.111297634989957 0.39785018918453413 0.09393551110789629
Ni 4.623225305911987 1.6425261354576768 9.17794192379109 -0.640859032914735 -1.2849782246379804 -1.2710443881657079
P 9.138911331115679 7.474143755629844 6.571981543458661 -1.5816866147741664 0.6244988463891568 1.3005292849987022
P 1.8581380423019538 0.4114610263585278 3.5349489318223877 -0.6133235464986275 -1.1220085936495579 -0.5347066680256727
P 7.68628423872551 4.605288057054613 9.405276201719625 -1.7299479930181365 -1.9708577881274636 -1.9514539296795557
P 5.671370711496427 0.5198480455887221 1.9220543454943582 1.6271491179823394 0.449461999823555 -0.6562118612217215
P 8.998080067395103 5.690814427263575 4.114513887130801 -1.832229562097883 1.288994030665593 0.7147216845321561
P 7.905769917623494 7.591629460717582 12.270958962847 -2.473032802074018 0.3339976135049474 0.22300000470844175
P 5.882397719050086 3.20418026159126 12.34137833748222 0.8885691387753472 1.0451225818247807 0.5173164975736831
P 1.263457890434227 6.571975929296265 1.2048011217137735 -1.2121969790101963 1.689339475468155 -1.776349720211128
Ni 7.4580685373007 0.5678060921685797 5.682366048550313 0.41881316458944645 -0.7759085404541218 1.2680886479714935
Ni 0.21380508224628073 3.6009331181642334 8.925176425899357 -0.17831397465497678 0.21712529109521964 -0.0945093813334953
Ni 4.678028887840856 9.251063581926577 10.813213625738532 -1.8539620686789684 0.7568276125632707 1.1884356149245403
Ni 8.630277574914313 1.7158658102328987 11.934189688707562 0.6162836575682161 -0.283642300980847 0.03691178542468482
Ni 6.075506191621027 7.35100646039612 11.033768802573082 -0.15430758443805037 0.32387260925580347 -1.2540177717007241
Ni 2.1838156029330307 9.069454785331489 9.743675454341565 -0.5006860881058538 -0.02937973871369779 0.6983311589892747
Ni 1.3027008855869804 6.794062836771373 11.266128691540368 0.42192111409080885 0.49666976785760913 -2.279443903537842
Ni 1.7145745528816636 2.182692770453696 9.972817492561827 0.5429673653725682 -0.5999301559108572 1.2546250662674199
Ni 7.0561319374481295 0.22057389070920438 11.097162052968862 0.5480764044643593 -1.3357824517740415 -0.5770810192268255
Ni 9.119027839294125 0.764203528210239 9.531651932962495 0.04443689015713637 -0.11999621275069013 0.07060917767713001
Ni 9.365732848878649 3.4332661581875557 13.40983391123036 -1.9772094413771046 2.435616823319405 0.5747752539117843
Ni 2.7771577127628837 3.25902127126944 8.259539811193795 0.7850932922771834 1.0385971220014372 -0.5012630436552464
Ni 7.500651959079475 2.5438705513064104 1.3515712335562975 -2.22359440066839 1.108840431698716 -1.806711877442753
Ni 2.959730273902732 0.9830117648456892 0.975119188209698 -0.734390109495361 -0.15606287656626025 -0.11463263444593161
Ni 3.5446792109495573 5.385591131631048 6.18499358668097 -0.7869511714215286 -0.7720631985661026 0.26466036056170544
Ni 3.2187490130106298 0.23348833560902088 5.515849991864953 0.0661989644245763 -0.5968129504381141 0.33747605897185107
Ni 1.1613362764387212 3.987758264232422 6.347756575804153 -0.14253193195936098 -2.0818461409525884 0.37098036137688367
Ni 4.4041700461310835 2.788208255747004 0.24223520062303946 0.9566961734605717 0.4140000594715193 -0.6885967053103302
Ni 0.9122714472601273 8.899242738401652 1.4584985705633564 -0.2447497376807075 0.29448669989451864 0.4658628097790815
Ni 6.889073178397759 1.8634247118921554 7.744011863569314 0.21639458357678212 -0.21420837455874076 0.45525263836340313
Ni 7.916932743855548 3.926601321857983 3.3837576670924827 -1.295766059282104 0.7711527709366913 0.5039709295047127
Ni 6.323231107374282 4.894875910412402 1.2428043226705947 -1.4053796432468892 -1.479119139022885 1.3633616469438907
Ni 4.228278338243277 4.611491706502938 4.048052496985238 0.1087563781708127 -0.3754106292340954 -1.1529135107585307
Ni 1.6977788503782796 2.436845902151142 12.492651007566877 2.2738982911292642 0.22681423624820937 -1.9017359936291376
P 2.1945386531106785 0.4241640044747362 11.991461630703501 -2.346885482120268 -1.7518239671556217 -2.4375590346474403
P 0.7414989197843551 1.6625967660257874 0.5609212576827914 0.044722539718355235 -2.3817041324613495 0.2586552920182062
P 1.1882936128800856 4.493715936358039 11.07459312013423 -0.6688673452022029 -0.4125777252026959 -0.08520378766185326
P 4.820619255779056 6.404439966442176 2.0848173346175414 0.6332621944040835 -0.10756132942144701 -2.0966896337233245
P 4.069238474482821 0.7180073929292043 12.777311497727851 2.5815582951809475 0.2783386293797464 1.2711477465127916
P 8.290461681980945 4.868610987333295 0.9294002567323806 1.7776447848734676 0.031232475651720402 0.30442169962004345
P 9.271695628734355 1.3602741209648754 6.906696969854651 -1.9720487231117714 0.3612849884659907 0.7246620835743197
P 6.08557425618573 3.6228283515112634 4.80018651173636 1.6392307317372221 2.0744668177693826 1.2619023166551235
