# total energy = -340861.47603518196 ev
CRYSTAL
PRIMVEC
9.34759762693387 0.00000000000000 0.00000000000000
0.00000000000000 9.34759762693387 0.00000000000000
0.00000000000000 0.00000000000000 13.68115399666158
PRIMCOORD
 96 1
Ni 3.38276461462493 4.977735802868844 0.5858008392921635 0.5257520299355462 -1.8338141329761837 -0.4374660038039434
Ni 5.829825386911195 4.015232398927549 0.6965913673643163 0.4309875951684513 -0.42273846778578167 1.4297621858563119
Ni 1.8910656819045129 0.6346139926541929 9.971248480545125 -0.9253953064647612 0.1205024629631473 1.3931653605688845
Ni 8.515165763247918 0.4850907602023189 5.378280349319048 0.3942293046024953 0.7498738069532569 1.8747280975817262
Ni 2.9903898682586822 3.0524205242737006 3.5713280874093427 -0.7201770512197726 -1.5441672776724698 -0.1402323372919069
Ni 6.423145433511749 5.566625088325469 5.087980431255754 1.3634369802665165 0.5110664028989134 1.567409793140178
Ni 4.497334732257052 8.335776022502857 10.698566335158834 -0.6555114927205872 -0.7844317474337845 -0.5142581703633337
Ni 0.9331482092231578 8.831404329197904 13.655350656184305 -0.8107189632650877 -1.00278062652346 0.014054421210537085
Ni 7.98500743194174 -0.11750584200843804 0.7292686981806668 -0.9675593414273207 -0.8253184583458174 0.6695090925512598
Ni 7.827584544969327 6.370630631599095 7.5166722399894095 -0.4981124138414067 -1.7042539306861424 -0.18825694480030158
Ni 1.1986984937826899 6.052447765400298 6.03420966821059 -2.0492142138501808 1.218121057804115 0.8365711484415012
Ni 8.654033669480455 8.491908941040961 7.787545046480068 -0.9532825197933325 0.9298533422361148 0.016774391244861436
Ni 8.862999208241115 1.067411489001054 10.776453320558765 -0.47343008060337816 0.30180483082248666 0.576222270770956
Ni 8.780057976954007 3.264956845222085 9.343365692742713 -0.0997066092637186 -0.04651074196702957 -0.5935844161984875
Ni 4.895776069303491 4.447203567668664 3.7943038050782776 -0.6606477855058881 0.2476743675266702 -0.5289404549658567
Ni 6.862557289743515 2.970096234411695 11.753998878155782 -1.1392504114491413 0.566302954774715 0.1480376922689386
Ni 5.9760685474529325 2.2448348512150003 9.549485822870013 -0.411000353413247 -0.1974920902453244 0.25183132711783723
Ni 0.3398029241097583 6.452094942504895 3.6916269915059794 0.02603113395643904 0.5089267308480913 -1.023639215140024
Ni 1.4407732223572736 5.064098254786077 10.33565988943866 0.5209499805612124 -0.8950364916672457 -0.05951666730839427
Ni 0.5558464635838863 1.0550726604989706 8.168250252314497 0.5358022150826965 0.22499929452665765 -0.13393236321580806
Ni 8.830133055958294 2.1021344300689373 0.2987688412624514 0.7824422278075815 -1.381527776329956 -0.3562014032954962
Ni 1.3948484765764138 4.415618036222801 7.782879660642651 -2.7402760928715515 0.776838765577875 -0.06589634558249297
Ni 2.348088411543797 4.103333503951893 12.299918193353902 0.6467165201367765 -1.2922968697865809 -0.24359454103034175
Ni 8.56876488645318 2.423336570211805 6.828933982075338 -0.03610471614235718 1.4189362988854013 -0.8715643766872344
P 0.7991793787617886 4.85558140069822 -0.1388510805573071 -0.4989426230521859 -0.07553052623814734 0.4473632083129973
P 4.665339099429736 3.2038329061500224 11.404623079599824 -0.15799428926101822 -0.8324026188861083 -1.3738841437417693
P 8.647452960946012 4.671555251667528 6.125545041918056 -0.20626803666574153 0.027998027874822747 0.41454539045202793
P 5.924180034562732 8.187607256907008 1.7885646031623958 0.2927373213035797 0.5186578420929261 -0.4173615197445844
P 6.727082561349051 0.9674108925500791 4.375999179614293 0.11895337330847255 -1.9258429139796702 0.9180208683775609
P 7.167756343223075 4.276890343950514 3.0252040598292567 -1.0518591292176658 1.289635520904334 -0.2758801405369249
P 6.663687156120923 5.913579859167761 0.20303542300178026 0.7079617401005033 0.7845983549186358 -0.010275413784079077
P 1.283780324862964 7.584023548416084 1.6301368494748516 -0.7674097589544913 -0.9991147476360986 0.6693062325118343
Ni 4.480499709429589 7.043050046975884 0.07122401800880569 -0.4307417977062324 1.5613736142484271 -0.5586685781579088
Ni 1.026964435267331 2.049030729523229 4.587222163134994 0.0462492607755268 -0.7334984509190271 0.2986536867880146
Ni 6.575511270317778 2.980630976625216 4.816614071625012 -0.19715604706214432 1.0875974631595398 1.2897329657141465
Ni 6.48402633505271 7.035282193577981 10.373748544360962 0.5488593053769709 -1.2585282579765682 -0.3894084861750842
Ni 3.1931392547815505 4.918817896771397 6.581113285409671 -1.9926851684152005 -0.02317309568235364 -0.630347848970766
Ni 2.0603693651088553 4.994954077187661 4.270161943377939 0.9597591286566114 -0.571881220193441 0.2978921260316418
Ni 2.758176854888415 6.228070424413282 2.291196129792108 -0.09909262982880354 0.7261816055426397 0.6683970904340036
Ni 8.5345246373599 4.09836058216166 1.0971312400158444 -2.0142037592132667 1.5763724016501046 0.2858958729017141
Ni 9.035752154867632 3.7857675791782 4.057364824463488 -0.12213588480151222 1.7785719246734273 0.46157703791953414
Ni 1.5446530717085247 0.18087600872372073 6.023387954758421 -0.06582255492176406 0.3851273423012271 1.8205829789978905
Ni 5.189271930900772 9.029134055943787 8.147468673885838 1.1909475827131166 -0.19710128256480894 0.5840186268869232
Ni 6.7475164091562885 9.278995333110974 10.37645747807301 0.0845916079991511 1.2064150822210964 -0.15226124343198294
Ni 1.1761146985849373 4.398586713850985 2.1569160243389818 1.0065696612522472 -0.39168776912756414 -0.5342675236057252
Ni 2.2996678572704705 2.8199738209696816 8.971539769631109 0.4208150255108236 -0.9414127649389401 1.8799998875036266
Ni 6.624100081343405 7.842335053587728 12.773587124354178 1.8976145152615964 -1.7886107969666682 0.07192583960602451
Ni 2.3014252055722824 0.055079782625511726 1.9984742492554126 -3.6032799815832846 1.22227750317465 1.9480469608805353
Ni 5.353023141279178 0.16717149624879324 12.597975682458014 -0.6209910903462145 1.614069401980246 0.1262866737450922
Ni 3.257422681757934 5.647593976571716 8.771644204579214 -1.9234427891786103 -0.24658833355134308 1.0497886198418822
Ni 5.337861338377375 5.985079631298393 1.9213808748705024 -0.06743077994914838 0.5198642036962015 1.5002188971159776
Ni 8.679375005896476 6.720557938398707 1.1702051475402275 0.1184437806619057 0.06854586739019806 -1.0671559074757362
Ni 4.043378014548589 0.3568043341700531 0.8974525392224718 2.096888637108008 -0.2706309763228436 -1.7679751229941876
Ni 6.227976948439783 1.6948315707346384 0.9646215695008201 0.46060901757931 -0.5728042462283426 -0.5837818282857687
Ni 3.6689319598997616 1.3047282905244557 6.648547787452761 -1.086158159609852 -0.4461427056423349 -0.3924742695846015
Ni 2.3175217682090907 2.2866840445512326 0.762197479365734 -0.5701830065554115 0.9253847649417999 2.396278687841415
P 7.232694102013963 1.182994530234584 12.744732960854003 0.8573819145392653 -1.3512818329612213 -0.1926535312061005
P 0.5314071703121465 1.5008595781234793 2.396226668377152 -0.21549006948464178 0.6031671747909161 -0.5991953346273616
P 1.0998383042084228 2.57822625830235 10.898995648019417 1.606414970758782 0.15213268827391865 -0.7127005403370693
P 3.6274660180548817 6.587831403625161 4.261720128211097 2.1922315700863924 -1.891112966697653 0.18457949594871437
P 4.92229520298562 4.267888607702403 6.106501181836773 4.398492107462025 -2.0217813144502084 -0.6318354892598861
P 8.759652171938818 8.256471006584922 10.531916434842175 -0.5993102629386711 0.04643052354839746 0.09619499656603432
P 2.908934904950232 0.8564193911349 4.3665730624464905 1.0178498621517569 -0.7300050930537879 -0.20142510675114342
P 3.7736250502204682 6.039491995473111 10.78919035670796 -0.03680714152602048 0.7291548292383506 0.6516607515159293
Ni 3.456713457261279 7.191508588089585 6.353732979869386 -0.09454203434364364 1.0850255886673057 0.6860513131806572
Ni 4.969173403696187 8.91551401015377 5.328303420086935 0.36249649227558856 0.6001430432526116 -0.24338602456396144
Ni 5.793809094321402 1.7235006518072817 7.043851136068784 2.540400075775083 0.5164754897296266 -0.49027851961928465
Ni 6.742459358989904 3.976019228044034 7.599812575100076 0.5905435724896345 0.7948120622268441 -0.3291873366004976
Ni 5.318119212774042 5.030802113025152 12.30772998045935 -1.030305057195974 1.3771273332694154 -0.8708994894097261
Ni 4.358803339529118 2.485086798306322 13.362013703741974 -0.3904526111688824 0.13888636478697372 -0.08712928681934028
Ni 2.0899171203324047 7.588136491250112 10.419457360643035 1.0755546730623928 -0.035200459160532924 1.096241769098099
Ni 5.12821342501016 1.1404162243050466 3.012439915647746 -0.7397686001984549 -1.4942688501801298 1.5575629822530852
Ni 3.5175102304260895 1.0941456174222344 11.480389095161026 1.5794518119063765 2.1022141630859794 -0.7116492162544195
Ni 4.013344184262835 8.289514763217396 2.9396557836412147 1.3861218234585417 -0.683389450077778 0.35562676173894886
Ni 8.535057450408852 9.213683670426082 3.2601503106646823 0.42161849524872547 -1.2521730051825015 -1.121076568753592
Ni 2.125503423444095 7.91375069734221 4.588617759419358 -2.013682596602474 1.0113925365621872 -1.758162764889456
Ni 8.931217973701877 3.7706057762763976 11.668833853459093 1.7736508332227259 0.26330101832033365 1.3008031074853792
Ni 5.570251956097294 4.855272929985668 9.752227731315001 -2.3330786581441627 -0.7195144779351093 0.22192219826323067
Ni 7.6904459442465525 2.0811210312259956 2.7798735630976465 0.7778039577046216 0.5206864424871807 -0.7565607320551293
Ni 7.801691700309654 5.662746431876168 12.033449974734594 0.02424987368630017 1.3319985592515768 0.6758879994944101
Ni 1.6126381472355336 1.2791252213826327 12.643437722170043 -1.0433120109786032 1.452228742389944 -1.3427082323595971
Ni 2.934435150521204 8.849660186822575 8.31391386182053 -0.9196465769064419 -1.7440090990968933 -1.4608339675604518
Ni 0.3270789745968524 6.77743806827384 9.353024565084532 -1.7005749391726581 -0.7923779988640548 -1.4282658038164435
Ni 1.9637619464959533 6.605778790537283 12.990351363583997 0.3538365026077454 0.4492509122540133 0.04633333584890085
Ni 8.116341174710126 7.593978739593902 5.346184439057871 -0.3434101650680989 -0.7658884372139584 0.19149962010731536
Ni 5.065668651140888 6.489167513595246 7.9009070985832235 2.038634381451805 -0.5445100272693396 -0.0978127346751154
Ni 7.439406869813258 6.66631383097629 3.1953565048729855 -0.8048599333811495 -0.10798967520811724 -0.5381678871013957
Ni 4.467478506320951 3.423174277969253 8.186966946488528 -0.7597638123734592 0.09580907398152533 -1.064431823676354
P 7.5415948040441485 4.9805120392818125 10.01132069562511 2.5624912512471676 0.16531961927783786 -0.7459413046680702
P 7.7138429804137605 1.3233300092510811 8.590738283543974 0.10214144395745636 -0.2044870335059188 0.07932676005578597
P 4.431901550806611 2.835406704194636 2.111617567580576 0.007166950062084432 1.7755588488787164 -3.0131493282613526
P 1.2880241340598928 7.62629338363307 7.580878081907788 0.34368938687141454 0.28558991162552105 -0.2411314242018299
P 1.8712113851329788 2.4582311511195902 6.890499127742324 -1.3099629196077762 0.0698977534324022 -0.7510189763012938
P 2.9928669815564484 8.77008409058149 12.613846033238952 -0.10706973449700916 -1.8148324496673585 0.6224476202870828
P 6.255365408675467 7.837764078483547 6.8112576754863685 1.7287452309592872 -0.5224021396267068 -1.6501527779663645
P 3.996873717732025 1.0826200298896065 9.274891737874297 0.13990657852137198 1.446369969616322 0.6778438376692003
