# total energy = -340868.7357649094 ev
CRYSTAL
PRIMVEC
9.23867825890866 0.00000000000000 0.00000000000000
0.00000000000000 9.23867825890866 0.00000000000000
0.00000000000000 0.00000000000000 13.52173949182290
PRIMCOORD
 96 1
Ni 0.2878864573980191 8.000603101380268 12.579476886419458 2.34166331448938 0.6094098132665182 -0.2922187297959484
Ni 1.543709250009621 0.49908911253228605 11.02515331880435 0.6383907738799005 0.2177410703023476 1.8008934709887632
Ni 4.7804894636052495 9.125670878698582 6.062917802252435 -0.5785658313024681 -0.36324622595741957 0.143357770294766
Ni 5.079656347320877 8.173366387325615 13.141778884250956 1.2347776925241896 0.11472545127005404 -0.6762512963710999
Ni 0.20462009677939752 8.427106689383848 5.206884035203794 -1.0983076504881923 1.4596209210889572 0.802043804088593
Ni 1.1547608896727706 1.733961354152537 13.265096763438041 -4.623618928705482 0.03312789290222036 0.9238112498070928
Ni 5.025028041984254 5.770570910926373 12.99468896169136 0.5253823053009532 0.4451782848465365 0.4284231768753847
Ni 7.7853141787928655 2.6968995643556157 11.041271117128428 -0.42564792812309277 1.1810375226882563 0.3259598308021354
Ni 9.071883293095704 6.495289798771121 2.771888993002128 0.6643152070551462 -0.5402990745117857 1.255192508735116
Ni 8.549593087515582 3.753129948969182 13.453332987955648 -0.6548234655146271 0.5281143595201356 -0.19034750878074314
Ni 2.177251620795833 2.0726328266757736 2.047718882653912 -0.11419837512199042 1.1013788332143484 -2.120860317432257
Ni 1.835235746694403 0.9689156351232197 8.756719637742945 1.054736707875777 0.7765616006570885 0.07942394775528257
Ni 8.82318730943994 5.951233266897563 5.324131178818972 0.1002182587928145 0.6490230567827662 -0.29112086874607923
Ni 0.4052934301493911 4.428052360276742 9.360627099848575 0.822860483723628 -0.6263040179186955 -0.5306528096712732
Ni 5.5365367098799805 1.5653554734839499 4.294815835967147 -0.08284814294548312 0.41613896019139296 -0.2059134815398002
Ni 3.1300827168371894 7.937207290248879 11.218054152042482 -1.0895664139604524 -0.4745587948911827 1.414850815962118
Ni 2.038283420411346 4.995889250333365 5.734934556761828 -1.615872516627256 -1.7578339207951275 0.4365211233921708
Ni 9.520180923427898 4.155243426015771 2.3345558261865094 -0.7819624599576855 -2.4711263290799246 1.7461356585215928
Ni 3.9328961531362703 5.4513099017064075 4.4857155714653985 -0.018669037164413007 -0.8824977357702866 -0.25454486939425836
Ni 5.743889607727968 6.044719453554299 3.4026107952750184 0.6165410249946608 0.8799266326090007 -1.1526116632473957
Ni 1.5317544001693388 7.894293629114326 9.308054400454349 -0.06512115797936525 -0.3118899829726306 -0.15373679953624492
Ni 3.219485407644308 0.5961266471632143 3.5995276820105 0.5709412248776747 -1.5349727556573953 -0.39665745442801364
Ni 5.333017863565004 8.55618950388804 3.056413495333008 0.06562920796403536 -0.005915851263802715 -0.5467165480023553
Ni 7.8712338878459 2.4700900098123926 8.577799696516637 1.1251584521324494 1.287956333429698 -0.03592756713454458
P 3.6438918156527227 8.790768786959607 9.25714558703867 -0.12353045115619372 -0.39976926058411794 -0.331327522871952
P 5.907894626556941 6.856706897497429 7.325456190187762 -1.1804965625831216 -0.48370600860808954 -0.4760477207318834
P 6.058965495635996 4.0169681265107435 9.647464043381172 -0.06377004326810953 -0.6621745065630597 -0.2675703351196489
P 6.445668857123397 0.9177148794703259 11.524295091803475 -0.38488822970722747 -0.18641552071618864 0.17995768090598685
P 4.422287424959635 6.736890477421215 1.4994254928694162 1.6474310081598273 -0.19251957673139747 0.33248194819136934
P 4.866501559442211 1.516094840293544 2.1205871107414382 -0.23315586219552104 -0.5988698329671428 0.6896351738771735
P 2.173500717368357 9.049765897023342 13.10656843316032 0.19009502645030488 -1.3951409962380166 -0.04868049592483874
P 0.4336321522514638 2.0872484158931823 9.90144270334194 0.895729146858896 3.138218584659576 -0.2948895917598921
Ni 0.3507806082926789 8.389209630616586 1.2680621937463825 -0.05452949850644802 0.8420110885101497 0.6361528856883173
Ni 0.04035269948406879 3.716535543855304 4.909216588991319 1.983930305040706 -0.6527264737762822 -0.8001761547522348
Ni 6.943762963992777 9.713916009324898 7.974283954374862 -1.673181377651054 -1.423308459811168 -0.9517390865656127
Ni 8.649343098122635 1.7231982938249257 5.803828305404772 -1.2185015810719853 -1.113573061287695 1.4706159866478803
Ni 5.252410394587831 7.458117144833485 10.82745206827332 1.9361869762181558 1.1560093760750347 -0.5910379956275498
Ni 5.571708358521367 1.525111790404916 13.645193546006752 -0.8897587882080742 0.8176650555656176 -2.369438684830435
Ni -0.1262853426868522 0.14865218307581932 7.821907660038905 1.3450510215601608 -0.5533613070123825 -0.020412502218080976
Ni 4.486773400141374 5.412415065672722 10.680362145713723 -0.7937270566927814 -2.452332336301873 -0.23513021231307246
Ni 2.99929074683033 3.2233471752124983 11.396175871455652 -0.2181712158612307 2.340815364666788 -0.623349563276062
Ni 4.268213985402921 3.650774631055358 0.42808986908362345 1.0346592203996117 -1.3114176497764318 -1.4877387623710958
Ni 6.997569026952441 0.3992587254232146 1.3028726100626111 1.2245747838492587 -1.3915591924240291 2.0593703284475757
Ni 6.650776756121933 7.638160509352359 4.95336453755915 0.320738434502196 0.16140537182509623 -0.19438491207491038
Ni 3.1511653809295574 4.771620332348163 1.9033201871101375 -0.2649349543793308 0.8484946393519646 -0.09501460310468798
Ni 3.171435041323359 1.7278268716997183 12.974420225165398 4.8383870324224345 -1.575525737379093 0.7152186787732329
Ni 3.7878396636909284 1.1436559982446257 10.739844452677923 1.1107726157244224 -0.30165210729470626 -0.4710392117736985
Ni 7.45516076774779 8.131893960020339 11.899374348137055 -2.8231820856381638 -0.2972822603617848 -1.242316681213712
Ni 2.8154780015271945 6.7940963740294285 13.624775142890824 -0.5344593279015569 0.5424834837576141 -3.1905233076005635
Ni 5.253583706743717 3.6621382054785014 2.746211010277182 -0.48496970581186155 -0.18916377288528713 0.7700160862290868
Ni 7.988324897796238 7.467217243050393 6.886770480855438 -1.3321535967722027 0.020713835508583682 0.739678354477494
Ni 4.136729114516601 1.1483030534762038 7.914895881930269 -0.5533636210052276 0.4486575016443886 -0.5237460552491109
Ni 8.326109457193766 0.9890282379843437 12.94248211396149 -1.5165106922974656 -0.1772819338460366 0.27747808115166406
Ni 1.4407164632866944 2.472399679410593 6.986980577646453 -0.7444971160223758 0.6575285231506159 -0.180075951651406
Ni 3.1125292278908705 2.9138052556617575 4.026341689608079 0.38867083667811125 1.6798585325609132 0.9028780991988514
Ni 7.101153089092507 5.285124554776734 11.080173344104827 0.05181389934749787 0.07851634833934865 0.8490939634988601
P 8.56348805981835 6.04822091266517 12.660877957870575 -0.004960172218752747 -0.7622516117923194 0.5992806952523162
P 7.6923084034125555 4.6419185263916525 3.960787723204131 -1.0532801779349086 1.1158171201268654 -2.360049787416368
P 2.0124890303386507 3.608895701900799 0.19877201335675557 0.3195528988345271 1.1633192794728868 -0.18871254428048143
P 8.052117972098516 7.44888770511908 9.07450707775926 1.1062862978182948 3.018403891792073 0.5035384699529845
P 8.495186510460385 3.7809198935747217 6.867380342644631 -0.7473417845600226 -0.04997736035939135 0.9070741395580701
P 2.7777102842574313 1.3445048665040824 5.623110517363224 0.1906943505972006 0.24115610679217825 1.1882715785428504
P 5.226163309273888 3.617173557740747 5.02033756496423 -0.6635539034090895 0.23840631196118292 -0.39050120501863067
P 1.058382996679088 8.520472773221478 3.270963323648986 0.5016304542969942 0.8409679919576162 0.41393398212027427
Ni 1.9198343247372662 7.023843828301562 4.7591250198219015 -1.3610075448894172 0.22151879217722498 -2.0807282252980617
Ni 7.171690398621529 2.852321850957678 1.6695696134904046 0.6444683475325482 -1.0092315243551264 0.21610250625766012
Ni 7.641421762825017 5.523972107265773 8.597149184542516 -1.1488305989384084 -1.9745637762241413 -1.2366563976041414
Ni 8.610171101737166 0.5320028281744729 10.57608241109068 -2.4416470886738852 -2.7722891554430387 -0.9331045021835608
Ni 3.64837257467323 8.88275830771671 1.2084976625444874 -0.4089966927196569 1.5614697735066592 0.7531506779323157
Ni 3.808451155185264 6.62637740648655 8.756461878615786 -1.1495718479798072 1.6984082705386425 0.4781305714028411
Ni 0.988972805913987 6.780266072475408 7.120412961937975 0.4845537013203655 -0.5439053038058053 0.7242419653177656
Ni 7.86073874919168 0.8532252088172296 3.697087201970622 -0.09553602282579675 -0.900865439644197 -0.45447333699521725
Ni 6.529482147502871 5.166878710027295 5.801908508034747 -0.0920200392527383 0.29383261125028753 0.6548954564031431
Ni 2.3649815657375153 7.055375437656186 2.2566294216789258 -1.0609160972136116 0.06868830650533331 1.8301657375903189
Ni 0.7488327623177939 3.740713165209259 11.695195860184834 0.3754625655179534 0.3531248212527015 -0.7722794283419667
Ni 2.3751718280047727 8.677105326692997 6.979205305911073 -0.38417474857997064 1.9459342854129067 0.07932290340104403
Ni 3.3251574111011464 3.3888765759762833 8.877360147931796 0.03853003775439816 -1.1700671397196818 1.653004902703179
Ni 7.123390587983974 5.292894283305078 1.7234135550314782 0.6091167075061316 -1.127675305017032 -0.3904490116244566
Ni 1.0337526800838852 1.501959662352561 4.025922253609045 -0.4878313436303727 -0.7598761695816074 0.7521795722682981
Ni 5.688392866622423 1.7694840725728505 9.421299348589768 0.7454880191807354 1.322045304693607 1.4435039609224365
Ni 7.408135894728442 7.317430550267939 0.5521588528240431 0.06117374329584304 -0.03461707585323716 -0.642982507015641
Ni 3.660114934910478 3.3608279483757446 6.545279363686718 0.3488195090091283 -0.6080401866125013 -0.6477984403470456
Ni 4.919041923462061 4.895714260520243 7.982275411184633 1.7530447269366003 -0.6964879351329489 -0.7940001078485099
Ni 3.4142921802348742 6.788146665144466 6.356542402800222 2.845860758182602 -0.7577349548688885 2.202906276191419
Ni 5.359699166763409 3.0466112575582476 11.6400945345145 0.3620020691376733 0.1421339251899939 -0.22477175189688386
Ni 6.186930430054658 2.719266404744583 6.788156827690698 0.15489302462787516 -0.4875459511794701 0.08920648106334314
Ni 0.014014151254037262 6.688525996034911 10.658727932521305 0.296107009106761 -1.2106903125576827 -0.1534380373489035
Ni 0.8633702015603626 5.518373468159736 0.7759141002906066 0.2863219046955391 1.2290328196206124 -2.4591563012022424
P 1.9115287528621399 5.0194940736269675 3.5007375700884578 -1.0626428500967313 0.20781764054104854 1.653306750214314
P 6.808462518930232 0.4312042275698361 5.782680046695814 1.6587531180408661 0.8656166437442319 -0.14341510589526268
P 2.1863424803343476 4.7846283915252235 7.840919012435607 -0.27513914860584227 0.8150646418282931 0.23369965051413302
P 9.190877470794959 1.8478834974141454 2.0868779448896313 -0.7935308815215752 0.00836302725271463 -0.7591781150733183
P 7.502296504907853 7.831923311284538 2.6145099543164703 -1.6348092056307586 1.2603524556695003 0.8589523443501789
P 2.2885961727858506 5.888853710389382 11.071113896072848 -0.20515654876911765 -0.486740167448723 -0.004223808273360468
P 6.366558054045855 4.119304967067782 -0.19856968629995325 0.5314439381140009 -0.5747721685879907 0.584562158095219
P 3.8386154401377532 7.913463886779385 4.571565066562647 1.2650712013014085 -0.7900352096634911 -0.9205027542591501
