# total energy = -381162.2518178576 ev
CRYSTAL
PRIMVEC
9.31104826252461 0.00000000000000 0.00000000000000
0.00000000000000 9.31104826252461 0.00000000000000
0.00000000000000 0.00000000000000 13.62766030739764
PRIMCOORD
 96 1
Ni 5.3598676168135615 2.3469148606803065 1.1485652742463224 -0.6826589996696566 -0.5927814606812178 -0.11094464407138313
Ni 1.8492858929108777 6.690500195257969 9.184647866840093 -2.485998618206067 -1.5635135434095653 1.5646412292561052
Ni 7.5433084053238275 6.153960357317178 2.2993949953999615 -1.7836457396519085 -0.536780776945882 0.35561056378903266
Ni 1.5928596271728277 4.782154324003719 0.18696025999493826 0.8393350843398834 0.6728031899214993 0.1709233386178605
Ni 4.257951624846622 5.60510200268897 4.394702057753963 1.541203052837823 -0.547983844750553 1.7701831863890998
Ni 0.5620418676877027 8.507970236679125 8.116334516500679 -2.3011059618923078 0.1435914835721269 1.3718421736110762
Ni 3.6005357599700516 3.999169663929497 10.421466979763668 -1.2891619237020249 -0.27201397271329925 1.8582043888950899
Ni 9.212053074826542 1.947442962388384 0.5160797407609513 0.12909688950037768 0.24274581987680127 1.3786926208740062
Ni 0.4352430830309367 4.189869240856911 4.698585804749829 1.0939267478116774 -1.1229922977190658 -0.17531452570702064
Ni 0.38247551101965577 1.6044705042017076 3.787276279228918 -0.5557822577490492 1.119395324396427 -0.06484116484510123
Ni 5.197538803564573 3.3938118691960435 9.102009521295253 1.0428672101317007 -0.06753310985496756 -1.9191991834109077
Ni 0.402612514829085 7.687257209547147 4.971588529489093 -1.2228405747669715 0.46064295614103895 0.22188928814276626
Ni 1.4925423945271579 9.116931407042232 6.274052393999684 1.4282123248706888 0.6214549173565104 -0.5915401320749489
Ni 6.920743793630173 7.018593598519105 13.364291714631154 -0.546074286432666 -1.5737048821202704 0.8421625264863496
Ni 7.038118866465825 2.3863378384992937 12.983739866156942 0.5354288909036778 0.18531843099726794 -0.005221653410255524
Ni 8.146701568900028 0.47341465598009097 5.577106474250533 -0.1280782184278762 -0.25684934915771895 0.4752879597477234
Ni 5.644040806004748 3.8561705866163174 11.52224143722881 0.2803528315962978 1.208547298072751 0.319916709931849
Ni 3.9467391518608346 4.06668407398275 0.22428266535384891 -0.18005769681896086 0.3355672719849124 -2.0299093428739816
Ni 5.885699749394921 8.544050548216342 11.601594844990341 -1.6994138289850218 -1.0938064201837292 0.9445325415148442
Ni 0.4265456329646363 3.7834326785572885 2.0963703840514336 0.8913382168800519 -0.25817578127862634 1.0709277158133428
Ni 8.190780070788334 8.777450591907543 13.046631340809363 1.7393628585741334 1.0933783315073748 -1.2048027434286541
Ni 4.460895230076344 2.11197849404623 12.40410104859203 -0.1987827840322899 0.6795459079619716 0.40750108201073687
Ni 8.137446387050224 5.690493625168406 5.153190281280247 -0.4884427519621265 -0.59603287773898 -0.2602329209179712
Ni 4.194012657278605 8.309868376481495 6.082733632371049 -0.5819735714324364 -0.17220271955091632 -0.16223738080808833
P 6.175282657554654 7.911141362040663 1.872467609461641 -0.4828529165791749 -0.036651332674446556 -0.006127967274608801
Ni 2.688025109239256 2.6048215830724 3.790397342564989 0.41244197095578 1.0958306497026096 -0.04491665800703232
P 6.688340032089806 6.66338642307826 10.446323753874571 -0.9531429088916746 1.192817803152636 0.9190631935991462
Ni 6.647250376654003 1.2607159179713856 8.640590288632167 -1.800869302619047 -0.4754941622212586 0.6160468589670617
P 0.7328511835813621 6.881395304196294 0.12974014476376136 -1.9513783392466133 -0.8524777923694287 -0.6742964866375742
P 0.41704184612953005 4.800431911499863 9.871726868876731 -0.1271402799946391 0.9050488815979251 0.10578649690921134
P 0.46369392172335444 0.5695959210425785 9.985136366310138 0.39528242845735795 -1.0272253898293857 -1.5026534746993994
Ni 3.948284785851848 6.025421337763301 9.44217004294406 1.5446215916010688 0.5437932037079731 -0.42956371823773115
Ni 2.132732820347251 1.385670183991888 1.8231767828253271 -0.06184865787568057 0.3719702360939787 -0.5438600523901667
Ni 8.717915750109102 1.6530648644372514 8.252719956320986 0.5428825189682457 -0.1552411519959133 -0.7347896589266248
Ni 4.318445504603344 6.022572157032877 11.967074899842544 0.5242744169487552 -0.289702648242314 -0.12870993847460413
Ni 2.187211763006413 3.3164649923083895 12.153583574002758 -0.571103718597468 -0.5946388256049308 -0.07224337084644333
Ni 4.96537712927581 3.902483740057895 5.567471401636671 -0.020592736549687116 -0.46703189038651827 1.2872197123739897
Ni 3.9058729615803593 9.313375900671186 12.964278844442378 0.2194498254633382 -0.2912841337968209 0.3859236129502773
Ni 4.724593424410669 8.17632001302903 3.7028399702885064 1.3152727618564637 -1.2032557106565083 0.567284601961694
Ni 4.745655015300264 1.3997205556330903 10.113999410339241 1.3191368727975605 -1.045303073266703 0.5904543552099379
Ni 5.985430386007857 2.153217126252251 6.621611474499453 -0.13243161030056547 -0.13869533182209015 1.4842754864128436
Ni 5.290928616395097 2.55524025173416 3.685586598087613 -0.04450476728059432 2.4149029878108217 -0.10581580748525
Ni 6.1825732082472085 0.17870974023929243 0.2037173533300424 -1.2060268456437424 0.1700234525114104 1.1596135484865255
Ni 0.06654047441795206 4.2497020361957905 7.272618544942199 0.09088284032450154 -0.12641959977853065 0.16592022897631425
Ni 2.6294493053990937 8.63474015708666 9.077029841348919 1.1786355981149832 3.2249267247810978 -1.4376796409311756
Ni 3.430171512177419 6.38953918627282 2.636720302890555 -1.929317759902148 0.2158094004972735 -3.194172988538009
Ni 7.384136037393835 3.0572081679361944 4.749416678748274 1.026336045245897 -1.0795005450840183 0.6020608291006148
Ni 8.757655303564803 4.346909378763155 12.063586707113952 0.9083771746402098 -2.96393044333454 -1.3218265038145816
Ni 1.5141347151606561 6.57862795187225 6.981082178882979 0.5114986053403255 -0.4992912646408562 -1.5421723587296279
Ni 2.726144540318834 7.205829465538946 4.660087414011009 -1.7811240016713195 0.002163069089589823 0.9301076243387659
Ni 4.3384642581014115 0.5268172414744269 7.820709669203784 -0.2105494376499148 1.0752080883562514 0.10603100881984966
Ni 5.772766046521398 0.7704538514892457 4.93753337092203 -1.0550095019211896 -2.2996471179585942 0.9164270415278799
Ni 0.7211565071192346 2.6294120612065393 9.946311157781652 0.4533433371558321 2.2447784909451727 -0.12228012368886038
Ni 7.253250633709022 3.3646682885221106 1.9229586302030253 0.7025426259674611 1.1137658940247914 3.2910120464459454e-05
Ni 1.4580356501253708 1.993374362856278 7.2556119155169805 -0.9795522521231387 0.3525602069984831 -1.203902857322204
Ni 5.895345995266549 6.318831086708014 7.6427047753085855 -0.4480813174259444 -0.10753741816204707 -0.09624847551178908
P 3.8129766343011826 6.351931862840868 7.08322158364938 -1.124379922095212 -0.326496934252528 -0.24727044722003222
Ni 7.583727665293647 8.856259303352964 10.078499177101062 2.210581790458806 -2.1198617009644134 -3.149636082467898
P 7.2479526473181375 0.8410921181930117 11.478251390297823 -0.608503499402165 3.211526906435424 2.376200171923985
Ni 8.537746968626484 6.4615228994326195 11.886795042791219 -0.2871086622628926 0.9601951877527658 -0.5880277480463164
P 7.958124910948223 7.183315351139723 6.629324746777499 0.2747249438865591 1.216317428936473 0.02960471024031031
P 2.211932595814493 1.3845063029745581 13.219239551203405 -0.40638496612842273 0.2022046652296453 0.261486076598782
P 9.156698893642348 2.3725574872541118 5.840365187112713 0.438646911485922 0.43360574951758873 1.0905984547693928
Ni 4.670123792799645 4.471556380195082 2.2409597883866925 0.9388529746315637 -0.18170834504850641 1.164539267922917
Ni 2.573285063026838 7.57490079165822 13.335592270953434 1.3531204288318568 -1.6097093252393375 -0.23187596704183291
Ni 5.311952963092138 8.135295534930199 9.281594500059578 -0.5090665988600652 -0.0006600021815020891 0.7419614940847158
Ni 6.911693454839418 4.950246676050525 9.26590910836523 -0.25584276227007546 -0.6396331309274339 0.09725711928196153
Ni 0.061013436242857426 1.5721425450643614 11.919732875581644 -0.01187901082577309 -0.28864463929144485 0.12914959711518403
Ni 7.149711778407383 1.1370745097384312 3.2799461304038435 0.1826419126063693 0.9808367752625172 -0.732108512550036
Ni 6.204035174206766 6.943686216243774 5.15791936262986 -1.4127139721247735 -0.2603177673222936 1.363488402329742
Ni 4.405829691384447 0.8716267694588563 2.8071348303431356 0.11914929136936253 1.018622221541407 -0.9716710496028491
Ni 8.724945591453773 5.220388115696786 0.5836779502474524 -1.4126224408522317 0.15712191395839392 -0.10413147780429163
Ni 0.8497271842367832 8.940682576825981 0.7856988306066353 0.7227424979541037 0.0185484524261487 -0.19001069426661468
Ni 2.2980132358561876 4.4763888141790344 8.548181860275454 -0.8512395490869533 -0.4865259945553879 -0.5611599771211948
Ni 3.498682204381506 8.478221437876181 1.8278369624187145 -1.1375627393340733 -0.13833434893824564 -2.4830181954215043
Ni 6.215161876732435 8.614861069310672 7.233248640097603 1.9633954183121476 0.6489551796593082 -1.1024437841437529
Ni 8.104988073238935 9.054202875732237 1.9161038365633611 0.7177329605546542 0.46550054134365637 -2.662687912773427
Ni 2.7893479350838986 2.0775648601258294 8.963143618250813 -0.27177074635424164 -0.9799708277177961 2.9484608869440314
Ni 1.9664561226874797 5.932329478473212 11.494345537005456 -0.9651533030889895 -0.8130764077536707 0.131081009809942
Ni 8.136580459573329 6.757157988882468 8.757761449513582 1.9007468902429911 0.5257764554155784 -0.48873611483282925
Ni 3.229360136971445 7.9424544169308975 11.032953306381973 0.8997012441327666 -0.4850967183080291 0.9049002718352029
Ni 7.521529863727556 8.055583651815331 3.7672435591586413 0.05123103026083435 -0.18332556893695526 1.2147210309836307
Ni 2.693686226507547 0.9902392805921332 10.989345012424668 -1.7917146327029723 -0.40906791227722455 1.3301260248192126
Ni 7.329284652809127 3.0161650677410843 10.211614576815078 1.5811016888049738 -2.2246688646794914 0.7184315292835756
Ni 4.883449216703947 6.567398827817056 0.5861369980608663 -1.0206058276303391 -0.22277966116751957 1.024546557445642
Ni 0.25262642699267235 6.182135588984692 3.33238502241583 1.5714834489889193 -0.7131031750921267 -1.2225364132629912
Ni 2.5497653554286424 3.913684930968675 6.102943262355961 -0.34573624209811427 1.2243297577179881 -0.7289697098107382
Ni 2.4853794575499704 0.1693493435455211 3.912351588875222 0.4177520703147838 -0.7274049364267794 0.7296644218849175
P 2.2676126636835394 4.75879290422388 3.604420329253491 -0.568526444788595 0.13543851544768934 -0.3988521480864873
Ni 6.958155585051214 4.361471858051982 6.8596465579540675 0.24829066095443045 -0.26272637676378624 0.39414651508070186
P 3.787166408860882 2.8804658521685957 7.495512933018578 2.4350123569661872 0.662181191431279 -2.780277058744521
Ni 0.5132110068294373 8.158964219298612 11.175648843525833 1.64138197375227 0.257293378673673 -0.1925440022114297
P 6.253039220560408 4.496835875891481 13.564863795899965 -0.010844398913671647 0.3920130136774668 0.6594288254971223
P 6.351103179556529 4.54846563782022 3.807159091424162 -0.4552662652101579 2.4000803209756922 -0.8387488728191104
P 0.6654559549442832 8.971939765427383 3.028747087090824 -0.6465848796549187 -1.3635465092611871 -0.3487668013943219
Ni 3.145765546782766 1.4400560161696636 5.810589386270167 1.6586572158929498 0.1472193101327013 -0.18937948844051902
