# total energy = -381170.954470671 ev
CRYSTAL
PRIMVEC
9.23027517104529 0.00000000000000 0.00000000000000

0.00000000000000 9.23027517104529 0.00000000000000

0.00000000000000 0.00000000000000 13.50944072333469

PRIMCOORD
 96 1
Ni 9.320916359807384 2.471932272653479 11.279099829939469 -0.057833366068700404 1.8439406798872242 0.11276832754368321
Ni 3.886850366681359 7.602414519097853 7.337395784639085 0.1366389635136937 -0.94100498797756 1.1866890645470787
Ni 7.685016250598434 6.373837217955628 13.353095561233445 -0.4070002311149184 0.8371355055854035 -0.3319900961566153
Ni 2.1658378911558533 3.5628123304695607 13.09836212227262 -0.4893431522892088 0.7213985823316996 -0.017104520890770542
Ni 1.480914560697804 4.498393010422499 2.152648751124433 0.3257081198026455 -0.9867924786253198 -0.8829425366171891
Ni 7.9993994190988 6.438495294742036 8.545301884787284 -0.9169008958405048 1.191142215222426 -0.20651511967954111
Ni 7.227693042538565 2.9525065435862903 5.009125359054702 0.3575003246125778 -0.21740631267074814 -0.6485317189686444
Ni 7.7777989754887935 1.6289866331899612 0.0798695700831963 -0.442197862061974 -0.7055986391849655 -0.7676329307088909
Ni 3.7275265888926095 6.001081789983849 5.460110137231739 -1.1763195483872968 0.7096599537385326 0.3247262155053504
Ni 0.48637919091724696 8.037557376191591 13.010496364906045 -1.4919684841817273 1.1683373015127687 -0.03117179761711406
Ni 1.1538397639916835 6.3987958817144355 9.298818158289277 -0.5937083433708613 -0.43902614920221167 1.029992925272194
Ni 0.5991666909423944 8.674778645146121 10.010968031088066 0.16732148019921506 0.9387017937656801 -0.46800376738148425
Ni 0.9178456294550936 7.501638376006633 1.7327072340249174 0.9068396549497608 -1.3043910819469535 0.11609173548996136
Ni 0.6901079759585381 8.46819585905667 3.875615275879872 -1.8346417710838019 0.6245536108864922 -1.1540951897714578
Ni 3.8244075559090462 3.793366140886535 11.147112434764656 -0.19841100251516797 0.013710664717873163 0.743217477979004
Ni 0.3678753815482277 5.4478929451640035 7.373911675798929 1.1278673664231802 -0.8887213480824953 -1.7710468199409757
Ni 5.395935726858409 4.38836813172243 5.460529191719407 -0.8717340694958794 -0.7413750254536264 -0.7633998664641498
Ni 9.21245139759224 9.748831911530136 7.204139226643696 -2.300374483042922 -1.0615722427403718 -2.1085614454602464
Ni 5.04477914252406 1.7863535926662601 4.988442158703098 -0.13905888580909598 -0.05256851812533528 -0.9614665982660217
Ni 2.883879448524628 0.49168936815853476 3.5564009814137667 1.6952843801976805 0.0944823847503018 2.455830836373435
Ni 5.941481903929626 6.742762081778033 5.207213523007602 0.8815389714014431 1.2255124651721796 -0.2310269887779763
Ni 6.772603561042909 2.756695488490378 10.52174653109556 -0.7675257157070652 2.101207061977704 1.5986062733476403
Ni 8.05655328226246 0.6925872278393131 11.34590394567703 -0.6055122779843249 -1.626037887196032 -0.24652894106831735
Ni 7.755600163972547 4.404521113075209 12.181733043070269 3.089944580144537 -0.8746003353000809 -0.7604307565334969
P 7.490949717488623 8.59691204475067 9.19829400170716 0.7046370466026445 0.22978463173044295 0.6271509393000232
Ni 4.705252704763712 5.8439363571089595 3.33784468251813 1.5451101012017132 0.029088946946156356 -0.10941560902136639
P 5.455489461537339 3.4536643279000714 3.460281512089675 0.5806664225852387 -0.3995175495846281 -0.3633521554076645
Ni 2.3187743186039613 0.4105017147969517 1.5694864341063717 -1.9863612830797015 -0.8030815013244879 -0.812297363495801
P 8.725646690994786 6.5564766705427315 4.530931576059537 0.26088906644473137 -0.5489675488200609 -0.792168711066726
P 1.0439164183172602 4.65778140013666 11.521499775366816 -0.5880922827356646 -1.0665532408947311 -0.5852111045331276
P 1.7043702895946145 2.942140944695336 7.57489168492773 -0.5399956843387538 0.8132062484633156 0.6005978714018431
Ni 7.485070032276211 1.6194886801545274 8.814869298794994 0.6302311208872436 -1.5122688863019762 -1.7024587864589322
Ni 1.5929885604609115 5.658149380726829 4.060829975208361 0.5099466874721734 2.4396701674531727 0.20900831841504006
Ni 8.615178759091897 -0.013203908471514193 1.6895713895929516 0.8113869358663897 0.11701810395897268 -0.045279697773405896
Ni 8.717450206742633 3.067358856142076 7.226321423664838 -0.2310735257451956 0.3081860517584822 -0.674931806228728
Ni 8.139275007338805 3.0936097584091056 2.7167219362935335 0.8249471910493276 0.6542467670755507 0.46528431156779226
Ni 0.6302034908273761 1.6442811989622779 8.874391650538724 1.2893737826025147 1.0691253724972813 2.5926652037273863
Ni 4.4408237848811964 8.6214184250316 5.483590110926139 0.6129674487107895 1.313201224039416 -1.0863355657279807
Ni 6.9060364172919195 1.2077538006097293 2.541436243845721 -0.8348456811099622 -1.4309232960439484 1.1755955257370785
Ni 7.195913205511356 5.211671745860969 3.678539673100914 -0.8867487977371566 -0.2710523801309783 0.41102169356948565
Ni 6.5437388909616825 5.818903851149682 10.229105275496034 -0.40450857504131627 -2.0469303029120103 1.0615529594666622
Ni 6.272027284057829 8.214418676591931 7.309323749102967 0.9249677320090393 0.16052888275741387 -1.0040944602388773
Ni 3.288276259397735 3.803907115003605 3.928329376740283 -0.9148869507342696 -0.673786379770375 2.6066954565682074
Ni 5.054480161610787 9.25944272791624 0.4486015211568742 0.5603102275263898 0.030347759053921928 -0.49035308161096197
Ni 4.710144750544839 0.6851513182519997 7.806740502935445 -0.12039576218195394 0.3512458590624338 0.1166254965062443
Ni 1.8575467041942497 3.7319386603706826 9.726864779917863 0.7519445734393566 -0.593027515253753 -0.22908014946425065
Ni 7.525184807681454 5.199829302960618 6.159696682648089 0.7020991106721393 0.002142500264299536 0.5696014230203287
Ni 8.635642278897103 5.588211586606827 1.958706826727914 -0.00023397038767701637 0.841653448060415 0.0443651563789365
Ni 5.445170014021679 7.552829481482352 9.28594377063736 -0.7786956162809557 1.08484663988728 0.7751068704884329
Ni 2.1663363260090245 0.05748523003826861 7.510168073188405 1.4520076275180736 1.0550997476421506 1.7975492371068784
Ni 6.736919317665857 7.612780117988808 1.6504350233439338 0.04338453763322205 0.17893849561285313 0.9798253032788674
Ni 2.065569413192862 7.977182147032436 5.492181650950806 1.180986871955979 -1.6878942583811962 0.18362124580050312
Ni 4.5726044218946935 1.7292828019781283 1.9690142748859985 -1.8346317437814728 -1.3967605341193108 2.0028443683363895
Ni 5.7711187171706335 0.6609356916354199 10.111842938122415 -0.868274650192369 0.5586433813469283 -0.7931747837337372
Ni 8.934140144021395 3.6332485594427344 0.6136213016843666 -0.3999528373498338 0.19960862236769494 -0.9375180578702241
Ni 3.8831028750075145 -0.07774752984719413 11.473824481660968 0.5226985878212029 0.07966331745959829 0.529164912271837
P 3.319400746895775 7.548860463207099 3.5893909075011754 -0.49360192756556276 -0.23183380094998782 0.488777509593726
Ni 8.342599506332522 7.6928250632981205 6.270393525372433 0.39054491377237255 -0.25256897661481015 0.23475174592773118
P 7.531064492893865 8.617892459959165 13.337033036576242 -0.3189126941473669 0.16027331510318205 -0.3273443698544879
Ni 2.914274744293028 7.891682109163414 9.678852581172372 0.5158473692273245 0.3439390409883754 -0.2717301229242933
P 1.2013849108192052 2.439847836549331 1.4540212312866867 0.753834848483534 -0.6544025759271246 0.04952073243794697
P 1.801565085963048 7.212924602444596 7.43131383336167 -1.1679837748280917 -1.151918750945429 0.861708052718445
P 8.770819657132215 1.2257343764241366 4.899157708059996 -0.7498876909103278 -0.3063628825068143 -0.10102738495767116
Ni 3.38008057513187 2.3254570377464825 6.556752655766987 1.066717277276421 -0.22701966739079613 -0.3807179003796218
Ni 2.2308374881194344 4.323996193462842 5.98688378088851 -1.2750293409553848 -0.9168821267874273 -1.4768830506035147
Ni 6.1451386928254585 8.318093126051593 11.620226797395 0.7036949944043492 -1.7509328227999204 1.446024413351445
Ni 3.9518868847451754 4.016489579881231 1.938375299856048 0.6439181314560329 0.23757738830198438 -3.80007401732032
Ni 5.505379098229779 5.8581509806994045 7.330667837148776 0.04155674039586391 -1.0910057175101404 1.8706978933764105
Ni 4.152894584699153 3.441184996020667 8.812316204713749 0.3483639095289484 -0.8877723539056646 -0.1145902112437704
Ni 7.324287871028181 8.435280698197237 4.092360594808985 0.8599360484196868 0.5801496308498202 0.08167417724203997
Ni 1.1767216158622766 2.374783627660339 3.5723961250630407 0.07909381810937345 -0.42389880664247 0.2718561069791963
Ni 9.33550019440018 4.118465658730087 4.797999431581343 -0.5807872644338191 0.0025374217098730494 0.3726263816207389
Ni 3.1540680600437914 6.241364310312726 1.695772288377407 -0.9537023809395704 1.1158469449235364 -0.6635423334448637
Ni 8.891016298947005 4.3978383939326875 9.822646421174806 -0.9014711915489959 0.6637958442165666 0.19240953351609444
Ni 2.0120891995025767 1.3078561336216632 11.168065159147973 0.9350870798312283 0.12603264875275713 -1.2703561038494315
Ni 2.7750083542069 8.038923456900285 13.323334385361582 0.8726920625337744 -0.21579114566482835 0.04637473060979755
Ni 5.902927045009307 2.8616529461832045 7.225969750185101 0.28827105800211 1.1334399754149511 0.6944583062974298
Ni 1.6434966255822856 0.9469154577250598 5.45804347864609 -0.7396462156879777 1.672895470979519 0.08953403960609096
Ni 0.6877459485710089 5.667296583310032 -0.20223809561930614 0.21390241328254775 -0.04266411452742975 1.9854637109660969
Ni 5.138937178398172 8.747236304357157 3.177312661724193 -0.13331092758172525 -0.06854818138304324 -0.5860960782412422
Ni 5.201103080918722 6.860678845653317 13.526462279496549 -0.41312125641099173 -0.010476474051291635 0.5182258967618302
Ni 0.9389774211745515 1.2424319440053804 13.218974126465055 -1.7766202002636953 -0.5793397333540151 0.043389422729228494
Ni 4.191864805997113 6.670341343667233 11.487752966724592 -0.695416299335325 -0.7465390861530691 -1.058499774462635
Ni 5.700922475348987 4.6507756213670834 12.277946661199959 -2.3468474297934807 0.1454727597552398 0.9908368238980226
Ni 8.43591758717629 7.202097489800705 11.030417759307149 -0.596966702407159 -0.633684883763799 0.17283238271511525
Ni 2.8139508846796843 5.187774563733915 7.9258673558709285 0.6674915479005988 1.2486973879290753 0.9115725416490559
Ni 3.1550556994750756 1.5605718344546495 13.458928972029346 2.987856100912203 -0.04857353803332925 -1.4782639901114414
Ni 6.920758706010595 1.051088342037894 6.320553609124093 0.9428042459698279 -1.5552443614222378 -0.371180907423464
P 3.5914538739768025 1.230792567156321 9.602051154518696 0.013352252937189907 -0.09828170389173396 0.3115354278466893
Ni 1.6556805886598103 6.6887557424094 11.564405785949821 1.5437453596437027 1.4333470749940926 -1.4475519057395652
P 7.2367479423711805 4.170099817408627 8.573063783081427 -1.6200801269507004 0.047620687201756697 -1.0461402244560178
Ni 6.225386704186063 2.8447246217254927 1.201276916601018 0.19659246124919047 1.822774330222254 -1.465781027153082
P 4.341386031673491 5.70235316798309 9.400503483473784 -0.22300823223855787 -0.8231746725299371 0.7062745822060675
P 3.5249774330038237 5.285301650004464 13.281698460626659 0.921940000926309 0.3171129219344667 -0.5181839877803011
P 5.792994469059826 2.27348135889077 12.518793151334924 -0.034369992839437584 0.4415430020867944 -0.11900016738600794
Ni 6.257249613688801 5.1018683937623095 1.2533439751798117 0.11754980809272658 0.507690287337829 0.8163409374375553
