# total energy = -381171.92626456445 ev
CRYSTAL
PRIMVEC
9.24668405656622 0.00000000000000 0.00000000000000

0.00000000000000 9.24668405656622 0.00000000000000

0.00000000000000 0.00000000000000 13.53345678592757

PRIMCOORD
 96 1
Ni 2.594101655949408 4.923757402314233 9.354623099441806 0.49731151520666617 -0.27299459145901367 -1.7005070620492002
Ni 3.2846162610072023 3.418711669266079 11.007220014993653 0.6550841753751815 -3.4730939727837864 0.1736872745162428
Ni 3.627548022564019 2.234840250827208 12.998546074321757 -0.24462786739086256 0.502727801126231 0.9937318860576306
Ni 0.34181198815038005 0.9138811972564381 0.47794074217371174 -0.4929180141246608 0.186082305746486 -0.07608459896940444
Ni 0.42986908250909667 -0.33077976972577194 3.579626159176731 -0.16131641165571572 1.1483821985470803 0.8691233713459096
Ni 2.7705283825787945 9.588441218323322 8.886622542337621 -1.3372739487179033 -0.3046998929820946 -1.777967715430525
Ni 1.248570464886765 5.40662847628243 2.4199718055723656 -0.2050022825794405 -0.176744830395644 0.2355241053173815
Ni 4.726645844056442 0.4622972025452214 4.752827829195389 -0.320972404889873 0.03412702359069607 -0.03732419037175507
Ni 3.082539233556541 4.398462543137669 0.582762998904113 -0.3442228907773814 0.6151562288319921 0.35927567134544575
Ni 2.1543571151572825 3.7694198918865918 4.832959590881463 -0.057004185299185696 0.14116307663629235 -1.966363499801536
Ni 2.6690552747155403 7.189611030558368 7.945302735615772 -0.07884699220589002 0.08567044288562665 -0.43980185102597164
Ni 0.221027181200885 4.009482296328528 0.07427028883437621 1.6890245153308978 1.0957938829274032 1.081829450327511
Ni 0.05099268707248845 5.985600334834444 7.5363894125699975 0.2277290347529949 -1.076678502254191 0.340543127932949
Ni 3.9820566322204165 4.06395451050954 7.592566715241076 0.6835845968077195 -0.47582943407349015 0.6521400051451931
Ni 4.42009978319599 5.5450975659719 2.3261438558630516 -1.307550967732174 1.3634182112134388 -0.5296310532749782
Ni 7.666064905979354 3.2376800941114596 4.410743063873334 -0.6183765355415027 0.9055775004078855 -0.3535390259719847
Ni 8.381147949855507 2.6999299518756827 12.25765738533673 -0.8894651682270551 1.0315669546275332 -0.5406222621791593
Ni 9.257779806150007 4.02467459778828 6.075737008376544 1.213304353141762 1.588510322564219 0.7863965844696392
Ni 7.159550061571359 7.427537451045828 7.729634007668647 -0.5822417374921585 -0.952665969255256 -0.09634360632875666
Ni 8.92911567767438 6.10018524030569 12.260025461054225 -0.5232413476985505 -0.8356640632461996 -1.444596422655667
Ni 5.516062978885093 3.8951008179005657 1.4634134639718357 1.3603809670490121 -1.5842500046259682 -1.4841068220454634
Ni 0.38380117922082263 7.955504601836433 8.448517438580684 0.4953569625834566 1.3563379073278898 -0.16829387141481336
Ni 0.8017864237286568 3.9218792141436842 10.812053959004354 -0.20559517896843305 0.03669169899407875 0.7833354290458122
Ni 0.955006748061305 2.8579465310879257 2.829507430436912 -0.42937011416968635 0.4994997811072365 -0.2420184547924735
P 6.026979244775037 3.048252530079509 8.062435102469953 0.4540678740266825 -0.6451311779275276 0.5720403714791246
Ni 5.260521625786049 4.257728015920726 12.542212058149873 -1.144814792910796 0.44694591826992053 -0.17452699680871875
P 1.6575975221431027 2.0885484666551153 9.774958850967941 0.4150444415756336 0.7506579934174491 -1.3459555356523014
Ni 7.982421698336336 0.561135930197956 12.19718962138913 -1.469422480560411 -2.816911165027787 0.5740242346783727
P 7.223860747300257 4.478104230583105 -0.3180794495462404 0.7783572591049305 -0.13448463617485226 0.3104889888600459
P 8.003078789913383 7.985907698123509 5.593648203856609 0.09317112213804599 0.4035618948573308 -0.00011389987004496514
P 5.7200540698793745 -0.07555372854381849 11.32881597838356 -0.015102917079709472 -0.14093553400651856 -0.882360438861474
Ni 3.7097880281532105 2.41675026094146 9.110831507429134 0.3327979367698914 -1.2997962634874194 -1.1536182501350392
Ni 3.1225496342968633 8.278666953459622 3.1625655830474573 -0.5763819362772719 -0.4998522793506488 -0.299302119005291
Ni 6.01933223728434 5.004961779319435 3.7007910048298145 2.5483566116179985 -0.688006637134815 0.9188238238948304
Ni 7.620182861035171 3.4680704673136504 10.082113343621486 0.3342601231377147 0.5131199429938323 -0.050519348905790414
Ni 3.1100666111862934 7.685251774834489 10.159795658772753 1.0361352907245058 -0.7736526545404095 1.0797224312868372
Ni 6.420222212809343 5.88016964631095 10.96352111209125 0.13027188364508532 -1.0574535925863078 0.4533520789065805
Ni 2.2701163494693 5.2834626482581415 6.586732795747045 -0.40638882278316457 0.7596488840621498 0.25618034811515233
Ni 3.3852294272783947 5.801119746627793 4.42262505253784 -2.3461133798409333 0.6879228191717572 0.3630004284952006
Ni 5.386581665835234 3.8046497571097557 9.963642056955152 -0.26433280201895765 0.5944063978791505 -0.5280449397347808
Ni 5.002224760918896 5.394099219752932 6.24110192719321 0.9155940041036231 1.8202009130681231 -1.2761045762974346
Ni 7.095341089364101 5.034504934014452 7.675580668263123 -0.2535897045698407 -1.3515425428217755 0.9759370239680547
Ni 4.943711745923573 6.355486179626307 8.668530258570287 -0.002432777811208713 -0.35284457100812133 -0.1284314880022369
Ni 7.0221998206199485 1.7835281086192882 0.6250675018916447 -0.14015648974864892 0.9137029577284974 0.10531289970690248
Ni 2.9893604010489767 7.96047931771309 5.665023355997712 -1.439641906863869 -0.0659855628621896 -0.8470759046275669
Ni 6.004999877416649 2.1764844294562407 3.2682616513955987 -1.657982301313112 -0.3808174020719635 -0.5183436532866169
Ni 5.0589901526787395 0.4007263092219982 13.3496583770237 1.3838399694029007 0.5014797876517428 -0.08047655738951302
Ni 2.1914178237699966 0.887665924055863 2.0158085039872575 -0.27656816774288495 -1.0702070355972342 0.23871587278180179
Ni 0.10080919596744765 2.009165686355677 5.013563969245187 1.2695014691586202 -1.9783440692021799 0.28300003941115776
Ni 8.124154867402124 2.4116553381755907 7.152079665740966 -3.465038449469161 0.9072890837823536 -0.732696523843022
Ni 0.839360323291472 7.890796308704753 1.6543436141189474 0.6806008315890472 -0.7448442149491494 -1.080439769068836
Ni 4.297978830439475 7.392252105719951 12.394047820511195 0.0515912418137305 -0.271985433468209 -1.3004485523594378
Ni 7.278693582148908 7.911971214573795 10.27557431112072 -1.2492185505398679 1.3155473556740893 -0.49395468291929123
Ni 8.160466594628204 5.989678122383897 1.0295183753424857 0.3189060092791476 1.0825154206509422 0.288656980586619
Ni 1.9096066420360436 7.013073343723553 12.9461719326917 -0.7086096580971473 0.311996683753824 0.38828517120391837
Ni 2.6533636523313646 5.078380448577158 11.994093609385295 -1.1319173681228378 3.234269085227946 0.6931133622337612
P 6.357908810778135 6.611166232982133 2.1515895827002502 -0.2918837150540328 1.0271225457029343 -0.32888368931714973
Ni 7.558405766663528 5.784004134940635 5.464511792111954 -0.0031316036504462196 0.28189472216212097 0.5831408522676602
P 1.7881422038283064 2.630894210732339 0.7702644787035217 0.13061306903458797 -0.060836414561082325 -0.6361649698731753
Ni 0.17434714744600374 8.376589334749202 10.6549176640885 1.1287433412702301 0.25073783694334234 2.193680129607461
P 4.47072537692219 0.6315623725826554 2.1708615210462128 0.38685846605972085 0.42917779565322217 0.7540657335474175
P 4.279032375362766 5.532540569391045 10.600499080673444 -0.1680673572263041 1.5210034379614967 1.0293282951050016
P 9.05518496440735 4.807905701164359 4.082718805915674 0.855503723679946 0.9211828110453104 -1.230547970713558
Ni 7.9925098303464335 0.20746784409767044 7.584351961365942 -1.3889022144171563 -0.5985692710075884 -0.9100455634815681
Ni 0.6105640783739198 1.2535544274472072 7.773373595979705 2.9918791060286667 0.05485397172540231 1.8421807597733242
Ni 5.027653141329316 7.270214373117507 4.181107220068049 1.4217717114516675 0.45829451051352044 0.04647346097119093
Ni 5.8920608816592415 3.0761960084796143 5.937857857112597 -1.0181396254780337 0.5014399355527428 -0.40358683455799527
Ni 8.049081041746778 6.990992262843523 3.41738754414798 0.812085504595311 0.12681400700347192 -0.11710063637044993
Ni 7.013443211074978 1.1494275213374836 5.47165762934147 0.48757577597614093 -2.113508505052876 -0.8044218174024663
Ni 4.946781644940395 8.777285129914707 8.988610690487734 0.7785094684120786 -2.107612194173099 2.0593214774875115
Ni 8.983421451547251 1.3450596101895769 10.335311587049256 -0.1712436980717567 0.9602039295035141 -1.8660868769669603
Ni 4.723844098869404 7.836693961875165 1.1332116119826643 0.2803173503726721 -0.7182304690163631 1.612289427261688
Ni 5.9801262980333645 2.2169109309669155 11.597441389039236 -0.12825279633252748 -1.4516114205209194 0.30292223225638154
Ni 7.912276355138719 3.9088321433221926 2.0310063534572813 0.07515925894165766 -0.6707445076202577 0.4031116946937896
Ni 8.20168831094444 1.4718871249929661 2.7074900405387954 0.2694765510034262 -0.48973267441814367 0.05528206040175641
Ni 0.9893489316410505 6.868307262376086 4.740621281930009 -0.24879613983593926 -0.8188662749625705 0.1807809481382306
Ni 5.014624563875396 7.872922468947174 6.531990578399492 1.3894328901096458 0.026193884786548435 1.2040260131636298
Ni 6.672018658975215 7.206726642245527 13.032136502509733 -0.2553388260504635 -0.021252481620873075 -0.7974556704972782
Ni 1.3012488224133694 6.435396020901525 10.28927049914396 -2.1344372847857436 -0.9434611628275364 0.2854824395133793
Ni 6.887373924342008 0.9276643041072643 9.46827686385584 -1.109307858253438 1.1871991714142778 0.28904213184017963
Ni 3.510272332111162 2.8055918074938173 2.261413370690286 0.7723727593867215 -0.09748131947762567 1.4222494224190345
Ni 0.1437304527634795 3.436983116426439 8.592012100907631 1.8127542269820909 1.3147621407686323 0.22975660670598497
Ni 6.525865575059907 8.889567611123338 3.241573872653579 -0.2979813433113384 0.7187961117118459 0.24216989276867326
Ni 0.6767666356053537 9.103942728008857 6.019749262723071 0.24901751181812598 -1.2729228361353433 -0.4739088200120097
Ni 7.4406677420213905 8.681655926203957 1.0893962008645641 0.7666445986536926 0.21051447064692133 0.341940779611424
Ni 2.145554272193384 2.8063777756155943 6.836764049978244 -0.04226430798584979 -1.3291688031122657 0.7531493923807351
Ni 2.745016782014304 9.161891695293257 13.192183653481296 -0.7928158577324217 0.04508429393314816 1.5209587007664902
Ni 5.077076666163387 0.9712624181564026 7.437621884382412 1.3244086627194611 2.0630279798048208 -1.4669758187921318
P 2.888904428402139 6.561335854061496 1.384702917583611 -1.9846283595489946 1.16893225478429 -0.8541307545918192
Ni 3.444093816257571 0.5587456624393766 11.141823990860738 2.3611085676981856 -0.1526322536181565 -1.0334747131732072
P -0.1947148178205609 8.005427447594927 13.19097881058403 0.08952195542123292 0.6367352405543485 0.10546433768310223
Ni 2.3090633815742776 1.401751028479135 4.48257870086696 0.3846457746791182 -0.9633170212111989 0.23500114293437593
P 3.228156009812284 0.6760879290154901 6.477450863426845 -1.2518768140983214 0.4345241475668 -0.1982513370088521
P 4.3873387825435834 3.994558148698558 4.551842835099809 -0.6462670913041838 -1.7637788255246527 0.21181647728779648
P 8.31085465971732 6.095145797642533 9.801483888075333 1.0135427501359706 -0.942192580527758 -0.9677665723421204
Ni 1.5399889510739637 1.4880965616691357 11.775433579233527 -1.0671422806289814 0.7688678315572565 2.1585411198124826
