# total energy = -381172.193296405 ev
CRYSTAL
PRIMVEC
9.18381253130431 0.00000000000000 0.00000000000000

0.00000000000000 9.18381253130431 0.00000000000000

0.00000000000000 0.00000000000000 13.44143795355830

PRIMCOORD
 96 1
Ni 6.227579816198447 6.575572829652712 7.939870383661291 -0.7011765988578699 0.5022326066573674 -0.44691506503198514
Ni 2.3558774352463727 2.7838798209484366 3.020990240542712 -0.8462847761848392 0.5340620924631382 1.5609743219274794
Ni 0.1079538761361819 4.153498475769732 2.2075010095293046 0.09802819312003118 -0.4451859981560204 -0.0026734330671050735
Ni 3.406735150978041 5.883012364710253 7.165173575555907 2.046410425852798 0.14712983574268854 1.135416896635664
Ni 3.3629375503984096 0.2566113265078397 5.092315518917758 -1.9254783315514 -2.0661333582030226 -2.425035448259133
Ni 6.66921097926687 0.34863404354872135 10.467317962440598 1.7631329644105378 1.2875215598851246 0.6341731362541272
Ni 7.678612966540486 3.9464402449732607 4.14710011378109 -0.12402127474968318 0.8145123688692487 -0.3874853010104424
Ni 0.42629695176882065 6.279835707852484 10.69243524162872 -0.15647810972680792 -0.28693742679235096 -0.3401829163800528
Ni 5.868740720486989 2.4815946410200307 3.49574190407882 -0.3587141424150209 -0.20609962940867732 -0.020329969806603697
Ni 0.718413814783457 2.716801256336647 12.344078668192486 0.5704691703372626 -1.6456944850846948 -0.505343127261891
Ni 8.202907623594497 0.9114575480994253 12.422011580492486 -0.1758824823953487 0.5694101329451291 -0.0956792332718804
Ni 3.587500127327147 7.294242872797707 12.055732678484201 -0.08985851282504526 0.28126737299076715 1.5616608064715427
Ni 0.35993564289309016 9.100606902574958 0.7632960235888074 0.07319827856054491 0.03984747101424105 0.3442110637028395
Ni 2.4359327265553783 1.8519616575562121 0.9762989360491903 -0.3730799242183897 -0.7758208658363219 -0.506328888213928
Ni 3.2921670932655434 5.420341087796592 4.907670381896626 -1.5577676420647237 0.44439872636803457 -1.8839658141299103
Ni 8.101692828881115 7.648554349074113 12.635973282950879 0.7386185457544118 2.0101306175851574 -1.5301971886456227
Ni 5.483645105577133 4.668480747210879 11.58563169746718 -0.8754254023045376 -0.05402196274241019 -0.030542391563231266
Ni 1.2317696330766377 7.191172948011546 1.8481972129184285 -1.1654278411754575 -0.023161782828443982 -0.9848600374892974
Ni 3.836831445871163 7.883255854717446 3.181009903419532 -0.22014762286131118 -0.22615603383892016 0.7425271367801987
Ni 1.2459402553652459 7.219128472474618 12.708731117052801 0.10272405593380374 -0.3416800697508697 0.6595108436879674
Ni 5.159915724064865 7.2689873891336285 1.4457744994525663 4.107740449129906 -0.7059737631361971 -0.6745188870610254
Ni 6.798509871814707 2.9157593647361297 10.041156931092951 1.3932383798986652 0.056587666587057384 -1.4784483382081055
Ni 2.0610035917968434 8.11169400041209 10.330027316480223 -0.2893961727454887 0.48164886896874465 1.4972772979891504
Ni 8.8837219926801 5.052520223712964 7.220135018296285 0.12034074057430241 -0.9553787402007288 0.4516865182786995
P 5.197394861822356 7.450532989523261 9.86140492923408 -0.22379498980591137 0.06867262277604948 -0.5827752413981253
Ni 8.264080996935014 2.462878031671889 7.8784563944400485 -0.42961514030095693 1.4681173885957426 -0.6183585378193738
P 8.968121227179326 7.42544281447953 5.240319081857822 -0.044170780979943286 0.10838433954337462 -0.7129761625959592
Ni 2.585711520401721 2.174497143477088 6.340057638244782 0.6696651585131499 -0.13447255198999422 -0.93557841764535
P 7.844399145123733 3.5702712955621254 11.851597655124195 0.9804194852194404 -0.8791946395389826 -3.575750151594132
P 5.137103134457021 6.398316069579852 5.591705513935316 -0.15763664881128336 0.7994901844288038 1.0915903863690168
P 2.4854885774104196 5.429368775229969 12.395075459188217 -0.010202651564614687 -0.4024236674878295 -0.19407329437176254
Ni 4.689346368623528 8.15871511908848 6.595995791315321 -1.5266745202043448 -0.6384190560146747 -0.7649533269941987
Ni 7.5253259564178965 7.5166931729109026 9.84053012400919 0.6553667396126068 -0.49684434576226044 -0.09113840797873336
Ni 0.31799317238623825 4.62804442191163 13.309993467740231 -1.1585177443191854 2.721731497100145 -0.9016858786629631
Ni 5.226645303811479 0.3552528170311581 2.322922243399036 0.950506242599776 0.9929163321348706 0.726510192526652
Ni 7.858110576800267 0.28443827759953255 8.127687609430632 1.124633689977231 0.12935399981650628 0.657774320612835
Ni 1.8624863063849515 7.143784476845494 3.9709500030833293 -1.3252753815951306 0.3941992226955082 2.411935163431749
Ni 5.726703880360216 -0.013761942643861963 8.326217752179662 -1.180269019953348 0.18059325760745673 0.5683567519799503
Ni 4.465940952037218 4.030628251790933 6.361254795279349 0.4861287591169693 -2.1177911915886303 0.20120039233484704
Ni 4.984201844448574 1.3150576262946452 6.046872697866462 2.3357379501438804 0.8634044665842614 1.9910388910610288
Ni 5.8590334309477425 2.2055935317267488 11.956440974054185 -0.024779778047841195 -0.49636766323615805 1.8812635847073986
Ni 0.6447238237390233 4.906534344322354 4.579255419378753 0.22610101223126866 1.2198038448231765 -1.320081753209333
Ni 8.376362285399383 6.353260286723138 3.366663423024779 -0.5384257687484728 0.386378955320141 -0.7673830194816138
Ni 5.841878069680652 7.556789697157217 11.941144416384773 0.3703653535007041 -0.8594616798864294 -0.10679128402464189
Ni 2.2649209588067274 4.3805957848771175 0.8969902886754174 0.4946077431222578 -1.9555846640184773 0.21285468874432373
Ni 1.5604490893870655 7.035406308583756 6.644250295975745 -0.6352607128913511 0.49302702889869926 -1.4675373477225564
Ni 7.405550677164478 5.138186824301516 9.452031906663864 1.5262595441541134 0.16987818518279774 -0.614338103806071
Ni 7.107728829985432 2.3397047418891215 5.749279527612229 -0.6967494163244516 0.27307121033322007 -0.30052287878626954
Ni 2.0099875147954065 0.23942841380402538 2.9641598920111925 1.4793865337516587 0.8980068871494792 -0.7375919042621104
Ni 7.2251346856805485 5.932338620259257 5.595683941398327 0.530690604887744 0.17012552530691344 0.3192950171874501
Ni 5.131455089928509 2.675317976441869 0.9701301693665864 0.7223030964238398 -1.954532825715195 0.4675728504916528
Ni 3.5454474510733975 3.2064821250525086 12.695773676361293 -0.04975958792163043 0.45881053091799046 -1.7132155107548042
Ni 8.886376114417887 1.7075278424344125 10.180437709166055 0.07785917437132399 -1.0596359449496073 0.04623460548750747
Ni 1.0459627438069579 1.3917700099477508 7.941644696186346 -0.6007562513565783 1.0041631086932836 1.480163264016683
Ni 0.3492300729631936 3.6988997698163333 9.31997052339379 0.04772970197579522 1.3673838807294063 0.20652566120250235
Ni 1.8887152741466264 4.256678606302791 6.3313872011075985 0.13511507066999956 0.61160862069005 2.346437595949572
P 7.52132181428061 8.262620770788617 1.7933836295551382 -0.32897984857538176 -0.5119192378175119 -0.008871077237384723
Ni 3.645422431134179 8.774691773749215 0.9067141090766994 -2.065971378703861 0.05922304732737543 -0.4502302454481472
P 6.55623172107215 4.440299748258997 2.249075209165273 0.12848188162419807 0.357910415566803 -0.3686213742264039
Ni 1.7201280328297266 5.785333337709842 8.758588877365 -1.2083922605521253 -0.6400864164147686 -0.4282573407214818
P 2.2727914858976783 9.293650635890925 6.905175259093409 0.4972246119198146 -2.193934411710112 0.06802367633814091
P 9.210720811350336 8.793252258289252 10.795450063541434 -0.1831427635021878 -0.5362537007978183 0.418896211221556
P 5.22349525621265 2.4615004598356665 7.994241307274542 -0.3374729736480575 -0.25355370912558267 0.3813120823201949
Ni 5.12811218227261 4.7744068376041415 9.133752199335692 -0.5869396571884601 0.6336704855860957 -0.8038569460379317
Ni 7.605234306731038 1.393634323832772 1.692988949274921 -1.3154817925434763 -0.4524534783517111 0.49715647768604054
Ni 6.091549189277603 7.626448913008864 3.824546260235732 -0.20665755879467634 -0.8038168368286156 0.21320821542900056
Ni 4.28950155125385 4.138088038828523 2.600636133675355 -2.298876815451473 -0.4213780971031453 -0.8444029857810941
Ni 6.240014697973414 0.10757091116571209 0.10220480967301368 -0.5526133731027644 -0.15096463610774646 -0.07984175201899153
Ni 4.491012759456465 0.3162813097844258 10.761349650307583 -1.6748320258805998 -0.3616076619127321 0.6549746463805107
Ni 6.827530718497792 8.70094576145011 6.042894270403452 0.7131718235465331 -0.111320282243247 -0.09612146301562156
Ni 3.1932207001758077 7.860204485991325 8.431356789863829 0.9122382002575128 -0.24593115958331838 -0.2625425428877543
Ni 4.922624383369432 4.864463300444122 0.4887523852982485 1.0950104677941594 1.471413799958827 -0.6790602265748047
Ni 8.414172040397567 7.3512743468173145 7.329414118538913 -0.8851470004676755 -1.2010507325853896 -0.7078630097391099
Ni 7.520430984493187 5.64781493320588 11.615647151016018 0.3657972745140474 0.48023836177446316 1.1709932510783767
Ni 2.2174039142692954 0.14586832659391946 12.413489921113612 -0.019313098506315123 1.0224184553590456 0.2527296705623906
Ni 9.139041156805563 8.803666701371094 3.3506275684699265 -0.8281232747844641 -1.5118132868217964 0.5302748575065642
Ni 6.609176398644299 4.022013835908422 7.549894490926311 0.19925535279333426 0.5524009999816423 -1.1650406330393677
Ni 9.008860618282544 1.9717553044341136 3.697726078611872 0.9271089467217583 0.6840751632908928 -0.09554502168686126
Ni 3.229671250962253 6.369570737264012 1.2184990243876952 0.10643055825111347 0.5857289247098106 -1.3326292508570405
Ni 7.401004690104944 3.554080234580391 0.30823353511721446 -0.9944589940316421 -0.29272395156714104 3.200347749890153
Ni 7.633805146614291 6.217468438920574 0.7096175594185647 -0.9048982149526739 -1.2735568701749163 2.2318278443217756
Ni 4.523688763411661 2.8914498137329248 10.133432202970473 -2.268420812954461 -1.2966590034100185 0.1389205604590188
Ni 8.838969275627353 0.9377131489166004 5.975565906098693 1.2774628900975418 -0.9308951532370677 -0.4860894212386016
Ni 3.495763026846975 6.035252420237314 10.163124386328413 0.4328189919502352 -0.11539188120945933 0.146650839223741
Ni 2.1951239857714584 3.983882647481786 10.74965498379928 0.058075049765861274 0.9534151887164548 0.5996748453669414
Ni 2.1938566196821334 1.5793310073555542 10.496499525837908 -0.09659223200445301 -0.06272900359810486 0.1265700093134659
Ni 5.405399025279699 4.914156908482785 4.222614009936683 2.9576615796066936 -0.1307010007627039 0.20073733665549945
Ni 2.5051327517949513 3.0336060434188368 8.650667144571663 0.4908917277232513 2.5261661915638878 -0.7903668819712969
P 0.11216006214278101 3.186718561108838 5.731698037457135 -0.7734276830137969 -1.1621473706519727 0.3006056683080629
Ni 0.7675573124688555 8.386932853289329 8.405871710893715 0.6179579599468453 -0.23018906625771324 1.7416717092129683
P 0.2332311773034728 2.0886468666437064 1.0771968892402408 1.408885856627935 1.628635215609563 -0.325453066369046
Ni 3.549396490337235 1.0335462296564732 8.542530510571876 0.34755298359187886 -0.10249188531833961 -0.12475223937843674
P 2.27385680811769 5.352555369642208 2.797552680613556 -0.8320971718305477 -0.9240868720659828 1.6050322314786423
P 4.150522920603491 1.1637175843672503 13.066703260888662 0.5264909649840998 -0.19889385568885745 -1.0541013882846233
P 3.916188767449816 2.355822332372924 4.558394389872224 -0.4381383472806196 1.1744914940396225 -1.3992303358160418
Ni 7.115250372211207 0.4853093740889166 3.9114581857642285 -0.6282891666695244 0.7658640117339262 0.5443341638131076
