# total energy = -381168.4941367999 ev
CRYSTAL
PRIMVEC
9.22172644748362 0.00000000000000 0.00000000000000

0.00000000000000 9.22172644748362 0.00000000000000

0.00000000000000 0.00000000000000 13.49692880228300

PRIMCOORD
 96 1
Ni 8.50897898285984 0.8549905003739566 6.6980532784260705 0.9353218215498537 0.4005462479594586 1.396671316839614
Ni 6.750460348425953 1.2064046650580247 13.105868401612419 0.5718169426144087 -0.5970322655377718 0.2412270692394297
Ni 5.201321007384176 8.661128243448978 13.283164387378873 -0.37494243134842525 0.1747383414885765 0.46008991185104636
Ni 7.409371128934782 4.672344349046446 13.026587377117787 -0.5376012159646484 2.1924028055569336 0.5205897690083163
Ni 8.477376127169254 6.7077729778418504 10.711243393391984 -1.0338169270039743 0.2655401920634975 -0.5597343004182619
Ni 4.342686080815612 7.56766205917374 10.97217951362825 -0.6020361465102664 -0.33704077120664533 -0.47075510487437633
Ni 5.448297278497474 9.220158507475539 6.471034667156823 -0.12830576105765 -1.0076358977332323 0.44432493570730575
Ni 2.909325512226506 5.657897893318405 10.438389114213635 0.32099143105326655 0.4707268227396022 -0.3086678764909071
Ni 3.457400365526361 2.260586295717303 2.9963583197656405 -0.032148816818402697 1.046898442778281 0.09154361383695202
Ni 0.4547076420333017 3.589870462402716 9.019457780611125 0.6097229736315629 -0.31518536589445073 0.2700555634353478
Ni 5.5783789482877895 1.8493157506082403 10.778998182308074 1.0632136349985368 -0.7305316549812193 0.3910365086968104
Ni 0.5004114392577294 0.6153768554594798 9.067749194207533 2.252675377194746 1.8602347890615578 -0.39921981583855115
Ni 1.3686701592895836 3.640755947579446 11.936886423650387 0.010299325043479036 0.2765247160994593 -0.39433651960432087
Ni 8.053656251688937 2.2458684207006194 1.5756582590777914 0.8443453930702812 -0.7192499114198129 1.0520002827812205
Ni 3.551102325454007 3.2536002164858147 0.7685552606926425 -0.1385042988572066 0.9015285271494925 -1.2722852025513443
Ni 0.05663430929038964 3.9529021577547154 0.8941865254183882 0.9405961825749155 2.4370658970611063 -1.105335246758935
Ni 6.985033397799002 1.2286659121070689 3.6523227587532716 0.656878548271443 -0.44984817951838013 0.7355072538189397
Ni 2.3459518151593093 0.22880670397960734 13.236370582117496 -0.2786620741574362 -0.5046910955001888 1.7820755669513115
Ni 5.460516065713707 3.106421466318977 12.913402676245436 0.30807472299159844 0.3396270438765828 0.6144342630643032
Ni 6.234762975817563 5.7611351181378145 3.182859432625863 -0.31071190350412936 -0.939443299917395 1.008792894155811
Ni 8.965048673853019 0.2652878528304852 0.5158661301978674 1.1479924193078295 -0.9397986263742846 0.5606501273643119
Ni 1.9751369828937253 6.326334716992795 8.440600805252567 -0.7969697319997953 -1.0955563129953003 -1.3665112483164659
Ni 0.8972269285468347 4.19338633362256 6.772272497409013 -0.033505073735981 -0.18950778648826716 -0.3439986905817172
Ni 6.147811319468997 1.9262618340287978 8.119617414858947 0.19349865281521514 0.02837160916415759 -1.6869910298406365
P 1.4920660775842238 2.0279221436678467 7.399556445739132 0.21160436127699042 0.0783512835163941 -0.06033582077557995
Ni 1.5573743425392081 1.164132272152963 11.278074315611908 -1.9350675179017318 -0.685864908201464 -0.5832328977608342
P 6.2366534296887535 6.5854283363341155 11.933026209062678 0.1587026281819525 -0.11705307096196615 -0.1983500673702455
Ni 2.511979773680847 6.060970323834842 5.927230395260619 3.826873139791035 -1.7710378210799111 0.452599259900956
P 6.676382221853885 4.180854007715497 1.4711650351498167 -0.2108469142856756 0.31866201158914154 0.9089872974203829
P 4.3411091656352525 7.461151121553002 5.4999573886750825 -0.6536636408785711 -0.37904411222162465 0.39239996470324034
P 2.3644321544659723 5.175288074318951 13.116530561445936 -0.5255607398603465 -0.2579225276172397 1.3458300658180307
Ni 2.580626303520568 1.1130439089998125 5.1020952334621725 -0.5465998199188328 -0.8809298770625346 0.04643772263724905
Ni 2.390068553304557 7.194892220953559 12.308200151303442 0.7792689722859224 -0.031927444836215985 1.097586970272084
Ni 2.354076155942328 2.325470361267044 9.400070696965196 1.6044717309894818 -0.34654973913834514 0.15101220151623024
Ni 3.76706593135358 4.768176527726508 3.83709572012344 -1.1927743515092104 -0.4162752286589412 -0.517411885500967
Ni 5.8732620870149175 4.665086850526315 10.604496379580501 -2.101879919675012 1.7604592742331167 1.8548179889213603
Ni 4.0316095908796505 9.192050686015104 3.2170194729919666 0.3519063754645681 3.198947527108517 -0.44220660381272225
Ni 6.212474063589916 8.769677182560123 11.22432917314027 1.007900721358845 0.38920614035629103 -1.673881231931556
Ni 4.400773734155267 6.579692422637137 8.448739900797507 -1.0166596984983975 0.2789626361169905 -0.15575074464248015
Ni 4.845795797159734 4.911749582948782 5.696972191576985 0.9110236111241214 0.10593125001719177 1.3971279447610583
Ni 7.697577737892438 8.013560186167293 12.79194332045299 -0.1651941494435671 -1.127153628185607 0.6082024232219783
Ni 1.2144183451266326 2.5406870073443417 3.749635946661203 0.28342992785972476 -0.15946136072484793 -1.299067098630879
Ni 7.384223481584846 3.069221022824426 11.556366646730945 0.9379484605394234 -0.9785405230291729 -1.0401662662607698
Ni 3.6568017511690636 7.816353571360412 1.1610826472983156 -0.05246181734414191 -0.20583017779737456 -0.13043052071013664
Ni 2.911796934848355 8.412694939595934 7.519881529208863 0.9426936885338926 0.2724284345428986 0.7717729210191934
Ni 0.3662675990759056 8.017802180219721 7.653338350788718 0.8806092604983221 -0.13619441977710736 -0.08946076316599433
Ni 9.044373962633417 2.2021666602344134 12.936900556778026 0.6669742419445481 0.3741579877739169 -0.7237704249979857
Ni 1.3584432649327527 2.1217624294885074 1.3578041993070282 0.39675258524498125 0.6247667553385627 -0.7267788728070064
Ni 8.332447478195443 0.7516306265960763 11.224274764955686 0.34282446776795794 0.06418193399454752 0.705465713151527
Ni 7.637350644074166 0.09788770145024864 9.194944463696956 -2.2140782336478386 -1.142402583924878 -1.4325220079896361
Ni 1.947324256671721 0.18848286182080204 2.320162335665789 -0.7270917760617349 -1.1122877668173683 0.6496714890000425
Ni 1.944963494764283 8.191484171488032 5.433728795445246 -0.5906039934139248 0.8598064648203579 -1.4417622956409817
Ni 8.67730315120541 6.132355706356239 1.9219626652739243 -0.19669761936848706 1.0403788964922083 -1.2981229895500548
Ni 5.227335496996998 0.11599640519101428 9.04450767766333 -1.9729249550691377 -1.533658921941978 0.21340824725494859
Ni 6.202606816554921 3.467184617025547 3.6261929975629377 -0.43284907385722227 0.8415498326030152 1.177635696095559
Ni 8.496391326595571 5.975844569274059 8.168894630986234 1.5076792100487648 0.0907529996148566 -1.9126518692106929
P 1.1072434432194276 4.498939009564165 4.620687005386699 0.04872009091352255 0.3180104940480717 -0.06965426996302843
Ni 8.101858214541195 6.699556419796821 4.1530182271779905 -0.04423505855897543 0.18154507999776473 0.02691687899550203
P 0.2698987159309501 0.4982286566659693 4.446846400427733 0.7853432035044604 0.1595562344314994 0.9939167483749269
Ni 3.6196474163055177 7.153680326561605 3.32606177445486 -0.7914729705512821 -3.0291541883300415 1.341939986735005
P 7.502556672195177 8.140635573216105 7.195954563811906 0.2120321928430284 0.4787419797345949 1.8039816229957835
P 0.5287590255993873 8.403878969347845 12.111212091407522 -0.11328794749257907 0.006366051427343875 0.4673291099119629
P 3.9086009850854486 1.250180199333838 1.1040490372634257 -0.3322801165932084 -2.24671993094226 -0.3054681386066868
Ni 3.7786853063667514 3.896640406202843 11.463386747964831 -0.8287004874441728 -2.04876992722391 -0.9469298381024274
Ni 8.516937332571242 4.261774655128654 3.0741684789312247 0.07893878058874793 -0.9787061020727597 1.8987159758558914
Ni 6.350172879222199 6.705071012064978 6.2692826635055035 -0.6819925697302512 -0.5968170642031722 -0.38972473186392237
Ni 3.236558466466496 4.153834349946773 7.690131193985187 0.10684836251482244 0.4689543042202117 0.11401274147374559
Ni 6.6511792441467446 6.912024991466242 9.054616533924788 -1.0173870635827251 0.9838264540184606 0.4085860875447996
Ni 3.6020800278927467 1.6583430227131872 11.921215944317147 1.1990753540265735 -0.39829499003143665 0.5775533308775538
Ni 4.338508638846591 5.391804983790579 1.8365408933020924 1.5603397736672742 0.5484106478753265 -1.9580367251033954
Ni 0.20073392507873716 6.060942658656239 12.735512811311642 0.7602872889770971 -0.5018384565427422 0.9818487614667994
Ni 0.4678495240422466 6.460160407620687 5.833156799767075 -3.545384137707765 -0.4398478737725586 0.6248580295007884
Ni 7.626478228883269 4.45108747230754 9.460469314890805 0.795007980287734 0.5647659493048983 1.1074147549957831
Ni 5.799608159848092 8.000990973355426 3.8717694106389358 0.389805978723819 -0.7705287641994473 -0.7114448135530973
Ni 8.610823727022908 8.789420898356314 2.7254756456490514 1.5239897742833302 -1.3551019780382598 0.6192036594284885
Ni 1.3677479866694908 6.42071908465931 3.5512581726268033 -0.6817747972924904 -0.3280691638356543 0.5520114778527073
Ni 3.837778127862309 1.570109546422692 7.2052943281082085 -1.0274830143661466 0.6058280094525308 0.3274222742802748
Ni 4.868942329924066 1.6280496521431334 4.791922472693902 0.584835980581896 0.6657408837580793 0.5849287974060184
Ni 6.445230432901382 6.8748522131502945 1.2503720112388175 -0.38519341965247206 1.1709806526728865 -1.2480160455913345
Ni 1.4735396296465562 7.803175724619283 10.19580883998032 0.15797963397299888 0.8643344345976985 -0.6725352809720934
Ni 4.643139142168102 3.112664574957006 9.24875692476986 -1.284843241722013 1.0558474244414526 -0.24180659589198353
Ni 3.002962920070746 3.2608116063749417 5.4204070897753835 -0.540313729799805 1.1525728395896602 0.5817776533715464
Ni 2.1926037301640493 4.756547930987136 1.880013954958515 -2.0477561412474152 0.18608976194565371 0.04457007330089098
Ni 8.555410374281522 2.465096517675321 5.067179011547592 0.408073152464123 0.8525184157993768 -0.3938007017055089
Ni 4.50375275064105 5.3708716653144695 12.865366704464792 1.2280840825540977 2.2733689009883555 0.6922780108166594
Ni 7.781477002868496 3.4629334012469184 7.3658270599866125 0.9508955076183946 -0.4341940179208909 0.41985317581818665
Ni 1.4569774093896863 7.096726945544662 1.32092282753903 -0.005778297244673919 0.4608951813611611 -0.9730039094816597
Ni 7.399642207792801 8.791560338834929 5.122476170538847 1.9549022932394722 -0.5350437396501173 0.3186306441305738
P 6.8241603842237835 0.0027370083364359338 1.8097895877658154 -1.1971940778434607 -0.44800341300015745 -1.9026209673372523
Ni 5.801295735742863 4.826513167673589 8.033587931130473 0.27096341996159784 -0.27312468927897476 -0.6495377916356555
P 3.196434735766251 0.1106819243814185 10.079843788658387 0.1447060567925443 0.23143682262188525 -0.31515039889145724
Ni 5.885056674825907 2.043663630292834 1.9170364191373876 -3.5477230702535865 -0.0502727801126231 -2.2811601148980003
P 7.721452787026645 2.3377444788404818 9.510583863757137 0.971851026824139 -1.0786250844576004 0.20003979636784258
P 0.8191189076249602 5.283449700929656 10.438281220017085 -0.511655442633164 -0.11114596144891181 -0.6403576677982843
P 6.589928538720169 2.5309304210237578 5.829687586370285 -1.1616087245396833 -0.2387438978062598 0.12978491670633777
Ni 7.485026170687209 4.666276453206235 5.490293941789129 -0.2505473181990911 1.0481176598973627 -0.8265441032228023
