# total energy = -340891.88936734863 ev
CRYSTAL
PRIMVEC
9.04522722980145 0.00000000000000 0.00000000000000

0.00000000000000 9.04522722980145 0.00000000000000

0.00000000000000 0.00000000000000 13.23860435639432

PRIMCOORD
 96 1
Ni 6.225006684010025 1.981501715669717 11.27603424973332 0.5954826616624648 -0.37706024902237645 0.025665523086904184
Ni 4.678245717521987 0.0848985013798397 5.686483712872042 -0.8297929491774031 0.22870476840270293 0.7330397661150537
Ni 2.7351138551287755 1.7063820887818837 4.710176273639713 -0.22290538811210642 -0.3036035745941223 1.4194163238456137
Ni 3.3964465879101096 4.5646105297066315 4.89305448380356 0.37718957551138915 -0.9598925689106824 0.19160837777103773
Ni 4.95920856110398 4.684857778518009 2.7588856164196724 0.19403935581003356 -0.18732080613927737 -0.10884456700924482
Ni 7.1104168272625685 6.120054914192182 2.8040819025740134 1.251799681003483 -0.8227936350414347 -0.9761270284916738
Ni 5.082956312795604 4.531812536311864 11.438935171366643 -0.7638086718667942 -0.2195542122516864 0.5446295835663395
Ni 5.954427761116724 7.863712383773801 12.767972094884984 -1.7410353611805498 0.589372692109985 -1.610208119252627
Ni 1.7172273160516924 6.459811733798994 0.8605556682800815 -0.1283705528573144 0.2718867031068156 -1.498845928027851
Ni 2.831499794901157 1.4960986496088051 0.19639177942247554 -0.9321220836656334 2.468959146225277 1.8200993544932524
Ni 0.38388124635208526 9.298583891273069 4.994832283438772 1.217251767825284 -0.8479778476165459 0.45938620091580235
Ni 8.696452169735187 2.5127098116675035 1.2984287795998208 0.028017311148532394 -1.0845537912372094 0.2788667339690746
Ni 6.901083136932968 0.6412161477537647 4.937284739705678 0.6732307643772212 0.6164098987334352 -0.8815394856220754
Ni 0.5302673923813895 7.651610853957494 2.777512452547043 1.0392301275997458 -0.7874466230007083 -0.6043154294627463
Ni 7.6780771883957435 3.7610958724431223 3.9371612175697557 -0.0354475421743325 1.167994573461369 0.33786635243173424
Ni 7.465342492683784 3.7053049118091086 12.656860525425156 0.8260463376507774 0.7858790214032723 -0.3018464826936995
Ni 7.932483245268679 8.682305434580906 7.058717927359882 0.7759571343038701 -0.02939208000887196 -0.8670212374012424
Ni 6.944373593741396 0.9574734674048105 0.3720247626946494 -1.0716507100222963 -0.6073254199336637 -0.12168697018955173
Ni 1.6354584632417895 6.601894160783281 9.298848916426534 0.3471236093639441 0.028075932300609712 -0.16751919803231796
Ni -0.02123638414016489 4.846197493957195 1.5729713209999028 -0.34691020780155735 0.26294440631186333 -0.37734255614948564
Ni 6.335059961901407 1.88590271065336 6.958898419387652 -0.3120185381306949 -0.7126943696894823 0.4767136364506564
Ni 3.3352375362547315 4.3236999516381625 0.3125116911169107 0.4881406473406754 0.14800812458258378 0.0728411523314423
Ni 5.99316846870354 5.712956378969249 4.792440804893641 -0.4531224793942777 0.0348261065402497 0.47419241269069945
Ni 5.218851804456664 2.89777417372175 9.119107591014286 -0.13147078904919293 0.21864301329132668 0.06847104828820466
P 0.2569550018642883 5.364045789556727 12.519761114039648 -0.47318762557526894 1.8739451966691147 0.3182128398668649
P 3.9594124761883793 6.24666095764132 12.370125017920232 1.6481447463974 0.06808692547590856 3.083658490025509
P 2.480282672583045 8.454166717150445 1.564895742262217 -0.5607426870781181 -1.0136602495504412 -0.25013517036233696
P 6.529505208456107 7.703937492619584 5.611513252736025 -0.4875472367310507 -0.6935895305392313 0.3559571484951741
P 4.786716080674238 0.9872684454087729 12.649287861313159 1.3319080564202996 0.037143698929832804 0.08481966484955715
P 3.8219883411506737 6.292375535307388 8.323666703443047 0.5977578308498865 -0.661303416812016 -0.9113930786483982
P 4.758169344007419 1.004273472320567 3.5822473109437447 -0.31972053476064294 -1.0867605690805413 -0.22887626098356065
P 0.27036183744336334 5.449125195478182 3.6829532511698884 -0.253434409938899 0.3459828108912816 -1.1093196853279796
Ni 1.5027830724214732 1.0490383011431565 2.645801282933534 -0.29068686653245424 0.6104955901315292 -0.3428923448914159
Ni 1.8047489332849473 6.637957481154198 4.694263005636564 1.5726679562153238 -0.017789719883253233 0.08659655424432182
Ni 5.915759415346555 5.692803613033357 9.187339356975151 -0.2935968410903976 -0.1993556258166244 -0.14519739460666609
Ni 8.491966721120862 2.2562323977930783 10.181108607086854 -0.1867975866459557 0.40665776017383515 -1.043857599069428
Ni 2.4301540241015758 5.009708063895759 7.1131810486584435 -0.27376129442170916 1.7252426171226674 0.7137438939999191
Ni 0.49934990169670707 8.985284360877424 8.956591091531896 0.37646709552306784 -0.45805102704414663 0.8843383885234513
Ni 1.3636946156009113 1.1461930852174012 11.27925073248323 -0.334482780671482 -0.25100548878243223 0.9123875813511836
Ni 4.028083840185369 6.609247930399924 1.5169849834609455 0.36010048123958627 0.9668535736095477 -0.5161294192441175
Ni 5.8275141799468395 7.678692263837233 7.662212764618831 -1.4396046258680304 -0.0684589641033466 0.4250241784961648
Ni 5.209064868755302 2.543970116458546 4.8443495540646 -0.379024828947915 2.1161125183346265 1.1615565311455094
Ni 0.8884529576425044 7.192258041889117 6.866439917213728 -0.23269872005344439 0.253538282506615 0.6989564512780995
Ni 4.980781427691547 4.8059914595833 6.884378411560254 0.45101366058139103 -0.7555721428896148 1.1699830646463076
Ni 7.9508721919238265 7.048303252899116 8.936057521535904 0.24090413868237223 0.6262489963110441 1.28313397234039
Ni 4.488250722691012 0.26822806837501645 10.260871228530249 1.264854714415228 0.20957473244147132 0.2149930752435652
Ni 8.50534461197328 7.138484166894109 4.807281308965013 -1.5961616684618898 -0.16496789236537396 0.46947238150721077
Ni 7.44528922424578 5.937621729200707 6.839261723404224 -0.7816282165467184 -0.1506440195435341 -0.036116028996266834
Ni 2.4055419612148783 5.0307382168584835 2.767079687632116 -0.31071344616602614 0.37506584430016693 -1.214589904722405
Ni 2.463594228619077 5.372123177339828 11.309236564778598 -2.4001047464557246 -0.2046127604505057 1.4973289771626923
Ni 1.0397307624770735 3.2638254684522776 3.5519439911778448 0.03062492397470855 0.056557584680070334 0.6056894269921376
Ni 3.736583307054313 2.7312967693007026 2.7958606956803274 -1.1197359955652975 -0.07496334088076767 -1.4117076423474462
Ni 1.030034279046519 3.3666425646790663 8.24628659481272 -0.6124694260284483 -0.10248931421517832 0.960819451600326
Ni 3.5149028817595 2.836429443660161 7.2667228738313225 1.5194859728757057 -0.5939150600650287 0.03134277597733957
Ni 3.9860235342599206 6.743397693234401 6.080543553258087 -0.6340546083983919 1.2371752462220886 -0.48158947648571904
Ni 1.1132051420539368 7.44553344537696 11.671272683207984 -1.0767777468362165 -0.4155244665358457 0.0322190079347058
P 9.224865290565024 5.466510121927366 8.102926077241923 -0.04214372324758548 -0.5749603733393969 0.21241811542753739
P 8.521960694120603 1.5551911181272895 7.965377118070503 -0.2592296764644374 0.6640856075428433 0.43698726439531194
P 1.909908743325648 3.3010918040249324 10.592882620187822 0.8336002387386354 -1.364310126900089 -2.221866105123373
P 3.974554186321541 6.416801679030067 3.7237680293263185 -0.033400944057948925 -0.8192776514683761 0.6680340506676301
P 6.759860006521351 3.916366240511131 10.295595855293215 1.572560741213498 0.4287664191474164 0.026645884722302497
P 6.2572981446882725 7.865611881460756 10.52364412045287 0.6526169447816116 -0.7770603946703779 -1.4642918442020654
P 2.3240987365798818 8.575092357992878 5.869176495880735 0.7965730107820088 0.22686077321542863 -0.42416414448871465
P 6.746744427254276 4.051284847647471 1.7396983736883789 1.571958845963441 0.6786511640618441 -0.520467127387523
Ni 5.440260872939054 2.9089721648477083 0.4705408534445454 -1.5087583020455566 0.06521706012728123 -0.41699513754410117
Ni 1.635928815049988 1.2269760082755032 7.1075811485727565 -0.8222295350078485 -0.13668987135628716 -1.164986639872981
Ni 6.803114282421456 0.46954768751107995 8.979930490968332 -0.6749688301142505 0.32783082257260315 1.2882255279306847
Ni 2.608281681002618 1.490155935416758 9.224818255384205 0.18683229653863306 0.6700281982795234 0.1386112567487161
Ni 6.470720277658367 2.153686658378712 2.727337673407462 -0.37842370502880635 -1.0652162672508623 -0.5996139102220189
Ni 4.166448678839472 7.0190690789741605 10.364371239401633 -0.13452885914922638 -0.6255596835535032 0.0770176523066351
Ni 8.309415948177339 7.3754419807282945 0.13800212504816495 -0.08920905216650443 -1.3774052695211505 0.14876454313263412
Ni 7.456677165140434 3.7618828071991466 8.148519448865109 0.7446655232794401 0.08839864045006712 0.04156239682281874
Ni 3.0954847472525975 8.602499396047524 12.470963922984465 1.1066621931004748 -2.5392739325904397 -0.4796603777838062
Ni 9.220523581566267 4.602591438218665 10.428551648153034 -0.52985473925001 0.6574621886890548 -0.6785580901274055
Ni 8.647309451005517 2.425115832617603 5.951784745763732 -0.060181554585902804 0.7062663546759514 0.026115980360761473
Ni 3.7962275344247223 2.286524863286482 11.248484297090796 -0.6465722812494283 1.795291037200321 0.12061147773718582
Ni 1.0702403134204146 3.2961802457200897 12.489643221428905 -0.8456062620605759 0.18434192601661153 1.3045553754389598
Ni 2.979126946085939 8.347912434632974 8.034786572597282 1.0021085401571 0.08381744883728791 -0.1256259002326417
Ni 5.710631755609498 8.021831998372244 3.4763114204195165 -0.4705514735040025 -0.1572764372583872 -0.09702340600460066
Ni 3.1239319864215296 8.47486219671118 3.675009732747581 0.32951592358450993 -0.0920578344692092 0.1973581357706214
Ni 3.4506365433508317 4.4800286112746175 9.554817084016312 0.6201973908003254 -0.6594501656533611 -2.1690703014785804
Ni 7.26059473248412 5.961962435274982 11.330987622339656 0.34342327769422143 0.17683816144039868 0.3318078049424802
Ni 0.8169576737509074 -0.04125166262442967 0.4451337150974506 -0.6174568519407108 1.109543628413328 -0.7018769673590041
Ni 4.489526099709397 0.17318896291495747 1.4653276916028308 1.2091332524832081 0.04555609136324412 0.45246813363973043
Ni 5.974806657729635 5.596390537579734 0.2809004315151353 -0.13017058218053065 -0.21395332112514118 0.6673599074187411
Ni 8.0044742076043 8.950324558210358 11.218631429633518 0.5447355130165844 -0.9292609600677545 -0.046643668000468055
Ni 9.369588923856888 4.9266638340674715 5.771435581091659 -0.04124332292050316 -1.087381747604308 0.3126931956002163
Ni 8.051970695005274 9.284292432485495 2.318569389265425 -0.23846287623073126 -0.6087996904863451 -0.21942951374836406
P 8.529459187370536 1.6621509283570577 3.782110648519809 -0.14259466687649638 1.462773864895642 -0.8497480521430913
P 1.8356655194469218 3.124257614596436 1.3596975297539313 0.08568381262206534 0.024594401509912482 1.5873939495715887
P 4.653308026460383 1.0473287532248965 8.202043675592687 -0.1496268911329294 -0.6344461874098557 -1.1606738714302398
P 8.390515454183268 1.6947318363018884 12.28247224489431 1.081255580101912 0.19405581087026577 0.9625516038000842
P 6.66030823727071 7.739430963684413 1.4699479935956736 -0.32126705331215644 0.22023658303069168 0.8875080445006843
P 1.7858353634591169 3.248439537187936 6.1083847622126095 -0.2029088903855215 -0.9115249762405722 -1.8703780481431467
P 6.662976579259529 3.783871754232429 5.960019520498038 0.8859083041137323 1.0152949569403869 -0.1236942304275676
P 2.454042468821814 8.548707430598355 10.351119077205638 -1.4098934719568428 -0.13011324658003398 -1.2398517646129874
