# total energy = -340887.1990060109 ev
CRYSTAL
PRIMVEC
9.12204902880495 0.00000000000000 0.00000000000000
0.00000000000000 9.12204902880495 0.00000000000000
0.00000000000000 0.00000000000000 13.35104082450589
PRIMCOORD
 96 1
Ni 6.222441388243897 2.308343569479964 11.428089958796848 0.37098833179668367 -1.147551989336301 0.6875698067077126
Ni 4.812172644624618 0.6886435319990646 5.9627886547445295 -1.1677929989735243 -0.742835926269869 0.07459490179775541
Ni 2.7193192338155354 1.8446515851613658 4.388420638747564 0.8046984681026206 1.1476900575760622 1.5820421983413722
Ni 3.604130600729114 4.651807026818492 4.75657558163231 0.6008305562379395 -0.5502736692259943 -1.0873627214409143
Ni 3.6935814112073206 2.991794831305237 2.555936954473091 1.2222646476588435 0.08278026582202519 0.5753923186704929
Ni 5.538990126418624 4.719319309946088 2.879872765826826 -0.7074853146847171 -1.0819448928594526 -2.6674907334787092
Ni 5.669718207691638 2.9904538901324553 0.4045801959257952 0.5747140616565457 -0.12991758562946013 0.4396450137331331
Ni 5.872401009855135 7.9775509424391124 12.261515912646509 -0.28736808657186635 0.6061470833548463 0.8658503570215926
Ni 2.122828463147588 6.652518622755012 0.24113041342227245 -0.0018601931371903446 -0.4997077833529846 -0.9055188792558082
Ni 0.7451272581341913 0.0808313865723467 13.204940091883834 -0.12204769596308013 0.789487307579821 0.6570700954569587
Ni 8.099576589162238 0.19483145476612979 6.6055875061174145 0.26548439912489763 -0.16931485648016 0.18762111098851555
Ni 8.721773293332896 2.6777044472153344 1.1397680696935728 0.3473884329895566 -0.30602658221331813 0.2790433687562549
Ni 6.739771019473759 1.242085529996326 4.784385059587017 2.7262936625495304 -1.8712812766837064 0.9225850907094756
Ni 0.6095535445415752 7.616253955838022 1.8075175489289894 -1.2462052176348408 0.1311486298230838 1.9318780644301565
Ni 7.8138557768230195 4.4349211946820635 3.793590993165082 1.0448778128038263 -1.3957506047975574 0.6188509040747601
Ni 7.71746308721225 4.188379581914933 12.279525573581356 1.2467968284722528 -0.39533770717532557 0.9518475871190187
Ni 8.561982364600821 7.513977544754843 8.904449618080445 -0.6292916397921098 -0.6672519210859671 0.5835619989654789
Ni 7.033865872606266 1.0551108958568411 0.1767944276848982 0.4369348138908216 -0.7372106096632917 -0.5866720053493703
Ni 2.1701354081955153 7.026239839814121 9.102111644587486 1.5385134218208019 -2.59643984027847 0.31827943143874216
Ni 0.1913103439314788 5.104634651022922 1.4449161093502936 1.379881756086101 -0.39743392758272195 -1.7251791108745838
Ni 6.6322129421386045 2.2063773080557962 7.283153222060521 0.22457609094631 0.5309240610547888 -0.6989366537837576
Ni 4.218071850740811 4.616614162569572 0.8135426240924358 -1.0898538632938843 0.7740576032883121 -1.4233524256752261
Ni 6.013108612509258 5.595355265919424 4.743758190871253 0.722989066747271 2.065165337862798 3.2533096467991647
Ni 5.272343518108565 2.7606694810006984 9.330601634995315 0.3879383293874609 -0.08905709996967243 -0.2821117232689335
P 0.5838658551364528 5.531592144846339 12.373169789890364 -1.1280260034882315 1.0856100004158658 -0.5083166080679181
P 4.135188915394597 6.317657333560185 12.637814108490044 0.4725669612721345 -0.14940500493011044 1.099846198619906
P 2.367454445667887 8.604427257641316 1.3026340410742518 0.9231448198676875 1.405207122224767 0.9911427851742156
P 6.812346039682265 7.95461811176991 5.436930820096753 -1.3050024902787074 0.4859035304800406 -0.7742668910856407
P 4.693759329224088 1.106668715642974 12.647667745597792 1.215351722589094 0.6519183760526901 0.05279323254163166
P 4.312621886495106 6.631556154625406 7.916445986384726 -0.1431608237926115 -1.5390839496122912 0.9169250642102209
P 4.834038195584872 1.3463870359118684 3.7683977188046183 -0.3933780123457935 0.2733506892468518 -0.5485317468342231
P 0.43751352868833526 5.986764135590937 3.433193440575121 0.37260298458197116 -0.005194913937378151 -0.25746898501958887
Ni 0.8538958313443672 0.4512887345728078 4.798230505247207 -1.5112561287667456 0.5106177453972691 -1.2795768511167511
Ni 2.266573708050257 6.648897169383622 4.516203210464855 -1.1081842861719562 0.7957805967877004 -0.027228753808966014
Ni 6.4194867642524365 5.923539215396724 9.157478831950176 -0.742009830824148 -0.43146890568024404 -0.3911547794422296
Ni 8.566123774753494 2.609982356965466 10.265762150229763 0.38993427677156717 0.3419654622017724 -0.8567098281729053
Ni 2.6818732235143896 5.398154815081379 6.802635618740592 -0.36395122244424416 1.1367955221507453 1.6148682437324575
Ni 1.115799886486201 9.005523743132517 8.778922929030017 0.757947842210643 0.5798125592253757 1.0122024340579923
Ni 1.2940903301733861 1.312854384543534 11.12719735490273 1.873678059050657 -0.5054644833311036 -0.7572037649557669
Ni 4.341474926831896 7.382574431871041 1.3915785778443668 0.31683215746925436 0.12848085318293356 -0.3192837043335404
Ni 6.13597348772147 7.9433706256063745 7.842080307997874 -1.2920793544591362 1.3833756281719722 0.11905853142776915
Ni 5.495733371035424 3.122057688089735 4.994343607868954 -0.7272663539663862 1.20958936618402 0.7511693858362288
Ni 0.8621129728983922 7.599423775812293 6.753917492744166 0.6323988179625238 0.49958565595282345 -0.9282957679410077
Ni 5.378314358953488 4.7705304918780325 7.306556750447516 0.03091263041845644 -0.291042192989344 -0.8770675658936506
Ni 0.797262503609012 7.708140353344341 11.173806463217883 0.04770244828228559 -0.791410749854779 -0.05403790358201016
Ni 4.792323066447933 0.2581594541117192 10.504545460497228 0.19287258919544203 0.21245153976863407 -0.12661063274341422
Ni 8.698913439054047 7.795803242258838 4.2915855297702645 -0.7434002834137713 -0.7074408346000268 0.0010402683390562729
Ni 7.685189278577549 6.675697748741665 6.8170010211820635 0.9212103218491361 -2.721441219553236 -0.5157447822111891
Ni 2.7964187902260798 5.635382816029393 2.349288797698654 -2.156483208842189 -1.1909336987560457 0.07610876733912053
Ni 2.5351906788999137 5.355135232966835 11.435446891149557 -0.03704728256128459 -0.17779898269177122 -0.08870614438815691
Ni 1.1101350941848585 3.7535132717867423 3.3054510058725257 0.47306961194016584 -0.3045844504501528 0.8260008291248225
Ni 1.471906427323261 1.3106833369304591 2.4783539294764423 -0.8741365082897848 -0.3392951144584608 -0.5389723852805621
Ni 1.4132334094774706 3.282779065798843 8.307524637889882 0.3622409246213568 -0.18054132132359876 -0.37706719100091185
Ni 3.9640775241086303 2.772929514580416 7.1888011347650655 0.07166487263515399 0.10093405391291649 0.005232709153849053
Ni 4.334122555503583 7.117779599466251 5.613592065869253 0.6777638763608844 1.0015575527496363 0.8035409574594097
Ni 8.535674375877678 7.27199695638493 13.158225167802666 -0.18794995508284404 -0.8213401904243597 -0.464700156929548
P 0.6971078810754188 5.861034937057273 7.964069466525822 -0.5142008347628371 -0.5856013979930108 -1.647714600838517
P 9.222938654099025 1.4259221793505263 8.022626634351923 -1.5479082327721407 2.848155981974682 -0.18172017212304833
P 2.2222223068117253 3.3341453225602926 10.44744325945384 0.10035144193656911 -0.09704268927831029 -0.826145582232803
P 4.287016295529133 6.524782573486572 3.4571588871678545 1.1941264946617305 0.39542821000660283 0.6973186585643604
P 6.9542303866308695 4.00064781772551 10.2115032917956 -0.23531995972637537 1.3689638236220165 -1.3608152263729534
P 6.660737588718796 8.040675520096586 10.153506217765477 -0.9703027085004127 -0.4895043604574215 -0.7291396597296991
P 2.525439208738665 8.564427073677729 5.559693528362468 1.1155250428077432 0.2821443762790818 0.5771812922501157
P 7.2815568635214944 4.303536325895851 1.5063047611221867 -1.8239326121964137 0.03286589749008533 -0.5707699894071332
Ni 2.927958733841798 1.650260725352007 0.5359532060485752 -0.2323541922298321 -0.4219085156853186 -0.2843462690264071
Ni 1.8567291777651946 1.3065236826801978 6.640086182453079 0.9940496744083656 0.49091383921043846 1.8427674855147296
Ni 7.375869726007133 0.7197980652466903 9.159134483806366 -0.5753041298320608 0.23929539943435563 -0.7712764409987491
Ni 3.1069424532373597 1.496827864629651 9.237531195555476 -0.5411110288901197 0.27066105822983066 0.2711022595323073
Ni 6.5252386759262935 2.345041571779966 2.808618618283754 0.03211076449161567 1.536008396010761 -2.25505801849431
Ni 4.403623445268365 6.869076061134841 10.59792240077656 -0.11476350359684105 0.5937718496189451 -1.2886975824710967
Ni 7.654028359895766 6.405666860328871 11.00577011458052 1.1607386632299042 -0.9653561631284148 1.7911263642996698
Ni 8.253839556324888 4.220388851134597 8.013614962347903 -0.37539083173975346 0.10766880153358878 0.5783413739964879
Ni 3.1408399865574714 8.643816264335676 12.60331543215438 1.126081735277667 -0.18816489930712754 -0.5332005157937914
Ni 0.5712546226781499 5.107763513759412 9.872693979882541 -0.33286092879734286 -0.6082415039900299 1.983479333546216
Ni 8.924702390813843 2.613494345751323 5.853429884977354 0.14353851884700441 0.2534899457671828 0.15973981119721523
Ni 3.758794938038719 3.0349877323468752 12.039768028502646 -0.0458031743770437 0.1560487354988732 -0.6218863484669741
Ni 1.197870959489711 3.420558490789953 12.641873420203567 0.5182873461273848 0.2629652322474697 -0.43602618603362325
Ni 3.3678604149045155 8.610310979113725 7.79648739591842 0.5399715159690378 -0.004597903783327565 -1.0664807357855828
Ni 6.329287945773087 8.401698845233845 3.298975263433358 -1.3428612129976938 -1.041801744981664 0.2505023238937686
Ni 3.422547097427139 8.854261930023235 3.429988864833637 0.06754673670172238 -1.3867931384939536 -0.2500117574105952
Ni 3.8905355667279147 4.638306394602733 9.487276471859213 -0.4357153396614238 0.3884754328378535 -0.8752683079013829
Ni 5.385894781501662 4.755269304244948 11.55082621312106 -0.09249595044789231 -0.06618559468813763 -0.05528051773985963
Ni 7.982148455031507 0.4937062614669194 2.301772957733334 1.5483311792421723 -0.305594379771906 0.11069190463062872
Ni 5.085441860359436 0.6708254340888995 1.5482269607667607 -0.2601118219590746 -0.0021635833102220804 -0.01501267135874834
Ni 6.266893132019168 5.947329518652605 0.18453266167721535 0.2140142562700637 -0.32569912094158104 0.6098319884056014
Ni 7.949573618786588 9.232972907772899 11.435459662017871 0.6225093267629537 -0.21958172305551216 0.21189875258895763
Ni 0.504348955795384 5.231513227704684 5.442604734446891 -0.40792171448792325 -0.7898955987618331 1.408949877096651
Ni 7.54922514129653 6.35199272522243 2.426257908811438 -0.798069135711561 1.1829511947712013 -0.2537367716706663
P 8.5869220460048 2.2205894600775222 3.635488555664856 0.6575269804887193 -0.9294211397947025 -0.04425228495015604
P 2.070349316433217 3.51690557015675 1.3282177391231174 -0.42440865639935293 0.5515134551703663 -0.17229965014009682
P 5.0979573113053975 0.8249123457098166 8.168860374165712 0.11658050220092181 1.4143196260489965 0.48157559252864807
P 8.835817147360894 1.8961637947035266 12.337803606714349 -2.1580107012303094 0.022264210714839076 1.3818468502322718
P 6.9434207588094665 7.996661634663449 0.9538278758873764 -1.112087477881104 0.630529625964269 1.402093773406766
P 2.293748291408871 3.4703283890123773 5.9849242183491 -1.3135562933859894 -1.1543836675461538 -0.47162902283889746
P 7.258852084072152 4.13280806065925 6.1337349369473175 -0.7035556406130076 0.5914779113784459 -1.187863030250522
P 2.616823893561291 8.628409123921879 10.48753557611025 0.5449278315330486 0.9654692916675115 -0.9913194199613958
