# total energy = -340861.22187119664 ev
CRYSTAL
PRIMVEC
9.31983018955061 0.00000000000000 0.00000000000000
0.00000000000000 9.31983018955061 0.00000000000000
0.00000000000000 0.00000000000000 13.64051354528378
PRIMCOORD
 96 1
Ni 4.138983263620521 7.3953040331665045 13.513274987919534 -0.4319936678354625 1.1949772726978 1.3039267407160253
Ni 4.223448886205704 5.875053304258297 3.037742788028793 0.6538945259424545 -0.143991547224023 -2.0912211544095856
Ni 1.2265269551694193 8.957680395318123 10.815863513294788 0.18097480931659155 0.1268739137071299 0.2040057229941261
Ni 5.677081467674996 4.767270307751331 9.877109620177007 0.1145462453797124 0.035311787927416606 -2.463514321060622
Ni 1.5353395342668534 3.1323577058799215 5.133116520741768 -0.3512651423361434 -0.013596764847828197 0.01869783351981941
Ni 8.483161232356123 2.601509488200406 4.775925634209994 0.3678269033495665 -0.9673163721785792 -0.06239270330460867
Ni 6.783643566404331 6.087079445029888 2.558891767913798 0.06991729381642799 -0.732020837932236 -0.10217769651203047
Ni 5.118832948726536 0.6275442536508331 13.246234820494731 -1.1566081860012984 -0.5136763297179346 0.22472110116460653
Ni 4.8110548707994605 1.919307225416248 9.862732849858139 -1.118981119677144 -0.3725754737781454 1.5630114069621661
Ni 9.142268955499313 0.827266354376416 2.454583294501503 -2.227252309135951 0.049276991858257076 1.7499804861889798
Ni 3.159273375969959 7.817594866770966 7.9549290910596655 -2.357883633002984 1.8057754816714127 -1.691630585495177
Ni 6.8185836104374165 6.1368380193410745 7.775829910962626 -2.304076100264225 3.760653606541169 -0.14952404700647798
Ni 7.116147154286002 5.172123738745523 11.725944948298997 2.3085413351244304 -0.24635153495018863 0.18102546004886888
Ni 0.2775203166686565 7.319543132140911 9.317917002412717 0.2747624819927139 -1.7427317750463664 0.921760280815335
Ni 6.419843988161738 8.888741610118673 10.340546572853665 -1.6501504639735192 -0.31078877948865186 0.5608871830757823
Ni 9.209548810894043 3.523399148275278 7.04648515025034 0.31167683852056 3.0377781825536267 -0.9218376710204899
Ni 2.28146651351485 2.7051180423523955 7.504274285726665 0.22300746090760948 -1.0994983283621838 -0.33115783006330707
Ni 2.3496597122852116 5.874838948159935 11.811948342894171 -0.29947258314488423 0.9898996567957339 0.19088332667955513
Ni 1.5219282983736526 3.609300024736453 2.6284046546636435 -2.309657965227377 -0.34739100409271784 -0.48437886630539806
Ni 7.05016275531181 5.900412562677616 5.531159951689288 0.2645066085926606 -0.7650988514331275 -1.8630884564602688
Ni 3.384701432804386 1.1982226303552075 11.48003376829148 -1.2763385466851114 0.9241917730749631 0.49566240963901725
Ni 2.5180224478033995 0.9072081313031145 8.986984737930348 0.7977976272177293 -1.54875901080821 0.07142576004115442
Ni 7.791219746842017 8.906784801702576 8.70113342489968 1.6093673685188865 0.07639955910666196 -2.2394920457352527
Ni 6.8921077521757494 1.3404805210249897 3.2937753038111643 0.10086823367198758 -0.956382755985211 -1.1683804960458781
P 4.08983979811333 3.796637934874903 8.23068609582353 1.7581218843491917 -0.33870093251788763 1.510258797850483
P 4.32556626749952 9.067505276322622 3.752177684125414 1.5785678666395266 0.8783765145130614 -0.8908211680343174
P 6.028355193908929 8.333438157565107 12.323358190384354 0.008892674503939524 -1.143095239116528 0.9701085902117358
P 8.592781077092624 3.1668317583948276 2.320141945557661 1.021039829843964 -0.27030393200072805 -0.18196391270273823
P 7.668691937051947 2.1123395519068486 7.0183849297210905 -1.2493769304946032 -0.9339825339131398 -1.8286487867251604
P 4.754474180662127 5.588254164479654 0.7616221292104955 1.4695554065938496 -0.4760032406471931 1.3937957950640318
P 6.170109813739078 8.25101357782955 6.5861041699499 -0.3558481337211355 -1.085984353036149 0.01430690354097536
P 7.674516831029188 6.633678176023864 9.751412136080281 -1.874782090748113 1.0629236145619436 2.127117096975246
Ni 7.31104344684932 8.311853430443042 3.2291870154254383 1.051887154242124 0.9061318302494588 0.7231114512577482
Ni 2.3320918320498514 9.133098242421545 13.297645800729383 2.2170020921628524 -0.24926279505971263 0.07344330469181545
Ni 4.035794101834893 3.841447679263026 6.06710984450983 -0.499390766333198 -0.8528454601214924 -0.5815904770614049
Ni 0.37980638689205315 1.8291192269878227 9.401628650721484 -0.869428304180838 0.13208811091821768 1.2338616084678233
Ni 0.9563264332683236 6.876711392415105 0.20761786100961338 0.562911669704979 1.2257443786773279 0.4690586910085599
Ni 4.538282075718015 6.21301831273303 6.751753902849248 0.4579067881567985 0.20647886712496696 -0.3089324430062034
Ni 8.477550694477243 7.426180631161066 6.509484912547821 -0.2567447052590546 3.006283711489771 2.765909991389572
Ni 6.488083786083917 4.081153716214468 6.850279421520938 -0.261882283595936 0.026800922242928037 -0.6562625119539988
Ni 2.2938618878984203 4.934719699893888 7.740664327034742 0.6849948468916848 2.7448344016661954 -0.3849630488092209
Ni 3.204381354929717 7.3427774692373315 4.464048694889013 -0.9894404577711283 0.21931021456168037 -1.3178703473803108
Ni 6.169727700694171 2.414973083473225 5.1650490555165245 -1.0571404322212632 0.21984963200491817 0.827673074620923
Ni 7.661198793439623 0.6507012361552361 12.085972791193447 0.6315508681399317 -1.0931991256170335 2.100677671836795
Ni 7.239252793558614 0.46089077502132725 0.8812906150450172 1.3555454933335815 0.7689076836562564 -0.19548740111046978
Ni 5.628487872159256 7.21024016163677 4.361131672150002 -0.8958592446788571 1.577329623357051 1.1077189164997632
Ni 1.7323514283227055 5.500414763302853 4.388466734606401 0.5819360333262817 -0.5802360199160395 0.14953073187469731
Ni 0.43479804595239446 4.75357015711686 10.697954611432912 -1.0653844173976101 2.4542143838159345 0.0027428528524597925
Ni 6.6238923541420975 6.659009474952091 13.728631104080035 -0.2597888914020171 0.5521395187901394 -0.9501416601715057
Ni 6.237016875919265 2.5936808306949937 8.470909383360151 2.0521797242364075 0.26963775917163885 0.5518906360041269
Ni 4.745145030468177 1.8233595718231264 2.469506206879678 -1.0360571291884029 -0.4132513542309528 -0.5348874165779111
Ni 8.911873429081096 4.822508942316308 4.05757547737763 -1.3365902923873174 -1.735463266409411 -0.45044416123116615
Ni 3.65583393774184 8.220528412710259 11.463774392239166 0.6796821764295197 -0.3537971647293778 -1.706208740419668
Ni 3.3328831759828454 8.595865940942973 1.9278954490962927 -1.6032653693862065 -0.44472242825604047 -0.26304647910736634
Ni 8.743454774580727 2.8971811064851836 11.88043698028706 -0.8250266381370114 -0.16727494323199577 -0.27180442780565445
Ni 1.0765988441104055 8.087403955796791 2.5673224864606987 0.262395990007561 -1.158538570254792 -2.0567642582832963
P 9.671933554722653 9.020943403826145 4.242949699258472 -2.1128572446221225 1.5793201714245189 1.7702904013909255
P 2.327758110930784 7.101813255186806 9.94909039800713 0.39937176803538316 -0.6455790640982236 1.0512580052985574
P 5.557713080378181 3.616000982767872 11.622222692216571 -0.4892670476356348 -0.9075875888593788 0.871913532496537
P 2.379483169448688 6.562325554760246 6.201182128171276 0.35641531907851526 0.32619045875570274 1.2891516392893798
P 0.8808134397304015 3.899584781071078 8.918877281599329 -0.5296649918367072 -1.0089872695548041 0.03298931044182706
P 3.0892441706179707 1.7023415745519574 5.5245987911133225 0.4573113206646447 2.096380844233654 1.6721632207991848
P -0.017510097287106053 5.6098202519409925 6.125886286680824 0.5676761809731578 -2.3191877590946834 0.08255889383983847
P 4.543557099703804 9.048679218988179 9.319785628400615 -1.1328105693610684 0.5846410909622705 -0.48896468590386755
Ni 7.9602255506552915 4.814596406337623 8.894815343566624 2.237353916346327 -3.850302317348253 0.9773457313901233
Ni 6.765479217025701 3.6544080036962114 3.047714074534794 -2.007518890993923 0.7382585913118318 0.7232001543168125
Ni 3.7307187747132566 9.056862030047407 5.887573564368739 2.543939456386909 -0.6619029980692278 -0.16122153794906427
Ni 4.953676234853423 5.893748883967651 11.990461305661341 0.08703518444363721 1.0078618977011093 -1.4867362892485105
Ni 3.369892222356647 3.8076912536861163 3.6308726360790464 2.494377072077749 -1.1771800966153791 1.1272942675285296
Ni 0.36932250971605485 1.3484210164947654 7.067737159428426 -0.4158083163248516 -1.2580456619131946 -1.096893543749485
Ni 9.212363399663847 2.0588064462984086 0.5184621631263092 -0.48769301828029554 2.6537944669385394 -0.7194028920579094
Ni 3.716897466284058 4.337840484088363 13.016842107823633 -0.040943275181581106 -0.9221606015775472 -0.04849023429090359
Ni 1.527054205073625 8.763874522907344 6.096354540207728 -1.3740358388282852 -1.1279820376241736 0.09746717841023858
Ni 4.353553718081369 6.695692327263167 9.29692408451874 1.7659598923363717 -1.4147461720634538 2.066369128362912
Ni 5.221639997467257 2.823535806952124 0.0557335175572828 0.6532147262666105 -0.41956238405064517 0.5467340315038519
Ni 9.222046703411612 5.287615076611086 1.6412128071971945 -1.4896421500413959 0.2931463838165403 0.4435759733564232
Ni 1.8298182142650918 1.2958478534137747 1.826450959554728 2.6294538333106456 0.8862289206779446 -2.594327421921158
Ni 0.2726618891001189 9.250593343815277 0.24806126487239638 -2.0616730084388237 -2.4272360554548778 0.06166045312427445
Ni 5.5181038013329395 8.756055185232295 1.6578403165488689 -0.04871237760403868 -1.1613644697393612 1.1478687492457715
Ni 8.872040474107127 7.058065971460132 11.979344612003656 -0.5970402359575718 -0.2843732656096005 -0.8171752604133926
Ni 3.4966419153014217 4.000779499158899 10.66397637389335 0.8306812653196275 -0.19078022544278758 -1.3867172909506955
Ni 9.149398625727457 7.043554995584028 4.445211453758132 -0.4640591809114395 0.24661970100991074 -1.6045192963979658
Ni 7.536434224362292 0.19211339121675108 5.387593556836459 0.5974750095021453 0.6288488958277363 0.5177296738517019
Ni 4.515728086238136 1.4209665760449215 7.2368790327650085 0.08616152358943224 0.6808931660184854 0.8122986490473817
Ni 1.8432574096493832 4.708760412728737 0.5331138684409034 0.4018066027291209 0.0007939566562050844 0.3931612683492971
Ni 2.1546329420968036 0.7279039149380764 3.930132389053805 1.0421850964630117 -0.28310828285424794 0.28280592112248065
Ni 1.747663909610078 3.378951097470053 11.922122717537308 -0.02698784144275352 -1.4064427944040812 1.3314794535233132
Ni 6.975669351215665 4.322649160595717 0.6408827948671978 0.704923981715444 -0.09859537847741084 -0.07460081533502635
P 3.1197852547194436 3.0222066308126943 1.0709258633680907 0.6038107219121859 -1.679073831876089 1.2838489961295436
P 0.9730555287709611 1.2361077407831862 12.25743343832449 -0.024438849768654687 0.8418208268762146 -0.5458200043300149
P 0.7224266506333967 8.88823833927904 8.13949901158013 0.6743962454402321 1.5097790300005869 -0.14414658474464853
P 2.145406310036853 6.125486465958226 2.3581854931018205 -0.6415743138142047 0.3138885014598981 -0.7202986643993013
P 9.474259952710986 4.905679108480952 12.948857673253416 -1.7460469554625284 0.24838219222697225 -1.109943692065224
P 7.451856763812747 1.6306720790559786 10.328583638598968 -0.11253898514169651 0.8285678185210503 -2.279165710175791
P 7.995324031804557 7.548960076370952 1.4160895088156569 1.9393664023874022 0.46614151736176496 -0.8478366940529916
P 5.352313338995102 4.696178641737895 4.591764854242491 0.9982248888319776 0.1172908980043851 0.18453578719497252
