# total energy = -381174.3674363151 ev
CRYSTAL
PRIMVEC
9.17345890268322 0.00000000000000 0.00000000000000
0.00000000000000 9.17345890268322 0.00000000000000
0.00000000000000 0.00000000000000 13.42628437151653
PRIMCOORD
 96 1
Ni 6.14791609499412 4.328211230799642 8.279651643772457 2.1862367859555376 0.43577036126907526 -0.3552521520083495
Ni 2.2088902447031957 -0.13953394011079853 9.674101938269272 0.04320558885319655 1.7475374239651258 0.8333287302448036
Ni 6.418553927346847 2.5889009962921254 4.31314489850275 0.6002942241184952 -0.0798180978699077 -0.9452323957953463
Ni 1.2259060496810223 9.02139523717213 11.9944140721768 0.24169346735288696 -0.9017470709182018 -0.41046684950728013
Ni 1.2669220377930182 7.8481769866715485 7.803125259497329 1.354178437782726 -0.6955636235464666 -1.1151329495756472
Ni 6.0823307616393 5.097837280703104 3.7727848672518034 -0.77621681572316 0.04912683943363797 -0.10381368945355669
Ni 0.053728749101748914 2.6712622712609955 9.562581259441476 1.2418366562535 0.28829291237898097 -1.2939840276810166
Ni 5.613464232057522 4.720872542504293 0.5360809770050065 0.019120522879534814 0.9492579720149718 1.5173995226603223
Ni 3.0613715176928435 4.848768516139869 3.41814109564329 0.8488633355452929 -0.41814981997383466 0.8447439140602806
Ni 1.4406637144654653 3.0220569064293823 1.988575663598941 1.2115776002586423 0.8099936550632889 0.267132733361598
Ni 3.5562892368693944 1.4655074753290203 6.037484846180629 -0.06379601141003852 1.116735518176077 2.480662036484502
Ni 0.48713163329766385 3.7636468270814456 5.610787765036655 -1.1882479243937663 0.3398270757025309 0.3522627303627224
Ni 6.505827241926809 7.221027527051863 5.150473855634341 1.2790088944284232 0.1336161175269699 0.34555086556018555
Ni 1.3169388582650061 1.3331842630123087 0.50904829420675 1.9436927976768978 -1.3639650848558444 -0.6222745850443283
Ni 4.752695607321785 3.247022832305036 2.5351740766278485 0.17380374548944905 0.17293676950346346 -0.36876149934869396
Ni 4.414322852585175 4.850817486107998 9.673365589686977 -0.5414966943643126 0.7726869481930306 0.49113315431009613
Ni 2.19537984897585 5.577204781371538 12.175819262417543 2.180976308887547 1.470145731879681 0.4070660513558473
Ni 4.477904951908656 3.712761023810475 5.1621877437646315 1.562673049786141 -1.0795789637304376 -0.695992226443453
Ni 4.270510772947174 6.949474975963366 4.423152632541578 -0.3521711990901805 -0.03414502131282507 -0.08267305082019955
Ni 1.4750479917431176 2.1239494628994504 11.5301778488355 0.42796603473330813 0.12413877416415395 -0.17638898971812203
Ni 7.69418408750441 8.392672461326919 11.396781671441726 0.8778576658951138 -0.989050164311245 0.810469566258443
Ni 1.8545739424020886 4.405440933660834 9.534908273528181 0.6863174223578502 0.36654135176892355 -0.6421808370499521
Ni 1.3617509291304544 -0.2852916264997867 2.494608130133852 -0.10743894491096982 1.3868689860372116 -0.7353529876292626
Ni 3.860588718698514 0.9887469230575342 11.40612643804637 -0.7263775236035296 -0.11390372669970707 -0.6654038121336348
P 0.7928480144484932 4.2982541922031245 3.6127072590543117 0.00399189476821248 0.7993749990071781 -0.4320016382552625
Ni 0.5754440683614633 5.1708043942556 0.8350513074795207 -0.06009285152683844 -0.008727866791301097 -0.7495724736627543
P 3.286300854819066 1.525403258147341 2.377090555274339 -2.001420491405669 0.1869431110848845 -0.3370117177409228
Ni 5.445970084350395 0.3846941115160803 4.989324197078525 0.7211041910197323 0.011408498947257772 -0.0794422025877277
P 4.61069467078061 5.956712437655794 2.3629929101186278 1.0999035342204027 0.14948496623842644 -0.16627555543320396
P 5.247155967130451 2.9058144494875346 10.175061374695595 0.6964467974823684 -1.135693033115186 -0.48003807283819916
P 5.816705587958602 7.41078592878767 7.935437495189211 0.4521578014881632 -0.44374360928253903 0.5423125053973885
Ni 7.961254516787626 2.6747930855810735 11.42535108171608 2.0030130327037696 -0.0501460247267717 -0.7262299422820718
Ni 6.448364610945641 6.710669355615488 10.210833280295413 0.584512021583574 0.5698654753149928 -1.0701142187731119
Ni 8.61900131811887 7.734477447815147 3.389317393560393 0.43335480984904723 -0.23558066958692975 0.13743137750800202
Ni 6.547401208467625 0.42035808030507693 7.159987431095092 0.054989211751685946 -1.9366322912856906 -0.6736012603427626
Ni 2.972250471266622 2.3386613917471046 9.190038271611387 0.1082724965558587 0.8342679542296213 3.1040100570986673
Ni 1.9983585804780175 6.862338869193768 10.15615779730214 -0.8560544539770933 -1.0324532138872282 0.520997031749064
Ni 4.395177789445477 7.622973233924595 9.632706341881931 -0.8774606875670113 -0.03875758038417196 0.13617616494466225
Ni 4.267730027990428 2.5063018944519553 -0.0940989457862902 -1.3089571040510812 -1.6325677178947497 3.0980278713733034
Ni 8.805914944586428 0.30165411524526803 7.975855257248012 0.19450935346791662 1.7555281554800863 -0.7022819161069066
Ni 7.839386539620785 4.977954243192885 12.454420636083894 -0.48372040678579276 0.6358759778778468 1.7420177796984773
Ni 8.944869867737482 5.636103520767867 9.721146837568739 -0.49542843925134034 -1.930029184146876 0.4892750180554348
Ni 2.621272892351081 4.547890082382536 5.9904664737245 0.14528069834909174 1.8301821926505513 0.750881679392481
Ni 8.068779704177572 3.6070103907679267 2.474553836570797 -1.3957369779508026 1.2903993956535518 0.21205456144053159
Ni 0.6367503474703436 6.132530525858442 6.040509821039825 0.273694959960148 0.7561578401897557 0.7408836876395047
Ni 7.140934754547707 2.068508360324337 8.754678804039656 -1.3969806205499167 1.0863934155491095 0.45566118665573135
Ni 6.7082910869024825 4.615368883520403 10.595211813847651 -0.402484602632752 -2.0472316362025125 -0.5592455337073013
Ni 3.5517430847526104 7.974664293454039 2.3682808991301227 -0.19170402280863758 -0.9605857383229649 -0.3223661999136061
Ni 8.2700635619841 0.8192495413190674 12.8465770230464 1.1355135701145282 1.6103310179837362 -0.42564638546119593
Ni 4.6766093028803075 5.936963660150486 12.02985210543806 -0.3904790935314436 -0.2197323897007635 -1.5086405455207694
Ni 3.794546025975808 9.134015407920323 0.34858558942149853 -0.5496422062895824 0.9755392743090039 -0.7306036458697353
Ni 3.064399236708247 6.116248532361709 8.309680945149102 0.09212056938634458 -0.0727143969455909 -2.5130047144812657
Ni 1.040309618192976 1.1371783323111826 5.521945707824844 0.519359239035325 -1.6559953527900706 1.3988313006054103
Ni 5.10894196615537 7.171376594074184 0.48213178068793655 0.3973046010937093 -0.275770354431938 0.9677974255800559
Ni 1.924248068505807 7.868172738235515 4.468015012937493 -1.8744625026251653 -1.605036088133384 1.0021203672316419
Ni 0.6730665107179454 4.284039463049234 11.494512965327766 -1.5947200509193569 -0.8450092519065253 0.37392067495213016
P 2.2211566229498922 0.9301866295934401 7.8508260121303435 -0.23726242816472687 -1.6114029108916763 -1.996737998328335
Ni 7.019697933308547 4.301309352780601 6.00429610629063 0.6628771890570391 -0.11540885049032382 0.17217238053361317
P 2.7826292773411807 6.81276111371495 6.093472035840998 -0.3713547139971669 -1.1723834465576841 1.1476088107161657
Ni 7.547051578855557 6.033338426151376 1.9633925420844147 0.34550612836517913 -0.10389287943092429 -0.6823057300952959
P 7.338669503659442 6.992521639668775 -0.047977912409953215 -0.9513277100598068 -0.7289799942233832 -0.6311798579537581
P 3.1498888497534554 7.833422573463554 11.769163668774322 0.6724128964616162 0.047666967058659845 0.6389864984823704
P 8.873668161345027 4.566440578343983 7.826339906292475 0.13042769249665925 -0.8520329915225261 -0.8993659722805349
Ni 3.1150106243584865 5.307600581190234 0.9207165465219973 0.1934433740972475 -0.1280332241225537 0.24305049560141367
Ni 5.554437432038185 8.408259268584464 11.672530952089945 -3.7153646527963815 -3.7088204239199607 1.4790618034223881
Ni 3.3444678192267783 0.28855076935534063 4.222643541504248 -0.0003345005212832949 1.15048484671238 -1.8510937459922379
Ni 8.163764097700088 2.146250305677561 6.292576118900182 -0.9093991881468209 -0.7476274341212414 0.4675707936091238
Ni 5.13648414728945 5.642405932857334 6.335591682168574 -0.9357347407175562 1.0523604943341165 1.296759790653941
Ni 7.383536457649036 0.3873413075374031 3.755568031207112 0.2700694473924187 1.018882417181329 0.21302540999423314
Ni 8.765475229277968 2.9140560652968364 0.38167645440676995 -0.5574537319142012 1.9248113873913628 -2.136582099042888
Ni 8.292876647254243 5.646064807800419 4.329839430149316 0.34949725180244323 -0.8810951989958051 -0.48643009240747204
Ni 3.6189840590191764 3.606269468591952 11.498449000047792 -0.7112051867384654 0.5341178854017383 -1.2285337684970068
Ni 6.415462178019938 9.075509997580376 9.461234997111669 1.0363245239171763 -1.2485516063798303 -0.24244988590293728
Ni 6.2449220169226916 1.1649126043797757 11.401212568997805 0.3033451787264131 2.751443679452597 -0.7250001836400288
Ni 1.4335746442632358 6.241436938539402 2.7619904785059677 -1.187365521788813 1.2489493560388814 -0.5053282148635555
Ni 0.21559280299020236 6.827927150354043 12.105412446606469 -0.5423171333830789 -0.6188159370717665 -0.31582454214034644
Ni 4.468885825173948 0.7325479259489617 8.5295491435103 -0.15942639372185446 0.032106650726557606 -0.5565427900641576
Ni 6.070046089017888 7.828592858538681 2.7411852008608437 0.05941099496846543 -0.8868572982905628 0.14508195207472432
Ni 7.88220452364225 6.538519289543284 7.601664860974797 -0.8140215452757593 0.09446361569722442 -0.6627542903259296
Ni 2.409853950952204 2.7570994774257973 4.353576381342587 -0.03103835736304332 -0.8926528219264175 -0.9302413217031527
Ni 8.527941067972813 1.2303881714863028 1.8149080791440912 -1.1761274869811484 -1.5302208427947064 0.6113476537191794
Ni 6.3615029197967745 0.06408336519068278 0.46043007868175667 -0.1665717465173841 0.3390709142627967 0.659361976814929
Ni 4.223091753684776 3.4677901991834976 7.574140059496695 -0.4943647738735163 -0.3545512692865829 -0.764150114366613
Ni 5.24282934751025 0.8376363026268112 2.5137129456491762 0.8118466491116276 0.30635336942511754 -0.32608812884988353
Ni 1.582106672577819 2.9028507607836347 7.428292730671601 -0.7616224628487528 0.4717064130440521 0.16074125587853608
Ni 1.7381576889004442 7.537117733385078 0.4730257556733309 2.5634813830745786 -0.9124816837268866 -0.12827773603319198
Ni 8.842110364960908 8.171950830385244 0.783307498034396 -0.8992916673991739 0.31827711744589704 1.2875069045971053
Ni 6.163960261619553 3.1346953715522905 12.491223429698927 0.3511458431494598 1.0372681187773685 0.20267980509385092
P 6.572116908708173 2.3409207470244606 1.2113583629073117 -0.38981446336425124 0.07403542974985959 0.06383072130271587
Ni 0.019804575348189683 2.0900682809264723 3.795825717487153 -0.18672893819154937 -0.019040304460902692 1.023556682728547
P 2.2611389788904663 3.521292098038775 13.22679084219467 -1.2117272384626292 -0.29154304388516245 0.2270204387217445
Ni 4.331970724803663 8.242567116786807 6.6248358083256305 -0.5559249539745007 -0.30049151132770185 0.29760724780137127
P 5.847970674347272 2.210884331547178 6.3826896351547155 -0.8402444835280303 1.6531583975619075 -0.027675354428081368
P 9.056383228815392 0.5644518933136966 10.280490026743152 0.4431633112990368 1.4090612058635346 0.33907759913101604
P 8.10161810679177 8.652205608227378 5.64714874950231 0.9139744662223293 0.4561707793022982 0.35571649323927773
Ni 8.703987835859404 7.756037368417281 9.50077005559045 0.5393565080928582 0.33159517471104183 -0.2683648059964862
