# total energy = -340896.4370042977 ev
CRYSTAL
PRIMVEC
8.99632858573589 0.00000000000000 0.00000000000000
0.00000000000000 8.99632858573589 0.00000000000000
0.00000000000000 0.00000000000000 13.16703624806019
PRIMCOORD
 96 1
Ni 6.376210770893769 2.0382801467073475 11.529017131832783 0.8912436002837166 0.026998382965714794 -0.057500665319629995
Ni 4.615476353530674 0.3669602379161784 5.997097392859892 -0.3150673522593477 -0.7142002648110474 -0.05528771682871124
Ni 2.5688026323693958 1.5692835513887349 4.851368182468558 0.47798427563296386 -0.5039624448642805 -0.3752666474570634
Ni 3.318682594891219 4.1985415110147315 4.738526334951853 -0.3914437714375581 -0.27698777177880685 0.4260510770987823
Ni 5.147204347206469 4.456907068080549 2.619819011804921 -0.364734637577488 -0.33374178874039945 0.5713777981944611
Ni 7.473133100119551 6.054070241369315 2.600977101476614 -1.403293450141822 -0.9030405929186447 -0.8613002757570651
Ni 4.9136146787217045 4.407301312947679 11.342347814435339 0.5572529287573048 0.8163100841996198 -0.11723510506578519
Ni 5.816765089230238 7.812960411397946 12.400859419664872 -1.8067332175989914 -0.15307448336189766 -0.4633400433572278
Ni 1.9938112951255953 6.444699819465867 0.44362874832483873 0.29303171261554695 0.03377658222981279 -0.720855565344036
Ni 2.898392121859396 1.5227905259033019 0.4586292264003827 -1.2846619789491425 -0.710472422337499 0.638845859139448
Ni 0.3800831822419526 0.1371958082929469 4.691862379225664 0.655618964832729 -0.007965277593663701 0.5536904082170271
Ni 8.343518882373838 2.207420118098916 1.4056070502714126 1.1252700380096492 1.62314308214674 -0.3160885944350104
Ni 6.7456090138228255 0.82483917052293 4.7600419540987104 -0.005010051620081694 -0.6169128065117826 0.3287587337035112
Ni 0.6878934601611935 7.229791411583275 2.4430249641589015 0.420247840153444 -0.0174827301657957 0.5309019495676018
Ni 7.414315104642817 3.7213312678114048 3.8118433284555495 0.6456664816057074 0.5566752018769638 -0.03129495345853965
Ni 7.686193147056762 3.972508758437041 12.56402492932562 0.2961951979451931 -0.12150699296826172 -0.2537812517553565
Ni 7.981389672841111 8.967279316203655 6.824724525572824 -0.1406059185812417 0.05001464135523 0.4573110635543286
Ni 7.018899479805117 0.47860737301328915 0.40195055783162786 -0.7799636843601019 0.6995580894178404 -0.18588201681022182
Ni 1.7917357652390253 6.395300979887595 9.236452162649435 0.6528421734185402 0.24427254093397285 -1.6045252099352365
Ni 0.3761868723855786 4.854769694259588 1.4321921005059333 -0.6337481329015666 -0.7453440374037035 -0.33472343592737835
Ni 6.414553122793714 1.934372552985066 7.016371511507631 0.09916307805542277 0.6003736712061789 -0.22710811333954437
Ni 3.335307809886783 4.2054416949441675 0.20396565849618506 0.480139888523386 -0.07830320388727804 0.10795162288133021
Ni 6.054304145909295 5.629704431544748 4.731073776454923 0.048349594947981245 -0.6356229813267762 1.0350132613049206
Ni 5.242268550051781 2.751653008335229 9.266012298705943 0.08417277529417762 0.34306640857543497 0.11807816979237085
P 0.36402383630657215 5.631710612791508 12.305846495891787 -0.8558904175954034 -0.362457411507537 0.11480772657121519
P 3.97720484189358 6.1490444809300175 12.53846815943417 -0.4024879450668617 0.47052627669302194 -0.299112114481672
P 2.247084930282599 8.37084972823776 1.406160324471752 1.4062615316312104 0.4122038868030449 0.07594447384711438
P 6.325570437987905 7.765018977030324 5.846559129826726 -0.09302276948563978 -0.04439626672718806 -0.2309845655758151
P 4.832944601413679 0.9282771558995575 12.689718032048585 0.2928697331163859 -0.6602294670215468 -1.017372665405022
P 3.904343577689532 6.248732796604182 8.049220190169878 -1.0920935512576804 -0.9075063419994823 0.5628363363823532
P 4.542642078312007 0.913325257997702 3.9042365213808488 1.1014852768852255 0.6235565370805455 -1.4540480549868702
P 0.20575053006280847 5.385310172578558 3.6631088292787757 0.5689136529246848 0.5047666859331307 -0.43947454959353993
Ni 1.351023626601179 0.9965143072747529 2.5710742053057487 0.3594070547169875 0.865852928124754 0.15552860132934507
Ni 1.797745312650842 6.483509980445774 4.747098036709306 -0.22681475046884164 -0.5375001716104097 -0.6285647889284142
Ni 5.755662026324459 5.238903923207441 8.970161739842496 0.20313797567719205 1.1496644076936136 1.1625425492078623
Ni 8.61011607998129 2.3250651053808444 10.1104004909742 0.24888664266721655 0.09068075161602447 0.6346742442602619
Ni 2.230135847462445 5.186473320937877 6.864699711088405 0.7736709093728547 0.8045647707382338 0.6018507699723377
Ni 0.634801627749761 9.15709285039815 9.063950263312066 -0.04552600945625707 -0.14337448246531434 0.21864429884290731
Ni 1.430767082077742 0.9916472935774581 11.439850022293527 0.03660839525165308 0.8671508210005712 -0.5055927813788518
Ni 4.034979263268861 6.8829559604339146 1.8501399296065622 0.5194150319739248 0.25644157219633895 -1.3519999420741684
Ni 5.488381107753985 7.740045169223133 7.920064400622351 0.369813337651976 0.683405648027694 0.5627633170525728
Ni 5.221954840387287 2.8713041768639167 4.869617234751298 0.3839909147039387 -0.32501057951498863 0.09808398605863108
Ni 0.7960770088008949 7.454492707548766 6.819405896186797 -0.6449316603222118 -0.595197269211562 0.9457928962845065
Ni 4.818703413460227 4.621845754080923 6.8709809476197385 0.496505474365603 0.00048336739432174817 -0.9040212116643591
Ni 8.145941516717668 7.2985413536807355 9.090468740715975 -0.10367099322810533 -0.517040103983845 -0.23588534531154215
Ni 4.825225751594309 0.5852966314956511 10.401747487810171 -1.2841487867581496 -1.6181448576012005 0.010096979224685837
Ni 8.039083127260243 7.240964851531594 4.62960868590975 0.2546446281969163 -0.5624216174424379 0.6652791136303123
Ni 7.150956585281253 6.031768343114982 7.058505815853804 0.1075484739056406 0.30014775483503786 -0.35193080094460033
Ni 2.730979445532302 4.981348035703094 2.4040897542133894 -1.3437335883003179 -0.1640134988719046 0.704154193428955
Ni 2.329518287968942 5.186194434755592 11.28588775664818 -0.009989764222860215 0.13522228567182518 -0.08836033101296395
Ni 1.1653214145132713 3.2949052987693146 3.6356421388550966 -0.7934316369395498 0.6699472085299429 0.028022967575487223
Ni 3.5986753255768082 2.531072030804786 2.7675792086093898 0.051616952845343365 0.1702060008358617 -0.4104982169658478
Ni 1.0857668819343853 3.4405468602212634 8.087061446574555 -0.04608779549699805 0.2378339843974807 0.9942275947471263
Ni 3.5053294214675104 2.7180697141910493 7.136704601733648 0.31717488552065376 -0.2710770627213267 -0.48754955072389583
Ni 3.914293516967181 6.884593292213781 5.895540539764418 0.6989446242035575 0.4708337806311117 -0.02449464270725459
Ni 0.9163210353751496 7.457191606087007 11.157403992836675 -0.6540691038471057 -0.4189697447719688 1.0840645103056168
P 0.16153807384218924 5.579684845302681 7.950795858644456 0.3086203110824233 0.5843107042060454 0.8481133447531458
P 8.476835473834486 1.8664772620913814 7.9754053151489845 -0.12831373147744998 -2.0808261843285067 -0.21817635806755328
P 1.7417701569677222 3.154652538065387 10.400971104664004 1.0496335823212568 0.4041663612105491 -0.7543932920901653
P 4.065665739648662 5.938737310501812 3.863300527985654 -0.23596839194365168 1.608186460836908 -0.3318617981088672
P 6.831056141543538 3.87891095713084 10.403078044789524 0.23736244407770085 0.9457178200721971 -0.10424254946085917
P 6.222634447739392 7.788067570546902 10.092335863424907 0.3792667697553919 -0.48966993950100834 0.20135542985547256
P 2.273318224074302 8.517327948236563 5.715849674354019 0.35729232236682984 0.336706270685362 0.23939695800922642
P 6.834492739015565 3.966652148609058 1.470152108446294 1.50243493093069 -0.38606039563845773 0.4009553104724191
Ni 5.220596394789705 2.7727583949042742 0.5768463801724183 0.08521072964038873 0.4139378387750161 -0.07940029360619873
Ni 1.4356610847604192 1.2606914925262502 7.03572711219105 -0.30069000049175315 -0.6962290250446073 -0.5651310459538009
Ni 6.931248251611509 0.7839157719875806 9.290186332912969 -0.2061158273585934 -0.5308554126003826 -1.163781563821286
Ni 2.7467769983094734 1.6762409004592287 9.222929781340003 0.2229552675134354 -0.870987678248158 0.27899040403113246
Ni 6.33646499175394 1.825139132813989 2.5598431888552815 -0.6771426978371178 0.42000178558090895 0.7046853833420766
Ni 4.108236365925184 6.739401547184872 10.322969338377453 0.5793878129831312 0.8433652885451991 -0.059153884652336834
Ni 8.188970955745692 7.196675926519057 0.27896984813959674 0.34765917015243997 -0.637006234827548 0.009752451401073527
Ni 7.643109730057974 3.873783049908182 8.226330008944872 -0.267286742440959 -0.12905986561485513 -0.04982232283876581
Ni 3.0623861933713847 8.410820415589109 12.27882692299261 1.0383775497914631 -0.7794857162824188 0.5203259738239684
Ni 0.0008249633198556892 4.696911118757868 10.127202034007597 0.2791752663484289 1.0151543175974644 0.65836438878835
Ni 8.638301577048988 2.49461890788161 5.750848090965083 -0.3988022686851584 -0.0037378697758774335 0.3404063452447686
Ni 3.7229326142774273 2.4578779024476876 11.62757280975373 -0.9846666905315686 0.18908638268013242 -1.4137079606069265
Ni 1.1723565433696197 3.402654324744359 12.482666632890343 -0.8345656879756981 -0.3289428246898593 0.3875092122698423
Ni 3.0144897406460665 8.519352122140244 7.906436762269926 0.23272237420252825 -0.6402936473295682 0.06732716449174857
Ni 5.611180991243954 7.667858629653645 3.5964577306112204 -0.19313741282105445 1.2401667247502448 0.04811973832536229
Ni 3.016819789717415 8.239638277636939 3.6473877452935217 0.4668382863184734 0.4028553557086095 -0.3008848901113786
Ni 3.4088258060684704 4.282189373043283 9.085321041570705 -0.6671210519350574 0.22961365337021747 0.4028165320508741
Ni 7.275429785864931 6.181152377206626 11.304967170047851 -0.09882652065161043 -1.0037051952202585 -0.36661925619471053
Ni 0.4385260308218709 9.21161060087062 0.50826107088579 0.46961404929139766 -0.31385456289816915 -0.8820809599478422
Ni 4.7242689536071705 0.30838244440934803 1.558660686742218 -0.234729377330228 -0.9560955637620953 1.0779853939910726
Ni 5.766484609462807 5.549960976068185 0.3706019516771117 0.7134623582037584 0.39491656047750695 0.24269054115883362
Ni 7.9102467073730764 8.627326056326808 11.29033824033774 0.06973937347766698 1.1877558152486962 0.21049595870416005
Ni 0.08831605686686275 4.987384572100294 5.810796924929341 -0.8445585375223519 -0.7253773644737894 -0.33921412470888035
Ni 7.883554600829871 8.753553540960343 2.675436113615301 -0.2698017955533289 0.4905258597434004 -0.27142364742746805
P 8.442163623946549 1.7930582255227632 3.6525228495789483 -0.39511607808282273 -1.0413368895301034 -0.8705053392951009
P 1.8032780546542364 3.123480259948702 1.4370636123674583 0.03300807949490444 -0.37405205832367194 0.9282312332516595
P 4.707490801027772 1.0497365864488668 8.040793329300643 -0.16255208383502973 -0.09657731960611755 1.2101964036403996
P 8.519783945906362 1.70558692389837 12.238035770485633 -0.7304524650038517 -0.566038902480051 1.3722489221311915
P 6.362581333275652 7.577985308330217 1.4263058027940294 -0.6186421304980635 0.06184480122093865 0.37597935725337184
P 1.7304797647494137 3.2625724942811862 5.945588014624715 -0.005308042476474729 0.055348909083949835 -0.2980677323775576
P 6.843480071147908 3.9659414386606544 6.160315980858559 -0.5532083263742861 0.4335849235819823 -1.4825754730026015
P 2.5028415520947838 8.442793366938806 10.11604928561474 0.23733184795008155 0.6312261378106613 -0.3281200716782478
