# total energy = -340873.84480672184 ev
CRYSTAL
PRIMVEC
9.16746506802716 0.00000000000000 0.00000000000000
0.00000000000000 9.16746506802716 0.00000000000000
0.00000000000000 0.00000000000000 13.41751178862831
PRIMCOORD
 96 1
Ni 2.9446905677248325 -0.11944931739661545 2.4444018397547653 1.3036673164070516 0.7942351066774515 1.1922557600015788
Ni 6.733713820127415 8.914992915839402 4.68810495420462 -0.8846502633369152 -0.20208228071916812 0.24723368044482583
Ni 2.307130053847689 6.585063376787496 11.66252798344285 0.2655072819430331 -1.7750531128868916 -0.4570956051094128
Ni 3.355750526338372 8.550292827220927 10.842744853018566 0.7861960384230589 -0.6076563209105211 0.8110398369396161
Ni 7.925080888562954 5.801474314531596 8.457245808733898 -1.9761961696212413 0.8365883748326819 -0.3887448844491563
Ni 6.509651810526988 0.18750399307554705 6.963984036957553 -0.2820289337471401 0.2757212463615574 2.534214258679345
Ni 2.0955908012995175 1.0148383643372703 11.776509824773605 -1.9230949189208877 1.3787023910660192 0.44978467327029636
Ni 7.639587696673241 8.272023597671753 9.18334753210013 -0.8008927212032851 -0.07728016193940239 -0.09639194306818884
Ni 3.055305199198125 3.7559653739762027 7.978145842385266 1.535914550745374 0.8980503387929049 1.0060446419867126
Ni 4.332672255852707 3.3309800361808355 2.7635643799796323 0.388732286043666 -1.7454090647682132 1.1413731142190988
Ni 3.5766222581538902 0.13764306823549302 13.4056636789897 0.9630236583404963 -1.9269682858333652 -0.3314457936173711
Ni 6.30694082667671 -0.003988763977625531 2.4335878981597134 0.14569541728900712 0.36159274951439657 0.10477142538113568
Ni 7.963318384657361 1.62343885659796 5.89424539232516 0.6977308064011145 1.035301996189933 -0.10606289049904959
Ni 6.7391776292073144 2.721041094044868 1.9624984626399686 -0.07008004464653737 -0.913060439048492 0.6384105713742424
Ni 3.205550781430496 5.259539627017615 3.7979606139327755 -0.2703350423489796 0.07214824002947574 -0.15552165935080958
Ni 5.596003923746671 7.223668981663145 0.8683468589811058 0.8650808258454198 0.30134280358440363 -0.6371304191102383
Ni 7.565294561130429 7.181141111995932 2.1958021936052408 0.8953329398617419 0.07335228763990592 1.8152798216174222
Ni 7.545391994834348 3.685165042559972 4.793473045516121 -1.0701772108005632 1.219032513874791 0.13709302033197682
Ni 0.9468157747854857 8.03741900343729 1.6630331374974423 -1.1704810873286486 -0.0671207049078973 -0.1724994248557287
Ni 8.504547177374105 1.0248950733316513 1.57649043535637 -0.5463172556814075 -1.308650885664572 1.7561675888362982
Ni 6.0506643454206275 6.887690560573744 6.234084232883597 -0.6362035364205946 1.44676591950316 -0.11744002198773969
Ni 3.093414350783943 2.132315665685562 0.8478511577060486 -1.0329676916298016 1.332198848187841 0.2857824872523014
Ni 1.6808271868667164 9.177915809147377 5.327074507436764 0.21215072069876365 -0.24561311412226733 -0.3753126702036504
Ni 0.1944492644831524 0.502069049653484 7.312262445702159 0.713569573205584 -1.7369061695035248 0.3452215072452248
P 8.156651051915794 3.9658269804478268 0.3025556775600343 -0.3015703462141774 -1.7299053127056596 0.20429651476166755
P 5.585846372638399 6.343684025992553 8.404300031955277 -0.10446777809778782 0.874746631069958 0.3715398334247794
P 8.123510666305323 8.169998880808976 0.4509787677704523 0.6102739610390264 1.479495034305065 1.9776298167439748
P 1.8503886176416227 5.726741140673625 0.5358190716797501 0.8542495395578708 -0.3604576074686889 -2.3014582030254043
P 2.0158980289310997 3.4387802559300855 2.9696444071803523 1.3367970090814847 0.30078076043334656 -0.567438611041055
P 4.819061273542664 0.4501747810987958 5.68224868327852 -1.4838877640561219 -0.167729257160595 0.08948878819045235
P 2.1802431721783826 5.676329251193132 7.623682145073194 0.46750908713325295 0.5622092443213156 -0.5278647054031748
P 8.08644660571801 8.00937572831075 6.171398024649616 0.8085674641397236 -0.31709955219802805 0.4183624502052731
Ni 1.3493591585077036 6.37304741606457 5.369634463231125 0.8343887960782016 1.1171193838780566 1.1152558483067567
Ni 3.2123622078505742 7.013624025893537 9.17144632916804 -0.547745760597818 -2.4492156450497626 0.58604774150181
Ni 4.802101463479213 8.515593972577596 8.574554523076559 1.282905915489984 0.6780664952029678 0.18844463533107547
Ni 1.501227382027227 2.2433795029389136 8.443090326183102 -2.0055054601083198 -0.26199695479692947 0.7410423247045561
Ni 3.248793713359845 7.083608452933743 1.4446100355564904 -1.9575965522421834 1.090809028118302 -1.9229663637628238
Ni 9.264915051040427 2.0686384544959804 10.488817452403095 2.3199205234956497 1.0591590053131887 1.7855504128737893
Ni 3.7355769320404657 4.817988680149462 10.280229206805966 -0.4158563959539677 0.02532202370455639 0.5553906787375854
Ni 6.945106393237198 2.699763408013912 11.351026693634212 -0.48327072084288375 -1.1152645900575051 0.25116746828159325
Ni 0.25208236606471623 4.42511697189586 11.846964542763136 1.2995617788791103 -0.6067744325262001 0.5960092235898962
Ni 7.888236847133221 1.709961390316254 8.881318983771799 -2.2709829172546825 -0.370603180543123 -1.8940795055251443
Ni 4.240154200090361 2.0631288080915837 11.881595558166213 0.6063735975433556 1.1273217783323553 0.9080043646818233
Ni 6.839185503792277 5.172357035826582 1.5061420599596678 -0.5393053431399486 -1.1210174333808824 0.12124114090138474
Ni 7.213603105203864 5.082864243480959 12.028087980268866 -0.7500877227362759 1.2034817106243854 0.13568868378528245
Ni 6.161040622806541 0.9550848281245301 13.669089866120641 0.7130291273210817 -0.5354258055798843 -2.3307628655267925
Ni 3.349544152601639 1.5369988300637585 4.139986811616153 0.3321361348161764 -0.24829580316075303 0.6760672053847518
Ni 1.1232711391645622 5.61877590655619 2.542779739080656 -0.6098561567753173 0.8551170297644886 0.13720846286391852
Ni -0.3115306256963142 6.059245092566242 0.280682106310633 0.5942338768570282 0.2365047240630959 0.08288465261037338
Ni 5.730023093107525 0.5308585564228134 10.788618306760933 0.7113396554338007 -0.8387738125197747 -0.29249872293021234
Ni 0.8851425714228611 4.345121673185769 4.5260214245479595 -0.3706468892968649 -0.9682949340417648 0.7772072046608873
Ni 0.9359064915554826 4.038699158931268 6.790549352262751 -1.2451004146064364 0.4351754079975538 0.7974880663971103
Ni 5.662138015529228 6.669074025123421 10.640649922809512 -0.7644792155712576 -0.15681595268220092 -0.5702452272519146
Ni 0.5578576572973364 7.036726037439427 8.140752834287667 0.7609565471299798 1.1978995885509176 -0.43513118502317966
Ni 3.003848218719127 7.792335996823083 6.954269274403911 -0.225095968005522 -1.378840202195464 -0.4968052649942089
Ni 8.799620370083444 3.583232000346186 2.759485774845995 -0.23645355911018628 -0.14416098292235174 -1.2978591943657067
P 4.7919530798358405 1.3681341266211884 1.75258185137895 -0.13600955745981091 0.46811123949362615 1.6310417681685265
P 1.2682637640097136 0.8585505059898608 0.5116820533467455 0.8320161820809671 -0.05140226573137598 -0.19683723027014488
P 1.4445174441610087 7.713715817847868 3.7093515652034323 1.7434406281879327 -0.16403329636624653 -0.1380186174700397
P 1.3151186771093324 2.08352641749222 5.80746158585724 -0.30729233629961916 -0.4552492959292934 0.8285680756313665
P 1.927954538153435 -0.43868794758014534 8.636435827892395 -0.6240604733001575 0.4257039781720088 1.510847323364101
P 8.07319961893872 3.6846883343852155 7.733880573640065 -0.380684476038525 -0.2624546111596383 -1.1605507155888142
P 8.03248690732154 0.47406152764005316 11.012959007294294 -1.8308545361272275 0.970027343351839 0.12431746583386331
P 8.757798395213465 6.252137721509518 10.58299481931219 -0.11911612413858194 -0.08551849068879466 -0.45091493021999757
Ni 2.6563554617163785 3.949563897716713 12.544125496189203 0.7199705916359214 0.36291892452498786 -0.8701127318423724
Ni 5.5351502917460325 3.6487060346560036 0.2272871237519519 -1.0273261770733082 -0.634468813117675 -0.7891384088808345
Ni 1.2269826695687858 3.5563163234022452 0.8900627498342415 -1.48441586864545 0.5004690869990414 0.17396546787829395
Ni 1.2774220614439769 1.413357230968756 3.0010677266152106 -0.8677781701719249 0.6563483867995857 -0.00779609900565109
Ni 0.5404110548477405 8.505968134433477 10.49598274296828 1.4819920896953058 -1.0732789896543389 -0.8917058846321159
Ni 8.790397900394886 8.769175219153325 3.6203400647650152 -0.3345123483578368 0.7264124906065231 0.5587125440219668
Ni 3.895888390732117 7.788100628039671 4.811237758997718 -0.027872043819919742 0.636292239479659 -1.0062043074930285
Ni 3.053517543542788 3.4516330417187104 5.656272671486745 -0.40914350271016636 -0.7813451380886608 -1.2995440382672974
Ni 1.391612004227943 4.920590947300886 9.731251156009957 -0.5848277530517799 0.7951681600146822 -1.084636580759003
Ni 5.439130264392205 3.751885852096075 9.027234772332296 0.6890618178722068 -0.43889553716161833 1.3706916049464006
Ni 5.738044624894292 2.0720304165086705 4.591391866504416 0.3421351550104172 0.1704278870386807 -0.5907909126137502
Ni 4.183059228698378 5.194789822434832 1.7253709820652563 1.806931706763043 -0.7245939493405457 -1.2812601523564449
Ni 3.737566271923584 5.640805324708878 5.941448669090947 1.0059528536038547 0.6199032565986744 2.0609423009203858
Ni 8.549971965949455 1.7623351172851685 12.959679346096314 0.41824340812890554 1.3807340767840672 -2.1197313460341363
Ni 6.059245092566242 4.732382892921083 7.041912989079373 1.1332831381221127 -0.636540093824407 -1.059287560471253
Ni 4.3661976749889435 5.703767473636325 12.840276782770683 0.24051435944312125 0.503015764680295 -1.244312114377186
Ni 4.8519724725306554 2.679558315376158 6.916096867310289 0.7026593540509833 -1.5442297554792888 -0.4476547714114871
Ni 8.096017439072735 4.055933992941694 9.821940302524922 0.0018226550310355704 -0.5448589259683262 0.6988332954366738
Ni 3.0895640155262942 0.84903834441049 7.505957227824112 1.119985649682258 1.479318913738517 -2.381296612610286
Ni 8.167542000216 5.779692417931187 5.866431303821101 0.5011774259199756 0.3430594665968995 0.7671863300897754
Ni 3.4946009497010846 1.4407496160874531 9.743930676711988 0.5667287294582241 0.7897395327999431 -0.7138349110518286
Ni 7.362904438551622 7.8321411294152465 12.055606876403171 -0.8489286415655896 -0.5261173836947648 -2.015815583785076
Ni 5.897485174420524 5.876418340082249 3.6607126634344365 -0.51018400029396 -0.054430253924422384 0.7784415912886207
Ni 0.986364218360472 8.003765239792465 12.758443407348311 -0.3300304013270832 1.0610878469047855 0.3977067216281344
P 4.7997637599299265 7.496291052834435 2.81622871558585 0.08175748098446566 1.1268641219696465 0.956068824289218
P 8.0044803020546 1.747337144710139 3.733637096467803 -0.6936391528302441 -0.5049883150256335 -0.661945678381705
P 5.56744727058578 1.615087296074823 8.71726353241533 -0.0007633605285857821 -1.1495265965641688 0.17568296479003292
P 8.061886967253153 5.658296847736479 3.721092337499789 1.2832720405801512 -1.0668278347123563 -0.47580038060776775
P 5.202380483371337 4.227558103318912 4.877520363711643 -0.6528522007208692 -0.9425196248498735 0.8416642466936923
P 5.039685483805904 7.986218711975468 12.383893794442177 -0.5569127718090667 0.060864439585540345 -1.60945478602637
P 5.347648132163465 4.134856698258582 11.510078542648719 -0.8695316625279219 -0.05308968073612792 -0.34508626721894115
P 2.096040007079577 3.038492068573061 10.531150055067958 0.5962804749734119 -0.273866966761638 0.46112658064567685
