# total energy = -340855.5443699695 ev
CRYSTAL
PRIMVEC
9.43891263883270 0.00000000000000 0.00000000000000

0.00000000000000 9.43891263883270 0.00000000000000

0.00000000000000 0.00000000000000 13.81480274683896

PRIMCOORD
 96 1
Ni 2.402439254538316 2.4157009268794467 2.822143339342648 -0.7277898305700241 -1.3454600840731215 -0.576992316167761
Ni 1.0711938853935363 6.2351380724267225 4.983856339988248 -0.10612999629155916 0.35340661415917846 -0.5385352977431435
Ni 8.481250054855566 0.6448542449622898 8.633644132043651 -1.3214578076212533 -3.4575729943300515 -1.464946961287561
Ni 5.584211774925608 8.048938414360096 3.762627161689935 1.3486269118368774 -0.04412372979209175 1.8022777529307994
Ni 4.225980554376349 8.153512128144715 0.07667417563094253 0.6592195376997937 -1.8174457189204893 1.648591861237148
Ni 6.863694146832834 8.877561682319667 6.378142319262525 -0.2536133587189245 -0.7283557303758231 2.593069895364973
Ni 2.0079682150503864 1.6683089416015646 11.780641810267815 -0.1546765377416949 1.179133106576692 -1.9819243303542706
Ni 7.263488733082613 7.254691666447784 11.48460447185425 0.5017330413131295 0.2187962510397393 0.6265714126474693
Ni 2.147333761040989 7.107114266409649 2.5697194409429116 0.04361413714552489 0.49707240261266655 0.5863565309914804
Ni 2.4548724145774488 6.932513259316241 6.8583998607003505 -1.175924369831407 0.22248886939997814 2.058217188679739
Ni 5.423967354046335 6.871924878705763 10.343004792752723 -0.8810792581562051 -0.10637836485693937 -0.9722415773943386
Ni 8.81949349139964 2.3690160646735867 4.034019499048202 -1.1090805727339803 -0.08793249944692598 -1.0941152096733995
Ni 8.067542511288472 2.764053438923415 8.803193433060923 -0.30584969031582165 1.9783492114085028 0.6538400185554353
Ni 3.208730055053676 6.75629819815142 9.172283236303086 -0.5280313128880261 -0.07752904472541487 0.5940251032803319
Ni 8.62032299455252 4.853385081433267 4.2825753310241685 0.14259980908281894 -0.02765658537500398 0.9816389594488384
Ni 5.778757204550552 3.445524057916274 7.852182391381206 -0.09140477426624258 -0.23310135480850178 -0.06191962032293207
Ni 7.356575290113383 5.715790217940102 7.834498588440915 0.6211594976032785 0.17553872590268477 0.8177303615859142
Ni 3.6911245663263985 -0.06047416976682658 3.5746634858895234 -1.00004908652491 0.38045564785717056 -0.26210211291622604
Ni 7.834797801973451 9.036248682603718 4.234789891597686 0.7884226137607325 1.1169106103013602 -0.5333139014432042
Ni 6.61372342184339 2.9884919050639205 4.022470045470545 0.08673205138092159 -0.7295718621711113 0.7287830477212288
Ni 4.591974394253466 3.4936719515903722 5.224495755884139 -0.905568501546821 0.4857153257286344 1.4618760356717209
Ni 0.0036358691713904694 6.46040716288468 11.534614663003728 0.43678954656220903 -1.601670771205577 0.5269000274970603
Ni 5.066827214280236 4.524844847143058 3.0586806037798517 1.233537135248869 0.6383900025489522 0.10525067901039939
Ni 3.5573846123039905 6.68705433459659 12.192709814699212 1.2917790496098978 -0.15046069988813443 -1.246243012851312
P 4.2518431751697285 8.92737082462867 11.758842641391059 0.08313353539638586 -0.6901172557199148 -0.7923039510930097
P 4.22816094320966 6.669431884588838 3.1406990917805797 -1.313455506142067 -1.661625040272022 -0.026938733372372962
P 2.265423997809593 9.188857023110055 1.7913517758629736 1.5910773119604469 0.5316136309226457 -1.62398717531459
P 8.829083426701127 6.066559091634839 13.80008963094189 -0.6946148864799522 0.1564277161048467 -0.6299387864578054
P 9.447407719742266 8.375685255237624 10.847300413159344 -1.2420256323358545 1.581849879824908 -2.001092418642289
P 1.892237706456361 5.713628706932187 10.77895890965847 0.9174014896260072 -0.5070801645576557 -0.15168917297859683
P 9.240006491022218 5.4274408739193145 6.579893414841363 -0.20515603454848538 0.4202370415201666 0.15205581228939619
P 6.89367213356268 7.815532981156193 8.703684639830218 -0.5079476547642735 0.1539967380658509 -0.4982967619380709
Ni 7.725325292498408 3.678929491120177 6.555980873411455 0.5651253895268461 -0.29677009661205667 -0.9708459825983924
Ni 8.874324135264146 6.195570150395391 2.1070060065374436 0.829772637462429 -0.6029527447872649 0.6005762741352882
Ni 5.312125677484015 6.99851013690285 7.209130978744294 0.3846915403153891 1.4034325468228475 0.48642032221545906
Ni 0.25222096177672193 0.22362955132225965 12.597290873578304 5.003990244378962 -1.7696980192225649 -1.2769139595726073
Ni 5.911449439263448 0.14991069925715916 13.092412814733432 0.5259196658616621 1.3469657220843705 -2.0444155069099565
Ni 3.802730270071261 3.6097139443034423 11.313895128466358 0.5150626685425 0.008675159176494737 -0.4794387486913033
Ni 6.043065637928736 1.182365399154276 5.29060023707551 -1.3739296522677242 0.5926143389757342 0.05377590816987513
Ni 4.500313113040141 8.920338834668424 8.920384141449377 1.7114676748257622 -0.2595816604872175 -0.7731070664495847
Ni 0.5888022057946233 7.536537599619434 8.544345410678714 0.1344959490287619 0.514576472934701 0.6393459387043182
Ni 2.0711711744782955 8.338278844214207 11.442054797301521 -0.4355376764329789 -1.0296581676405945 0.5266385463055576
Ni 6.588323307772227 6.241292243506023 2.7573102796917395 0.23443524312857691 0.7433637737488811 -0.009605898520880231
Ni 2.8939234387395145 4.732718021498023 3.719704650085623 -0.2842094863382267 1.0545757568178806 -0.10567413970106318
Ni 2.9599769498023147 1.5321054313648967 5.533464404694393 0.4215447045879966 -0.07692689236504172 0.5071737527127266
Ni 6.084039957952116 3.176996430561945 10.345284290169365 0.32527206070649145 1.458073116985863 0.6401182980939685
Ni 2.0242409005422792 5.1065084032639465 1.4123152464193267 -2.166447776254069 -0.021321901406227795 0.5024593779561927
Ni 4.182287827495855 4.975024349376436 7.39835191771612 -1.7801626661993146 -0.2184308972805206 -1.240373184334096
Ni 1.4354037707706722 3.256500392219842 4.647645101348121 -0.015325574613476832 0.5101950560375536 3.020216005300147
Ni 6.083322600587044 2.801035098875409 1.213249521503159 0.6720614266594684 -0.6096388985581888 0.7927932320246024
Ni 4.3280435173832155 1.40093286159643 10.508575592067654 0.5208373662427481 -0.4765783964243728 1.361552875869926
Ni 2.728185570669823 4.738985459529703 13.037402831527661 0.0022535719208670864 -0.18400973948817342 -0.8531894737244725
Ni 0.2700425728424082 8.37615720087254 1.3178326742004756 -0.09249466489631168 0.33723848903974823 -0.4650408280984184
Ni 1.0508341507032735 1.3805731269061674 7.819302882887899 1.6554986156593103 0.12991398608503432 -2.1405601098540297
Ni 1.4479197690086363 6.7041765222313305 13.479324229041284 -0.09633666435022119 1.0879026531047844 0.5530658872591507
Ni 7.084073880513064 2.6200250700598455 12.544282883755844 -1.0996050291433772 -1.530023896292552 0.8356905456087608
P 4.825360949631973 2.6607067837895775 13.409683931153126 -0.416644696183218 -0.17878062987875015 -1.8334297530535715
P 8.056725517336204 0.7312665468240828 13.289729509126605 -5.452151780223539 1.9062487938978265 2.8733041991055353
P 8.218961548794823 1.5545322879360903 6.089495649491742 -2.3080060314462507 -0.32403253187243547 1.6885851138006338
P 5.860299971351286 1.608220823364099 8.914111983961346 0.22198004808435964 -1.213997779664361 -0.0010713786873078322
P 0.5274370026690759 1.7949413943621424 9.763142181174672 0.1659809070109206 0.9748198796444759 2.4357070690403666
P 0.5647537440218594 3.6038806962558843 2.720452269496094 -0.5906867829357183 1.4302375828308336 -1.637765460045605
P 6.169575384824235 0.5462534751331645 3.2093860594862087 -0.3206913833143445 1.8543780731704644 -1.2083493231293319
P 1.4812957643098736 3.134153205824299 13.368391519771812 0.3647562348440428 -1.054170550959662 0.11984914564986456
Ni 2.8144761105578073 0.2593879281885516 13.25153211721907 -1.0081007531847928 0.5209821193507286 1.4646607975057098
Ni 0.17140876681883865 5.1852855686440735 9.352966678739287 0.19152893068335403 0.12213357080866707 -0.5492789094128927
Ni 3.9227932395938123 6.237063610617178 5.4022097163854506 1.0785746908356393 0.16429477755774932 -2.157012598983098
Ni 0.9913123672277069 0.5373186003729407 3.2991680531812997 -0.6208969879705113 -0.6997002714226596 -0.9499660538255899
Ni 3.725614353326037 3.6983453345406083 1.446823911244362 0.9195311343745003 -2.047351449609829 -1.4121511576427679
Ni 8.02512403762225 4.595278013697876 12.253066941948578 -0.3667179865561039 2.2358225673034657 0.6881598748832278
Ni 6.505921599915949 7.2658956558206835 0.060052250369211954 0.8333852945143518 -2.797257909573234 -1.0000148908528648
Ni 7.482915136580313 4.147486556377172 2.4439629192807377 1.6074598670835285 0.2872955814627181 -2.51982765094037
Ni 9.308127123965948 8.454537931919338 6.323574077171035 1.2297853815159208 0.2262102841156233 0.9393551110789629
Ni 1.884271264138984 3.5055555426775493 9.159200903303223 0.3700439656055433 -0.07544516561319264 0.2675451383086682
Ni 2.460733979363102 0.18131490569571895 9.642539305845776 -1.9515526600409483 0.13431031538051708 -0.7830335815346772
Ni 7.962581802083223 0.795123622901985 10.894740388381068 0.178222443382435 0.07194589421068254 0.8021906140791023
Ni 8.193202756041124 1.0085478218148278 1.771969912528256 -0.44418378214375115 0.5381686584323442 0.049626404777875825
Ni 2.1804737835247687 8.45267846611777 5.098201216198161 -0.5196508021338148 0.40759878393086574 -0.37166658881063086
Ni 7.859395608465257 7.010648578632882 5.496467642482082 -0.6416815288160304 -2.8814556245680762 -0.5899781869044679
Ni 9.013991726461095 3.3564584776949853 0.3800766976230011 -1.3832391025941082 0.8141192471958882 1.0157832094307153
Ni 0.546452636191099 0.9757004056246958 5.381044842442023 2.235319145304486 -0.5872211929846209 1.3339605680739544
Ni 5.777275295256918 4.914747452885004 12.650643383714254 -1.4711304643904535 -0.04541133825526373 -0.03524082548016511
Ni 6.2914223088467685 8.975433768088482 1.3270082412345063 -0.03458262307087592 0.5570477547250343 2.397749873070303
Ni 4.569556976594971 2.114052154866735 3.217108033964699 1.6056711506142216 0.932299232673446 1.9267206885989334
Ni 3.5329283895026595 1.816433798576203 8.368925105963092 0.6721578430280166 0.8211967228679599 -1.684480861824273
Ni 4.230907666804868 1.0016857322831536 1.3825298135085278 -0.5674602083076098 -0.7299976368546203 -2.019639071296225
Ni 0.37643799677780115 3.4737464068842323 11.58144677224768 0.7513066827450415 -0.31955032773136577 -1.7994407977026365
Ni 0.9915672178705613 1.4751038375797798 0.8170020786454065 0.6616016647787251 -0.9579686124150922 0.5417905714556476
P 0.053885808703403565 7.866512548639785 3.546605374002516 0.678900818178805 -0.9009199470312163 0.38059603008977677
P 4.585810784261468 5.016102497439498 9.394549808631709 0.5294145663887979 -0.6809435596404466 2.0380132029280387
P 7.6739020961179945 5.182888084818702 10.207950942082707 -0.8398991843734698 0.12030860178478636 -0.1057867540195275
P 2.5456747547352276 3.4818544328920837 6.995070597115585 0.26920709939212345 -1.06922307441741 -0.672932516410512
P 6.392881181440942 4.809579087600392 5.153529290761867 -0.06920561246138404 1.1057661636487666 -0.0016344502796294433
P 2.494789576378618 9.141398170062933 7.243045935960605 -1.060116741240768 0.48020545165399875 1.3112212174949094
P 4.365251711239969 8.743519683090913 6.166417124635379 1.2975169805349396 -0.3164045830135325 -1.0603026319993287
P 4.351489776525828 5.457315032609477 0.49843122394715766 0.8239030660555294 2.2382062370442934 -0.9230813136196038
