# total energy = -340863.8143764736 ev
CRYSTAL
PRIMVEC
9.30595310508660 0.00000000000000 0.00000000000000

0.00000000000000 9.30595310508660 0.00000000000000

0.00000000000000 0.00000000000000 13.62020302945281

PRIMCOORD
 96 1
Ni 5.221328397224507 5.27039868855607 13.353669702656761 1.050965670869119 -1.4117973738477751 -0.33734621826220607
Ni 6.890351107316608 5.8687063389600365 8.722051185655824 -0.3358719477095248 -1.4100431101608297 0.00257007472002138
Ni 1.5157908843637677 7.741194410264591 7.029454634865617 -0.34568302026267567 0.8231476759467435 0.8676722407216798
Ni 2.3444022650680374 4.249014486889671 8.095617222238296 0.14880619500384695 0.30008707680043156 -0.7641007491859163
Ni 3.779566370729614 2.3763123786610447 0.6680399496709483 -0.19387300543549837 0.5084117388848857 0.9583110833561754
Ni 5.885913046464693 7.9430033118038015 4.420995016571293 -0.6576503934404608 -1.1376257313615246 -0.641054950975625
Ni 1.8262840135648994 4.9204762355597875 10.421661633388302 -0.36031593968450204 -2.153158258234014 1.279924464264157
Ni 7.017786830717785 1.9351171364783486 10.880240396186844 -1.4898000157754987 1.5594625132686435 -0.4762816911195604
Ni 6.785370649036436 2.7296315045827995 13.242610595732973 0.21826686089883057 3.1269129298387695 1.0379959980823283
Ni 8.487094478745284 3.9151820270115887 11.575156869353844 0.5097895930690187 -0.8621736795009539 0.5798868641067368
Ni 1.5066803561609232 7.5577647663358185 11.200410786141948 0.5893585510425978 0.5182392664982687 1.3320556377417576
Ni 3.9577846808549215 0.16957028779752012 5.778956934315814 0.06364868719889684 0.03708044979206517 0.3152481008115861
Ni 3.861477370976231 8.079419280062737 7.903572126818007 0.004990254125739793 -0.8704264064280494 -0.6783840264433866
Ni 3.702299041140014 7.393765952731397 13.1098946744745 -2.2022627290701493 0.5724928856355108 -1.3877907265205325
Ni 7.795820355668777 0.37461766105745514 9.603128600021808 -0.053091223398024696 -1.1998284301425144 -1.1415042404803244
Ni 4.6979336702453605 5.745272175443663 4.037654885560288 -1.7711820599672592 0.8565743310363055 0.41048818966351885
Ni 8.51330004301414 1.855495400723969 3.3859962053433406 0.7717071007782645 0.6025760781741364 0.38230247125792227
Ni 8.402168349655234 2.499960579101489 5.7585406035454145 -0.4453168673069299 0.3823847465590834 -0.29143814287618197
Ni 1.341108836462241 3.547941195072004 1.1317825859115318 4.903317928767866 -2.4884252253696886 -0.35688505962608214
Ni 1.8734558904394847 2.670529395679566 12.423423353855078 0.475532985878994 0.2356223214581426 0.9477564477687807
Ni 8.42838321987731 1.4220054878078259 12.381009610862122 2.5329983839943733 -1.8783338126551137 0.2980708177013512
Ni 2.2575218858016877 0.2075255486025474 3.8898893767536613 2.0249368293600547 -0.5792358607862992 -1.4218195339704673
Ni 1.7214896743491361 6.705935032346465 2.3615931524522202 -0.07598329750484978 0.21637838562686604 0.9480323271379866
Ni 0.08905145815268659 8.7478565939362 2.927431401474629 0.25137264231386386 0.9547202806811236 -2.3191800457851994
P 2.9956049535771814 8.841465177380952 9.77629563873904 -0.1128086938633154 0.4465545963687728 0.5265413586060609
P 6.369515517473091 8.001956525455507 8.292306918910922 1.5583577102402386 1.5553582612922827 1.8941257853820477
P 6.018513573903235 0.976631872629137 12.822236493285768 -0.9905570878740747 -2.888478078632496 0.11989336862423867
P 6.752595081793924 5.158811003489359 11.059509348430744 -0.522610398982771 -1.6987623114439518 0.4036433988275436
P 1.4383188238033178 1.1219629440732872 1.75223933557555 0.0335040452947165 1.1219638564545518 0.8905445173341631
P 3.3872646067672916 4.980397268346422 6.230099309895875 0.8129776773922774 0.08750235388804285 -0.49708474390784074
P 0.6232913430149747 5.951855030984976 8.246719845869784 0.3087208412160296 -0.9263643552462497 -2.6998272408278856
P 2.395678067312852 4.7403967347903855 2.923372144679858 0.9358080171576528 -0.4340497790335428 -0.3483379413870194
Ni 7.271597398853007 7.052507342183376 10.692540250325196 -0.7843551285595782 3.3173028618216747 -0.4096338120830236
Ni 9.032181382681356 5.631106741334881 10.050266623931098 -1.1896527751610932 -0.8654333240888321 1.4079327486860462
Ni 5.2485762282540565 2.489742642465408 9.72772600769074 1.0067763779464145 1.2920176479832655 -0.2853086329396764
Ni 4.631303045186763 3.0302510174170076 12.186159701141184 -0.4758039801521935 0.3450086199034703 -0.06911845206421645
Ni 3.020405318909746 0.622318870903435 12.903780838975496 0.44509472399379474 -0.3505676020484866 0.015947781578508017
Ni 5.7965945074545795 4.494691651910197 5.828439479375043 -0.20424637825002243 1.0020810293532743 -0.24131628651912637
Ni 4.554017103690723 7.526245502778072 10.780690892206142 -0.632991200130884 -0.38054717912971237 -0.8374658923416287
Ni 6.045547368008712 2.208116580154188 6.579511796655676 -0.13020452074225963 0.5941906823239187 0.6092187803016347
Ni 8.120821465940628 9.14952014683832 4.887146964100658 -1.1370474902605512 -1.1329568651309456 0.62292995924014
Ni 0.09599090746919442 4.556008577679904 2.484543406401129 -0.30383471676832186 0.15257671778987272 3.7873683968281937
Ni 7.440975053418864 4.159882066943966 1.4282144197965265 -1.581190134753722 -0.31211881115398504 -0.4687964384861088
Ni 1.219042648069277 5.453083856227204 12.68666085260264 -0.26713787556792057 -0.3426195508460035 0.5038907110860805
Ni 8.667750948614355 6.36517894327235 1.396043739513346 1.3073661054148775 1.5004382122156352 -0.41699950841947536
Ni 5.796240881232201 6.812227630030725 6.761981066212095 -1.6885334346270917 -0.6349287834732291 -1.2300183234623334
Ni 3.415070794990069 7.105039448112955 5.657886482917441 0.13578098638877262 0.14002613481837176 -0.7316403146643657
Ni 0.7542847323323398 0.6910405436506731 5.411891984892096 -0.060463861713012004 1.1157849813373493 0.8200299562533684
Ni 4.030948085074292 4.378692945016983 10.299951863003683 1.5993652630008521 1.589559846874656 -0.5946475673556791
Ni 6.71485013553168 5.629599176913165 3.0076673301415604 1.1002845717089051 0.9019357898902403 0.9370444606679152
Ni 4.895601422601459 4.253872194470758 2.2814930907023077 -0.6854141938172905 -0.9950439200008349 -0.6979809747387076
Ni 8.41644368189544 5.027959995256268 6.6773452828625235 -0.4061597374914941 -0.7807368150807006 0.7839339818617596
Ni 2.0815835342153965 0.5152557402925201 7.508504633558559 2.9815070187657233 2.180228117867613 0.5240859550870329
Ni 4.902292402966981 0.2918719168069621 1.1155222938493967 0.722499271595046 0.07347390081943475 -1.1852165937666106
Ni 5.9009235490093195 0.8303655528863291 4.671239543432429 -0.2888372149182251 1.9297201375468898 -0.6968736006071418
Ni 8.639377097245127 7.129746753913315 12.677957925150853 0.09025574826346391 -0.2668116025767534 1.1682853652289105
P 7.467031722436192 3.287532706103466 8.48383367273683 -2.156588366961486 0.13108846600910973 -0.19458442968022618
P 8.293298002928903 4.539350921415254 4.523406101167294 0.01819106908672996 -1.2761950791287118 -0.7193944074174772
P 7.245121961940757 6.483811234926959 5.254742352857943 -0.23078273397765414 -0.6991184307772604 -1.3211384766086214
P 4.199730158634038 1.8932496529394338 7.913924069180463 -0.8460952858818525 -0.3540409053090677 -0.4297856044405502
P 1.3091521931031316 2.558783509408108 6.00802111164715 0.8271837936893303 1.3004140995770765 0.8579570703164449
P 4.417945455700944 2.5206942428767065 3.7152780540966104 0.3188152493375542 -0.30251471240531774 -0.3411537649337544
P 0.9721184853172068 8.032675477036294 4.810941443773514 0.723776852755889 -2.0642999045387094 0.8424170656993168
P 4.55221174876595 5.9117370666515106 8.579107091212725 -0.772177869767096 0.5047530590863759 0.5141550691265661
Ni 4.899733265831349 7.156492063468958 1.3363544249619008 -0.03373750146176125 -0.08314099159555359 2.6963989318726274
Ni 4.6275806638985735 0.8659868806236612 11.162587669872652 -0.5409940436962812 -1.7897569947559693 1.1749411799825313
Ni 5.107879521513703 3.9128090089403678 7.964004987031768 -0.013865445128182571 1.545305762152287 0.06307070320823976
Ni -0.018519777504066293 7.7590432285414614 9.293323180763668 0.0816212125169175 1.0173261284378028 -1.6578648018986417
Ni 8.405685999972572 7.4671713117345 6.714065643675194 0.1624798358361976 0.20035552783604849 0.951602046767116
Ni 7.133171344698449 0.303362907843604 6.952595836622396 -1.184374300370973 -0.9110362095296116 0.3931607541286648
Ni 9.06066690548923 6.617360969593989 3.811314560736585 -0.9858545401920827 -1.3489385295400251 1.0056661756013712
Ni 3.0256352646196523 5.361987880151979 0.7896994679081775 0.13537835163371523 -0.5160975375649176 0.3494525146074368
Ni 1.2618872566963417 5.932535872099272 5.866248636714509 -0.140822405467422 -1.8867850287462604 -0.8018746255005803
Ni 7.222648084913312 8.68941520771162 0.8323793611632397 0.8451650607580993 0.5803131530108779 1.0344152227096057
Ni 0.7680817385770153 0.043365742007411154 -0.06720666356294476 -0.36116800327215215 -0.22886829056376068 -0.13203540330341132
Ni 5.153097148211988 0.3409822237373722 9.001320050016297 1.5197783073051438 -1.1308650155989233 -0.3336579707773415
Ni 6.342844655543212 2.0604031846855966 2.053272963328069 -0.4860801652672209 -0.7450668724829168 -0.27912692960899665
Ni 1.807113749930722 2.635464563944818 3.51255530795115 0.3181830150701939 0.15309839462129762 0.38208649859237426
Ni 0.13324636059204203 2.940569546231295 7.916361298328905 1.462695703359539 -0.48123723535262275 0.4859775782510856
Ni 1.0370740387961188 0.6187500378433831 9.76433748885073 -0.051729824274123815 0.41803386322126074 0.788755828730435
Ni 2.3869211653323856 6.6911664845855725 9.235451318876182 1.5290039396684698 0.5891814020347853 -1.2595916662440758
Ni 3.612003377041751 2.6256374773439974 5.990968882965952 -0.7225110986695881 1.0652944287869655 -1.2382533097776156
Ni -0.05844696979651212 0.341548956288499 7.581835544935899 -1.1324261894384562 0.48230989959151127 0.6533188559446426
Ni 5.990930728557748 7.767539563831755 12.680491005617467 0.4258289337856473 0.21251864556114364 0.281984710772766
Ni 2.789291970679262 8.750741439434547 1.574059179858447 -0.2916787981320783 -0.2913227003442402 -0.47136342788233665
Ni 8.763285864375746 1.9223214508001962 1.0536042035016475 -0.03278876439524676 -0.6820789587964705 0.31541162297264386
Ni 2.931682360905742 2.3344169772624683 9.86631212424069 -0.8822653080445063 -0.7824106032386977 0.01772724207643399
Ni 6.524320049295685 3.1039820847828272 4.1332409840643916 0.16969383708613356 1.0028569882873504 0.0401410909952599
P 8.916154757928481 8.611487155443367 11.262654584852415 -0.5115029762156997 2.0769795568889067 0.09611169282360868
P 0.9274192002133017 2.8133385538009676 10.596055196739995 -0.8530475488299697 -0.017782520794401634 -1.5586929820924704
P 6.723057986272138 6.283025988242002 0.808496562818214 0.36476549081542337 0.6658306152584081 -0.4322669761015071
P 1.4319163279876312 7.352819758561309 0.3225890071971043 -0.13272728716411336 -1.08889381337346 -0.5459076789478147
P 3.5252718930269284 5.384852607214685 12.119379250235736 -1.425947954316544 0.03906328455004885 -0.39154944377748696
P 9.018492325494039 3.8159247299620085 0.08969356892489934 -1.8258532262578941 1.203433116774637 -2.648198460908001
P 7.217548422548492 0.1572203572786284 2.9927266222460887 -0.7457644127705737 -0.23141599668627888 -1.5690702115617363
P 3.915842749690243 8.009038355856289 3.364149549562955 0.2671137071982045 -0.31563865138178543 0.23107918217215043
