# total energy = -381179.7262827132 ev
CRYSTAL
PRIMVEC
9.09440626189720 0.00000000000000 0.00000000000000

0.00000000000000 9.09440626189720 0.00000000000000

0.00000000000000 0.00000000000000 13.31058284097082

PRIMCOORD
 96 1
Ni 5.787598233495853 0.5738306552083722 7.418959177386086 0.3586318671138598 1.1320276684484567 -0.3757183902825013
Ni 9.030617999761331 -0.08295007862731509 5.702506422216775 1.0885981365099124 0.26999848494516726 -1.788424391987475
Ni 2.1797927415621112 7.65464344146354 5.868037346581121 0.6615445862885445 -0.7441695574796281 1.0326154504967056
Ni 4.551359225917139 5.898595460734793 2.823880412713866 0.5600402616944549 -0.11818898433862225 -0.1728804623442313
Ni 0.657343677577276 5.3722294207400845 8.92268285907801 0.43664967855023507 -2.845079142821571 0.7937062307571751
Ni 7.253034465234811 5.404851055652504 3.732846301172058 -0.5659203746243157 0.4699881448013648 -0.5599353606854743
Ni 5.455243160210552 6.294493149892153 0.4583362441210366 -0.031092093419114192 -0.7095118581964426 -0.925652931001522
Ni 2.8636557075153606 5.679420272167938 1.2886164210024935 -0.8181314536790749 -0.2164750591057304 -0.4287962439440874
Ni 4.354674503795338 8.809942234177315 5.662747497346377 0.5634192054690167 -1.1519632310301193 -1.1361823140467786
Ni 3.7348998180840245 3.5372692777211054 2.110938992489926 1.6842255512803572 0.9734307126064333 2.226781797257436
Ni 7.370988913189671 7.699551619104334 6.562223372971808 -1.6273388653956422 -0.09372236665582567 -1.013773378089538
Ni 3.456119891514381 5.037846294880079 9.89652460335199 -0.09861286197890759 -0.2800255301638661 0.10033704375886592
Ni 0.5813890161717711 5.901241932928692 2.7099811604678017 -0.23678497430767612 -0.08675390575779253 -2.579568004223796
Ni 3.3475144930967295 7.099602738831848 12.627377425967548 0.10275696605426819 0.08566504356898794 -0.18579048553768004
Ni 3.6700112300996044 2.309197046878202 11.206539252619171 -1.3147261453243744 0.42788504498372765 1.041533836032258
Ni 1.7122493206400335 6.672238404344972 10.765186812010525 0.8646126279597496 0.4150917498738012 -0.327256695236688
Ni 0.040471926313702174 4.487862082075903 4.630645168300736 1.068720937970011 -0.03552416104853882 -0.3419952869984433
Ni 2.8348810064105665 0.9423259891511764 2.2102489983667395 -0.7450097939927361 0.5874073408534981 -0.18235806281736336
Ni 5.428896665551705 4.9904371555440195 8.632751371669334 -0.20537097877276891 0.9813185999949422 0.28218525681934625
Ni 7.655743864609457 2.273883467741061 0.6108330655702795 -1.9786312614252954 0.11495247967919557 -1.4517124648751578
Ni 1.56097296849808 3.620428527690206 10.519260427710499 -0.5914866531291941 0.39202741185517 0.38895391513616884
Ni 7.872663640447492 2.3368804192432444 11.132226131526378 0.4155774312609682 0.6678522736741273 -0.6562357724811214
Ni 8.473694755053566 3.6366256650693582 2.572030841678836 0.32024735379839037 -0.025089853089092274 -1.1709464570008414
Ni 2.7350153323170954 9.205266975746305 10.954555993813521 0.5466638403875488 -0.8738452023016111 0.4107108471972862
P 5.624417303684438 2.681940377940491 3.2757214319521455 0.057348713122798003 -0.16322314176012534 0.24849454943512042
Ni 2.5122296645028936 6.355889485909367 7.987148572450557 2.377087202514629 1.219546734507048 1.1232596924478397
P 6.417485898862202 7.146557157859677 2.177971132007342 -0.0857419195535104 -0.5353193619090071 -1.1103352710766878
Ni 4.29747978342617 2.866229424459942 8.590436918666684 -1.536045934116916 -0.3888400152661239 -1.0484506177567492
P 8.345208984760099 5.597197746033791 6.2779367834694995 -0.17609974061247735 0.083331767450121 -0.7077997606013423
P 4.805029497066322 5.379095697394358 11.616318643346176 -0.4176160589575517 0.35955077938370333 0.6897056221037928
P 0.8458170603730595 8.740406404642785 3.30942348231692 1.6075760809464186 0.8747661714539839 0.13182714394734715
Ni 0.8142094517479926 6.300086209683382 12.947936145016747 1.3270625554025404 -1.168853579027555 0.5422464280461435
Ni 8.295617187944536 0.09132784558614444 8.297125040486627 -0.11524712810147894 0.5395573112497546 0.5522739874854746
Ni 0.029745983683173136 3.981731095797428 0.14251934844606046 1.0434801611253512 0.9254091904218321 -0.34772499039336885
Ni 4.850510622295486 0.8801993723189455 9.755977831603031 0.8264641419144864 0.6367902621620001 0.6100816425225621
Ni 0.17713993383345908 2.5711705108556653 8.949769638398655 -0.8898408063989192 -1.0851124919541568 -1.0058962893343064
Ni 6.379553130749656 6.255168937636424 10.420708895307811 0.6552446122124458 -0.5384561077657759 0.962990748220032
Ni 4.414906755823483 7.722851487698039 10.309378812803248 -0.14062623029621585 -1.8287680859118438 0.621804073165813
Ni 4.391397715887993 3.786310496132507 13.18823218246027 1.67688813707868 0.0877664061827069 -0.29546834708149755
Ni 8.122323278478087 5.99265890369525 1.0584733786011302 -1.965266152972299 -0.33375233026336065 0.8452380800878798
Ni 5.377949802217618 2.1362760080645007 5.538174140584921 -2.166019944688031 0.5126486597843687 0.4066171367438869
Ni 4.6120461982535135 4.230217555432789 4.640321616459871 1.0478651775669243 0.269774027639187 -1.0757328505114698
Ni 5.885990613790658 1.9777150365847027 12.322551120142492 -0.5716459642541832 -0.5625393739672248 -0.07980395680252061
Ni 4.790169237393366 0.4762049333532424 3.4543755844120105 0.8108038096694101 1.0175287313669121 0.21565179187348668
Ni 1.282093003460626 8.521476765042372 12.596137231351532 -0.6326423014318976 0.9599069670883856 -0.04093761875462627
Ni 7.9393892984771615 8.023976370214104 3.426570347004363 -0.32385486864399066 0.28755140622726605 -0.16829515696639405
Ni 8.64878026253444 7.202405906116484 9.893170586358487 -1.1054874560660832 0.8674261861491448 0.5010455283278016
Ni 6.920161010798128 4.1401283679662635 12.460129477719324 -0.05807736375870643 1.7276566258807988 -0.2917111940319105
Ni 6.784836247068882 0.45743953567320705 4.945240685227807 -0.16615239959177835 -1.103999815776963 -0.4791926941187682
Ni 2.596371110337771 3.14717381969676 5.146150668453681 -0.40615870905022955 -0.6194198892043525 -0.009652692598415634
Ni 3.5302302073497054 8.754266279637635 8.26418146359598 -0.4840006570303728 0.13510478625735442 -0.16684454056279654
Ni 1.4863897435421969 4.9156356648401855 6.432246120067347 0.12195925001433187 0.8620358683715089 0.22577242524725633
Ni 8.98607359836712 8.462153953630688 1.2792373599249418 -1.4607138970428197 -2.285091845852239 -0.485406279128648
Ni 0.3430564610191855 6.86306632889677 4.670736948436758 0.242019483233738 -0.34279387164033864 1.9911206521415576
Ni 0.3543080603260284 1.4428548212322574 1.4293705452120054 2.304530414192825 1.273990358167909 1.2682969073275578
Ni 0.34487625169272196 2.879734617614373 6.236579971435982 0.02352585103608206 -1.9748998194073213 1.6654783525798413
P 3.529529938075031 1.3346677654981778 6.575241105955817 -0.6454121995030562 1.4524516570340276 1.1602596667109566
Ni 4.6055346034396605 8.434652469388938 1.407074699058872 -1.3878051246982357 -1.0455203314838317 0.4350993033439797
P 3.8933152790651886 6.251276531797975 5.355965894195931 0.32259837052907026 0.5953628482551488 -0.6871445462448359
Ni 7.293158985233026 1.228117702873726 2.713894483440429 -0.20121736161571155 1.0283438197045451 1.18060094937147
P 7.770287910252592 1.3339311185988452 6.624278143995339 -0.2605141996038159 1.8057579981699161 -0.08210612257313603
P 6.8125105250277596 1.914809029144166 9.35226804755028 -0.10611996898923014 -0.5761955312980787 -0.7985671583939022
P 1.4788050088009206 8.263750388743778 9.064732936165978 0.45324846344918074 -0.3126952524827454 0.0742179780743109
Ni 4.888288785503233 7.156697420733206 7.196299921817572 0.25909597910005056 -1.2650280067682989 0.08137181551027275
Ni 2.1764187168750446 2.8365361883325235 0.6611314977448318 -0.0973278246188969 -0.0284993929912735 -1.5969589675522045
Ni 1.9730041341914402 7.911278489022382 1.4606898611616541 1.9204600524012023 -0.8792555746839051 -0.16533041791111525
Ni 6.47036987070935 3.2284323387774596 7.518230077316392 0.3796583487668558 -1.3214045857858148 -0.8297189014063582
Ni 2.6331307000550837 4.7747087469135465 12.277867574333962 -0.8113859074251252 0.22932774669868247 -0.38789256375119
Ni 5.075306153872065 1.870237344531462 1.1861952187767704 0.2203419982603044 -1.1458612318974395 0.3765704538701515
Ni 5.142850308456548 8.82349289936257 12.428277229568431 -0.5872250496393628 -0.7547501612089518 -0.10238235632366884
Ni 0.7224487124284132 1.9491767900401884 12.298872014811723 1.9904390526935007 0.3107173028207681 0.24191663910728659
Ni 2.2377150144244475 1.556634936757566 9.318726058734002 1.0221330629081429 0.9922396177828202 -0.4782832949306214
Ni 7.416997513976382 6.061821862577031 8.159347515414789 -0.030788960356398585 0.9443479363078638 0.15330922508052308
Ni 2.3196101419366686 5.369346493985906 3.943193549674936 1.4949260241481543 -0.7959145512624035 0.6725797610567835
Ni 6.166298400595954 5.315671308802438 6.303386569680516 0.2937462221840683 -0.16116934455489018 -1.644994630804193
Ni 6.228731498915932 8.102070035949524 8.958581208531534 0.44070302268400224 -1.1488102872234343 -0.20656679885308296
Ni 7.905639957200331 7.179760834766631 12.378388955111902 -1.121176841776882 0.9093073997639629 -0.7404070051134022
Ni 0.3324460173469469 0.42551180395114635 10.452573875627337 -0.4931273019219895 -0.042247081594669174 -0.010152515052969612
Ni 1.4129615081692177 0.5527179912972536 7.2910581774090035 0.8202086479230777 0.49333273306457626 0.20130220802003398
Ni 2.9923506491506124 7.765731612764127 3.6125855118138555 0.3177523552906786 0.16048234579019457 0.019022049628457563
Ni 3.905174384703827 4.6448497212892255 6.910082589886518 -0.6769238969580923 -0.5024812323330636 0.19107127432064513
Ni 7.464024688253527 2.9088730949657506 4.88248109772652 -0.6369512132198966 0.07355849011344105 -0.7520067941358597
Ni 0.4265531134569931 7.041816882061981 7.463110700433986 -0.766109552085829 2.0244796872179776 -1.249426809895932
Ni 0.5392364435988508 2.0602831501531047 3.886876439500652 -0.06592205661410583 -0.9365322969181872 0.055464608726207704
Ni 7.696677786756321 4.204353064300668 9.25902764834772 -0.49989264567028097 -0.48672114128532945 2.5816678241756184
Ni 6.315292056790593 4.072320475603007 1.57606604496885 -0.5221033774393654 0.2974131295126942 0.6185727107127089
Ni 6.814365783885338 8.988820109028829 0.872404556795267 -0.4218504087538735 -0.272051510819454 -0.8514112987781273
Ni 2.209877037154607 0.7517809006310971 4.905469028188779 0.139586733288108 -0.3189592311145862 -0.7352627419083015
P 8.889681987428528 5.21438690734729 11.09282643569948 -0.12567243719986096 0.048824220591554626 0.5276908988294718
Ni 5.609939009070395 3.4224251166745385 10.48143133582823 0.2245616927686068 0.8338542637309704 0.25283045780631297
P 8.318098559983428 0.5000641079260699 12.521344835053863 -0.5342693233779379 -0.9387488449535316 0.8296453678559454
Ni 5.868347465831334 7.3211606618138285 4.188800720318586 -1.4448537900821117 0.4408426335856601 2.435574143006928
P 1.955442835887598 3.52772924565444 8.104148107758133 0.33050451275002435 0.4240091069680891 0.31758754757804014
P 3.3024971825819605 0.4747079940985492 -0.19118351583283413 -0.9654561790413887 0.47770428249869995 0.9346952437094483
P 1.7580214668664647 3.369759410575341 2.714227338706053 -1.2462049605245247 0.39096451780829444 0.8069713232971973
Ni 6.842549348589434 9.107138333230274 11.012390960376678 1.1391457675504768 -0.04704553142457704 -1.0976579327193354
