# total energy = -340872.3077395948 ev
CRYSTAL
PRIMVEC
9.26743895148046 0.00000000000000 0.00000000000000

0.00000000000000 9.26743895148046 0.00000000000000

0.00000000000000 0.00000000000000 13.56383367257656

PRIMCOORD
 96 1
Ni 6.721793725845531 3.653177976624822 4.100170637808637 -0.8864940014138731 0.05485268617382166 -1.731133785796122
Ni 1.1155030548088547 3.415347698680853 1.9571662720751324 -0.7841844073096688 -0.5742008694655529 1.3584564963327896
Ni 1.2205216695328176 5.677381192881675 0.3807137934832481 0.8406049521912426 0.20435436458279643 0.44179985529260685
Ni 8.190237914006609 1.9496837421132434 3.2165685536987474 1.2673242590016434 -0.4659491988453007 -0.6933169936041349
Ni 5.061541360051038 5.815493831006561 10.752959015504272 0.07402488822689832 -1.3906878455626694 -1.235156416019847
Ni 1.1377263726793156 2.041227501047527 7.340936473809208 0.11231427072540012 0.057426874658901096 0.5035590387782748
Ni 8.909520896991575 4.103677436591866 7.629453153933707 -0.07168055636443783 0.35097743589239555 -0.8035772100139839
Ni 3.8604164396019884 7.178215079106664 2.0834592189523184 -1.1307158916155688 -1.1092775192361348 -1.9422612074366936
Ni 4.2228937673198095 2.649977743314818 3.610190962470471 0.07062743250957515 0.029230100509710946 -0.1858421647112219
Ni 6.644725706074575 0.6675975509185165 6.825348085263601 -1.14722597345545 0.08624457022154179 -0.14792713483300332
Ni 8.642794745352822 8.055211332950474 9.021115686177957 -1.490383913303427 -1.6248459237704598 -3.54362987402082
Ni 7.914309195793472 2.014611417259385 8.437138234152338 0.11845380796423471 -0.10098470464519382 -0.9774917700496842
Ni 8.53354091116814 7.5461509281863295 11.211172691399328 -0.5087619231354528 0.6236812355838678 0.9724850608637123
Ni 8.258955971558514 9.015605267159701 1.512652650728826 -1.1762344448726583 0.3440853367582526 -0.0406159737491494
Ni 6.532005849836703 6.871064360098872 2.050241011873553 1.0617344793498489 -1.073147863393113 -0.5388615707343106
Ni 5.2958500113099465 8.332344818187446 3.288116887012803 0.47110091824956934 0.6247485005061175 -0.5594234540460624
Ni 7.34184097582095 1.8764524419412743 0.7925309645464964 0.9961929460036134 0.5653519037153555 -2.2583937677357624
Ni 1.4417354299864877 3.9940899746159695 11.321121583482377 -0.6766493031404669 -0.2161708976017503 0.28753392272576933
Ni 0.03640435248488089 6.867885628643673 4.981168571659311 1.5741036602205858 0.46514521488676663 0.5618348917010324
Ni -0.10482492525628437 5.273867646844253 9.848808239687054 1.735946376693417 0.14834391065544775 -1.5038117566735585
Ni 3.474761247833282 5.357283862086963 6.562942413521096 -2.2473693916008006 0.8572986107968398 0.008847165977984763
Ni 7.398937665312155 5.324263978195199 11.088243824750238 -2.696748859012878 -0.15754923130379964 1.3703072250237884
Ni 6.524962596466582 3.9589478472745236 13.240186635056746 0.3154411906589987 1.2137021028008128 -0.9579159048002857
Ni 7.226785725044565 7.4876826577756805 6.470626676947692 0.3821628603562644 -0.0705821810939365 0.29672175987262445
P 2.5338289347783345 7.881687811763438 6.3245987194761994 -0.06635940126184056 0.158507738562327 -0.2008977734927637
P 4.971424786668068 0.8407309129386011 4.49319622353163 0.5445046279527009 1.1242832486163477 0.1856192500671384
P 1.0348948734755485 1.6000510843572477 3.7118649585874905 0.49662528777291887 0.4742263512524284 -0.4814717199609321
P 9.145553291838434 5.63453782402632 12.163801438767997 2.5045984926954414 -0.6629826042866518 0.2725518474946403
P 7.118264018512832 3.4428534565789044 6.074210135424532 -0.0698221629994604 -0.7413477717601168 2.772886165597089
P 1.911270208930149 6.29730796615471 2.7815762988162067 0.42452821269635266 -0.8398783584378632 -1.1103319286425781
P 5.14971177131858 1.135909954704916 0.3898570484503025 0.6076483504907212 -0.0341812738673992 0.5830889159838022
P 3.136749958137986 6.02167580597821 9.85017796711877 -0.3133621966427829 -0.3551030280249949 -0.9125462184162348
Ni 6.006681090250767 1.3693845364857837 2.4473359299055195 -1.5573817194802146 -1.7633473944141889 1.9660115157787559
Ni 3.119012080571655 6.685622912814502 4.445234448312699 0.7003381621169745 1.4857415294354088 1.315856916494708
Ni 3.810149852392072 0.41919405222458567 12.39225677577879 -0.7355159955696882 -1.382952424591625 0.5802023384646267
Ni 7.536985431366527 6.416839389796579 13.258335060155048 -0.8274164785254268 0.5349676349965432 1.1661760321953916
Ni 3.8229389177220283 1.0908794703293658 6.680011478715016 0.6865012562338823 -0.7983205896007348 0.0046169299467210805
Ni 1.0818066478960124 6.370326115237846 7.491088441477679 -0.2138995850690703 0.23378989623509414 -0.3544599951243573
Ni 2.61500242986898 -0.27286768322872756 1.488766754365471 -0.1517202833268484 1.016872842950468 -0.5579820936138455
Ni 6.084342226094997 0.4503465472294039 11.825437986404197 1.0732262820395322 0.3526316836663669 0.7021327921235521
Ni 0.1428242039319519 4.0855503266024495 4.205114186279577 -1.2307068648889257 -0.5874106832876078 -0.03846241774125634
Ni 4.560488022276085 3.672741539604197 5.65850527384975 1.237475551071327 -0.6395225734914987 -0.14071261936243507
Ni 3.3325709367046406 2.549351894508536 11.600048318097135 1.62825289256948 0.8615085351131291 -0.08807596700332573
Ni 5.726146455031118 5.5561816302837235 7.398582722412056 0.9617949281397179 -1.1947142488444005 1.3090820596647197
Ni 4.702511519509118 1.4968766899236194 9.778452625726596 -0.42490359375790043 1.0334436028249556 0.08408330090416487
Ni 5.5785532271725025 3.556166428890049 1.68766637604996 -0.40074602267509046 -0.09848019305578525 0.6079967349690756
Ni 0.3931469891692407 7.924688727075756 13.61673193463752 0.10713941139268 0.6517088311450453 -0.7600638601123813
Ni 4.4756168191661265 7.078766195008284 12.484613289082231 -0.927080664586984 0.8349498107879942 2.5982794645903704
Ni 2.025964029599383 2.1741225712153374 9.601878263737662 0.21571015591524784 -0.46204112204014625 0.26985373183718686
Ni 8.782390173660891 2.0313669463293578 5.617827705405707 -0.6012247063525645 1.0329221831038469 -0.9374491523055016
Ni 2.051736776470839 4.4692130190625035 8.714681340177416 -1.2766501643882595 0.2921284840749872 -0.5591591446410822
Ni 9.135118155924282 5.826485013239408 2.4673156008800508 -0.9833356304249711 -0.4910984444174187 -0.4422950497614705
Ni 3.350966802414759 2.0056868738443505 1.4792583623158075 0.26894716086251746 -0.3111441059455416 -0.26847150677767956
Ni 2.0697063400032927 9.265344203762362 8.248492106584562 -0.06894670237304255 -0.5849321398401282 -1.052555126843426
Ni 6.1705108706152405 7.3220271919981625 8.910434666441963 0.866796780095262 -0.39861663503691347 0.7632072908373694
Ni 0.9793180439221065 8.600081120638494 3.0873999206100495 -0.05872810996882789 -0.14789859558791302 -1.2732028292696074
P 8.60464996789043 0.6986295692209511 12.792864979801037 -0.19543957859166985 -0.664916845194887 -0.4338145230942852
P 2.1875881595663715 2.9970340531275323 -0.061760991361181135 -0.7533273127194962 0.6671783875355543 -0.44820164505389265
P 5.406558833361876 5.982919377565254 5.414519563157841 -0.8500177608647104 0.5231999529376538 -1.6769644988425698
P 1.1674377809748526 5.020060304676482 5.777108100139401 0.44111465630012414 0.08034928778302936 0.9214712888200066
P 7.9365047113479985 6.0939618274084 8.122701454881929 -0.011819361232431257 -0.11021316522199727 -0.016603155774319794
P 5.0368529035010345 -0.17649280852885943 8.340048839932948 0.5551536230261148 1.6512938335493432 -2.3055292877709843
P 3.259571322498794 2.9421430140338125 7.692958277247858 -0.2071015883106304 0.20952022505445206 -0.2605586796885061
P 6.2128537977837714 7.530303608103558 11.32063318946579 1.9841172242405314 0.540691424854198 0.32424541921419
Ni 7.793054028563652 2.4765839662688114 11.64823992579446 -0.032625756454821235 -0.2861306146203395 -0.4964239703953902
Ni 4.107060051697253 3.9714310871291985 9.584896609164755 1.321267288877002 -0.886399641927854 0.371324889200496
Ni 3.861148567254935 7.286190006758349 7.990278097341143 -0.7591937988026022 -0.04373780720758274 0.34384519572298844
Ni 2.525423367927414 4.392172801607482 4.1135305773591195 0.4472541935389588 0.7745491982127499 -0.6893585231770193
Ni 2.3710649098580245 2.4107480821354694 5.283574362080917 -0.6419342682567848 -0.5439610967444051 -0.35805619711604786
Ni 1.4601590980125412 7.494762980900381 9.861585257346771 0.5522480193435457 -1.3271042072737531 -0.2014731863802595
Ni 5.452034154792381 2.850311964501537 7.7704627933789885 0.6321211388211049 -0.41598546533266423 -0.8409551364418097
Ni 1.5551318092454365 1.235358838803296 12.068352381188756 -1.654064197205629 -0.2923691393308836 0.06472237987904983
Ni 9.104387329377806 3.7784737471038166 -0.06378129298576848 -0.6026858642791233 -0.454128809171605 -0.2254672353020117
Ni 6.687745156264183 4.084021199226042 9.294697888926207 0.14628702812641903 0.0411222239616066 0.439176815847463
Ni 4.36960658850716 8.41722528873605 10.211857368369266 -0.715695104189019 -1.1838675359378836 1.1557988027261257
Ni 3.0932856708934233 4.45658150018951 1.5846764036453653 0.9974185908805985 1.0931775283504785 0.6619091687168149
Ni 6.787221842678498 0.38022076574733954 9.558325009082107 0.5718385398809636 -0.45788673355214043 -0.00506353056583644
Ni 6.102246917556936 8.373242024927373 0.39043533662174407 -0.8343689985838598 0.903387177624786 -0.416494800868915
Ni 2.271653095514224 6.217728470510987 11.820378891647946 -0.49049526361578105 0.06505688040033313 0.28588301738590766
Ni 9.513581815304548 0.37827738386350485 10.14813446024696 -0.47124361447502067 2.410969971305003 0.9406884851784058
Ni 4.947829887878163 8.245879615630566 5.524250670432734 -0.6512442328038011 -0.9890529925247225 2.2299733076115404
Ni 1.100128374096972 9.279764338293822 5.2870060946111215 -0.5800246752361816 -0.06687079368062032 2.2206846832207625
Ni 2.983642604285657 -0.03749049629406272 4.0209173560052145 1.7689233458400695 0.46451400906067103 -0.1059811294185207
Ni 3.9142880604447696 4.502714809763803 12.903695205299215 0.2969593298047273 -0.038765293693655827 -1.006127431508506
Ni 7.365611955945109 -0.12086500806287057 4.376344016401999 -0.4625869672412872 0.7879772986931979 1.2423614184087186
Ni 7.268377989682858 6.01448427358977 4.30734422871529 -0.7878171189662496 0.0033043817828846316 -0.3983551538454107
Ni 0.7255996691653278 1.3445941381106865 0.731543804312164 0.3400754442679111 0.037014629551136255 1.1660335930802563
Ni 4.850540316984043 5.402712846324244 3.168850512116177 0.6749842567332182 -1.1046605892894137 1.5848583276339285
P 5.059270837583039 5.5581370598377955 0.7908470709447187 0.6890939566617229 0.7615898098386045 0.7482606968298662
P -0.1066682188027542 2.7712421779832836 9.899875533595889 1.034482071391799 1.082497165818497 0.19579053417318537
P 8.75297532340199 0.26014256322542073 6.701103242326935 -0.5402787627968115 -1.3037063971751033 1.706380747221158
P 2.5328095165273963 7.721574274295568 13.404851411643126 0.6686670562659388 -0.2410319225094881 -0.21679361878741377
P 8.353900880475475 7.779653312283132 3.1903898930146446 -1.610843953064413 -1.888940641636682 -0.05084947855169952
P 5.534996265541491 3.1349150052862966 11.53473789773496 -0.4576093115210377 0.3643042349082887 -1.635847674197602
P 2.360648308821161 0.024077732343304577 10.382598804475101 0.9934341523115536 1.6412199942531087 1.1264882266874663
P 7.831689980274224 3.7501431871663695 2.0653107938540183 0.5751069262195901 0.7610552774913731 -0.6266719427810755
