# total energy = -381173.2986101643 ev
CRYSTAL
PRIMVEC
9.19753723029028 0.00000000000000 0.00000000000000

0.00000000000000 9.19753723029028 0.00000000000000

0.00000000000000 0.00000000000000 13.46152543783777

PRIMCOORD
 96 1
Ni 6.110843570547565 1.5052045196430173 5.1279524600280935 -0.585282066980379 1.1289377166692236 -1.3195973573737467
Ni 4.9592015700126435 5.501589523352139 11.687134569510224 1.036411684314344 -0.7987286236724308 1.7337730231911819
Ni 3.917139025076012 0.218501287302398 4.938010444807133 1.1473884671752435 -2.483026937172253 -1.0102517380895248
Ni 7.365084096111773 0.8256031108441396 1.43748857336999 0.47266672007479243 0.6429688801688862 -1.214058200588651
Ni 6.986311128137225 7.387121394719587 7.6760850128377065 -1.3718113203731406 -0.26594771191456135 -0.13349604700933784
Ni 3.2723364974468616 0.26091388958545936 10.85262732311424 -0.5105730082022626 -0.33452828919743677 0.5175296420257538
Ni 3.6516797127142664 4.3515019065671 3.827744484137451 0.16549856805786337 0.9328995852616062 0.34762934535576906
Ni 1.7416731954388902 7.5800029427598545 0.3694061963125289 -1.5612270613682337 -1.1439861263619138 2.2926151508124772
Ni 6.05669767033713 6.834248249221116 10.10512233828791 0.7278762196362432 0.8590284490037527 -0.45996341357551107
Ni 9.032836686829876 3.8850396210103724 6.263512567150759 0.7599710432882589 -0.9977574622772559 -2.2496964970720805
Ni 3.252341052048953 9.13163662908578 0.05781571746607766 0.5808746819413029 2.224882523352194 -0.7231057948307934
Ni 7.378540092715793 8.104244155634735 4.998883423565881 -2.3401432783004275 3.9038041459211352 0.7430027908650365
Ni 3.457611682403379 6.638782193289032 10.451609192196093 1.0476777441464666 1.0710590991848843 -1.8522890518519195
Ni 0.8909571296203027 8.87742590445248 10.237152981658184 0.695564394877415 0.3859531806366321 0.9391630496728148
Ni 4.9217675944977 9.03615699768022 9.006662336087757 0.7339828467546133 0.7401918037788027 0.2866744029389514
Ni 7.962546900896841 5.605549283854696 1.0178702634140377 0.07083363498311027 -0.34509063809431534 0.7292337621054021
Ni 2.4162205576664015 4.59125410306539 12.655139466425045 0.49035590982443944 0.20583300601085197 -0.6857805760177738
Ni 5.450478810345617 6.916906514074384 2.3630900655387297 -0.2146871139673722 -0.3613657211052551 -0.7711967368007493
Ni 1.3011571617071387 1.8240279415717662 12.90285856945676 -0.10097133490875514 -1.124926024406669 1.001494817832501
Ni 1.3451673761638967 5.826704060576274 10.606092862845749 -0.5455801204050669 0.6817004924111292 0.28551252142036637
Ni 6.612422052299884 3.4298443182560536 0.330200775174937 0.6356029267221183 0.3574584156310489 -0.4496172944544966
Ni 4.389496931837919 2.173966631109128 10.126606864923133 1.7670371845609505 0.12892796802268117 1.455453419974829
Ni 5.854241486299061 4.414265898929257 9.567564011617431 0.34310857466728006 0.06043840779171526 -0.004679407753540328
Ni 7.861760290652922 4.947870204451363 7.827594200027526 -0.14297184771025698 1.7724362440893349 2.893727499956894
P 5.307282357079731 8.752403784262153 6.691549382705932 0.06289792507580136 -1.6676023409013798 -0.567382818102455
Ni 1.5129304507075265 5.1600941727638485 4.840051157431344 -1.0719427873414182 -0.46713447740265357 0.9238421030450282
P 3.8813698037547306 4.658386925493787 8.344503136420707 1.337015295739878 -0.04691003428797728 -0.3055576129966996
Ni 7.878527400570303 -0.03604146841593572 9.173612348362218 -0.2625438284393349 0.2332509930124886 0.11620512113937406
P 5.138084466766978 2.554919415348306 3.3017759738174344 -1.1913093369279095 -0.4467158045369855 1.6422636050262749
P 8.216518489568621 3.7787252910405362 9.781413184714555 -0.6450715283341859 -0.30006265132039933 1.0219967944405948
P 2.3714837377881 7.657712932717043 11.847326231610635 -0.8240987270061033 0.8005885596993051 0.15155239029041642
Ni 5.825177269437336 0.15849931529580386 3.237375739626259 -0.36028482933625045 -0.4058861721151332 -0.8964706530106109
Ni 3.874379675648746 6.541711387985662 0.1913915470492539 0.0013218041352170784 -0.38191937688689065 0.7924006245718741
Ni 3.614576848530659 0.7484366953225607 7.035692704191214 -0.9464706390778216 0.892855939076159 1.525663048220695
Ni 6.901141935687992 0.1989979101330029 11.663886875035638 -0.3566161222354116 0.9833461719479323 -0.504955147794853
Ni 5.529945529866285 8.65626193019392 0.5361069553347886 0.5371322467480297 0.7797870495729216 1.628827534126027
Ni 6.873255003559906 3.124246954506786 7.081502876635263 -0.1533354503327682 0.7346114814775477 -1.753227789481684
Ni 5.701507187183298 5.207939760141915 6.678114540436969 -1.4396089967434047 0.22413437542320108 1.3681639534285406
Ni 4.988045045986812 1.9302962838566948 1.2164772782253246 0.6522775591643217 -2.132704618365353 0.3732696716316926
Ni 1.4696744342832562 0.3209995591785857 4.634507360228566 -0.7887853964167899 -0.21661364156612373 0.48644654746770416
Ni 9.01597760154268 1.6542046187442674 10.901640997688965 -1.3799905137498234 0.7806033748266299 -0.17868704172367936
Ni 6.671617400313195 2.0740721819524195 9.218963563710886 0.6027414001074071 -0.1485251734283184 0.675379692399424
Ni 4.531939187071319 6.990790328647244 7.939230224894892 0.44955661641989025 -0.27062789099905005 -0.4084145949639418
Ni 8.980502701404808 2.3909181334301337 8.173191652109592 -0.022801057054915568 -0.8093750476426836 0.24065114213130168
Ni 2.468747691368083 1.7221284293530779 9.03973759882714 -0.7392793192668623 -0.6044393566351203 -2.4380406022695498
Ni 0.6001144546968514 3.810760312347305 0.6153225820958587 -0.33809929437814673 1.0537851425957854 0.4856453917226475
Ni 2.9879026662921606 1.9557274736107044 4.071950128042211 -0.02711613949050169 2.0377836034157357 -1.753936128402618
Ni 8.110516875856156 0.8479899158572534 3.692671295533677 0.19336932632620246 -0.6887730829871943 0.5242157957966778
Ni 1.773745006893585 2.1009933726974417 6.238635988876737 0.0037262998116516476 -0.7148317277474592 -0.3300864513759993
Ni 2.828757683900251 6.914395586478419 3.846267403864612 -0.18500321374969428 0.3981211834577337 -0.04683264408282257
Ni 4.434868381767949 3.2025731794417394 12.768606720905439 -0.8076848044244542 0.034483892709482544 -0.8867763085409823
Ni 8.610366220655942 7.941420158450201 1.4758809322384119 -0.47363011242932634 -0.2906994649379445 -0.019102525157405813
Ni 9.085419005753447 2.3584600254222132 2.2929146978768333 -0.6384913040135068 1.0150280764322455 -1.0125011962453339
Ni 2.4323898276799816 6.16976299245143 8.207962940668374 -2.6627133666947236 -0.8251199691817661 -0.008579257028578773
Ni 6.791636060385555 0.957445204706292 7.108614456395803 0.8361032076661471 -2.4799287578629032 2.4520117197376607
Ni 7.619699512372262 5.843765491677065 5.562261995804688 0.5374551773050873 0.2213187603512769 1.0654268405997716
P 8.43885974856082 2.1332767275027127 13.293027285751458 -1.0583203114619775 -0.27929199443195124 -0.41091499278829235
Ni 0.7726924398503272 6.194283626044265 2.6527149865658224 1.5096864702867805 0.2061219980061805 -2.873796822471238
P 0.36546321220853467 5.956812418717403 6.81013138750177 1.1215712490018233 0.9916446645112986 0.19373236609257602
Ni 1.2608811472648933 3.8475504602735393 9.341369904383656 -0.5666181720222886 0.48213197925275025 0.33625812740434996
P 1.1926446203987098 8.365822107390262 2.93309086440426 0.7464262147242886 -1.2706126999449276 -0.8771796659914828
P 7.155030746526936 6.760943879478094 3.6498907917713534 -0.16775676796442077 -2.7468180077551274 -3.054874733024597
P 4.933430071390317 1.076019851472546 12.444977585903827 0.08646748486562528 -0.11957763715603276 -0.7143113364676149
Ni 3.4349029635959107 4.312826263559647 10.503731634270585 -0.07320984852477068 -0.3958781530598279 -1.1656934361320181
Ni 4.789516210239868 2.7400842298610444 7.8693519376775 -0.6863752721789792 -0.400151326513885 0.5087110152928593
Ni 8.70753819886611 8.453005560438456 6.606754530011848 3.0380453201720843 -0.3145014524535487 2.662803355305369
Ni 0.031176891106389343 7.19688873733001 8.981287251309334 -0.005536099326880788 -1.5571022405665829 -1.3822119468811744
Ni 1.5140433526822952 3.8688059682379214 2.9566218430178797 1.1485603759961573 -0.17811599971155775 -1.14427460413661
Ni 5.023805069771112 6.986954955725934 4.742926086659783 1.2565135415393844 0.5535312569313435 0.6432974671528986
Ni 6.539393608666309 2.67461616162631 11.544334530088245 0.15418340015536025 -0.508122489779241 -0.3381692283841337
Ni 0.913624459511354 0.6299365486058572 1.5033962838724428 0.6201655091211254 -1.2794614085848095 -1.2024026186275936
Ni 6.960300493553377 3.1976800897675504 2.492980442053395 0.25184623951617274 0.22001238283502753 0.9373805038510953
Ni 7.230790858644036 4.867051446994408 12.055172172319898 0.9444682639358121 0.9084293680343839 -0.8751441236186929
Ni 2.208641345529604 7.840044905839462 6.3407415259238125 -0.25053086313885886 0.19095017536174855 -0.3137293501742145
Ni 2.4643236760799527 8.355539261044878 8.655478300043093 0.8733800897397345 1.16450918601593 0.3451654571963088
Ni 0.10610462612665686 6.576468880238972 12.576820599519676 -0.3504555019506545 -1.9552815309557618 -0.660779425987746
Ni 2.1284480205873946 4.024354713670042 7.1874585026628175 0.12094083605214655 1.1716437401781823 0.2903073717058484
Ni 3.581456517860066 8.631161851771246 2.3967033841915337 -0.4519904226723635 0.6949015644824355 -0.15643980028970478
Ni 4.843781678431064 7.97345517975697 11.929711329615552 -0.26731553879636544 0.04163464482165088 -1.1051182456521225
Ni 6.213414502965907 4.144594114629958 4.7115468497398 -0.5131273991930001 -0.8270886628723626 -0.7164823759770047
Ni 0.41369877515462083 3.8737358480600372 11.728770899672043 -1.776466191184334 0.45586019004041484 -0.6704233768354131
Ni 8.563881868751146 4.8474422981497245 3.655221684205865 -1.6239930888518612 -1.3230398073963925 0.10079264323904577
Ni 9.136529718759968 8.840681744211153 12.437856852772704 0.15417671528714094 1.2692636421162011 1.2178315515881544
Ni 7.0207559041331615 7.308739984562745 12.766210762521743 0.06010159327758682 -0.9449847985609143 0.7112733209722395
Ni 4.630904684992889 4.211119899617572 1.816444572330471 0.20305287216255352 1.205140586384047 -1.7971116353488277
Ni 2.7391184884779807 2.0993378160407614 1.2643578162439226 -0.5144905980891139 0.9332322860106768 0.7460107244534249
Ni 3.3735002067070257 5.777773163834382 5.831532767491592 1.274619764221792 -0.5187177487965842 1.5742424997912952
Ni 2.158983843366169 2.44371199570428 11.07316770436545 1.1604476143520466 0.3049989122797521 -0.13266789468108764
P 8.051542268730403 7.577492015163888 10.86512033759629 0.5717135842673251 0.018553337522155145 -0.6843127332229956
Ni 8.734293833945465 1.4133763104191357 5.899566948544182 -0.29743729788241036 0.5727224851478138 0.04012515015565993
P 2.3150568484062375 5.152349846625375 1.1778595797008542 0.2533161391934799 0.6585831896673754 1.6188760793402697
Ni 0.3893795676216817 7.285957685459424 4.623482272648771 -0.48533300268855123 -0.13341351459786058 1.0468573051277004
P 1.0440492129246484 0.6001806769631187 7.7695080749741905 -0.3480342941036716 -0.6934200948409025 -0.49479569076334784
P 5.886313297753755 5.690286192065796 0.42161325572725206 -0.15142692045614567 -0.6505238096980087 -0.24584682739962818
P 0.2605469078598952 2.716189028782955 4.309370748915675 0.3519709101539164 0.029550202853291043 1.3754671719581733
Ni 3.929463724631301 3.310441893161459 5.831465625471627 0.4864398625994848 -0.510303813701276 -0.047940532435020666
