# total energy = -381160.92198201764 ev
CRYSTAL
PRIMVEC
9.22716194403448 0.00000000000000 0.00000000000000
0.00000000000000 9.22716194403448 0.00000000000000
0.00000000000000 0.00000000000000 13.50488420092580
PRIMCOORD
 96 1
Ni 0.18804679156120663 2.9195478453705532 9.704609406895697 -2.774370206341783 3.0137144567362033 2.950083510149119
Ni 5.460892778406247 8.244478393044533 12.989172704800461 1.7091590812972433 1.0798329887227724 0.7384838199487604
Ni 0.8624886597075694 2.4529118132977876 3.1544575468362757 0.740784443057479 -1.4066988762789452 -0.23793040076602895
Ni 1.898184066477757 1.4549573441686667 0.8650944102307314 -0.4943997408765099 -0.041931093016147135 0.281764881452476
Ni 3.0194411001997032 7.648053101556765 5.065425846139249 -2.3731464726993257 2.237252357771457 5.272198470192926
Ni 3.2113752950732612 2.6395588443973663 10.889096490316721 1.9824197819334501 -0.3454696187002889 -0.5536667540679433
Ni 1.4265100040025604 6.152256338777917 5.650254440539516 -1.0806426291082616 -0.18059171494555992 -0.6400630193760009
Ni 6.096035241265077 6.341247069002436 3.8421662283757056 0.35696476382408204 -0.8920714955016508 -1.9992484234550147
Ni 6.406197061681393 1.9151435900668918 10.83341518177557 -0.026985013229276104 1.240333332235096 0.4256080760240928
Ni 6.501744323251303 1.1025166678843326 0.06493061563894732 0.17636867800314787 -0.6561547827315408 -0.6879840114269958
Ni 4.451192132166697 6.98467552325574 9.89762133428025 -0.35670739639763727 2.872417682735524 2.355803610545504
Ni 3.095288371093441 8.061226957527545 13.409674772759537 -2.888034049116542 1.2471922641384585 -0.6650415436982094
Ni 7.256904481063278 4.203590469494851 10.375303201874535 -1.4943660378796264 -1.572654329368569 -0.8059901903308506
Ni 0.9067910321822782 5.972179046957699 1.4859292358331344 0.481511572059932 -0.641190962332857 -1.595530205525478
Ni 4.235331906462547 7.419957659160998 7.496750714150429 -2.0117583829965673 -0.2680750426702093 0.4812650032667647
Ni 3.382446876870087 6.366464902500318 1.3109287284953652 -1.7184716169474212 1.2626623347495995 0.010934130414000525
Ni 1.9273603524346914 4.720246946277466 3.4356017884804957 0.16668898882153874 0.1724217775402579 0.4740558871128352
Ni 2.3650507775982526 7.1190875907872595 8.888468781458108 -0.8043544544996405 0.22048238049291063 -0.6086361683252872
Ni 6.204039171412426 6.311683242245315 1.449438578630766 -0.27014246672219927 1.4082315108733876 -1.8768991370911159
Ni 0.2011927291332637 6.682273746005072 12.634034929090063 0.09027863108159935 0.4736403968419714 0.34856728378900614
Ni 7.322195878732876 2.3832098322355857 2.1540292755992945 1.7827854485341423 -2.6641747817315986 -0.3754813345710307
Ni 4.330150222241629 6.474025928876024 12.694875143854656 0.4349352669622896 -1.3058290999450606 -2.7671101823452604
Ni 1.8711208005980324 7.205518416390866 3.0966161596921773 0.15759679671228344 0.9997009591568718 0.6036158322925603
Ni 9.095960894026792 4.247650167611347 11.99691508543409 0.3271065428120689 1.3408076729027747 -2.092319272569771
P 6.343415452051102 3.416735010524726 7.7253204326683305 -0.40090311707824505 0.4564204334192591 -0.22245210262477172
Ni 8.59359729104155 5.8714553475567195 10.439707869284659 1.3902078206024573 2.347153905290306 -0.8759697048437817
P 0.8939256003322613 8.586067926923633 0.7670465877834245 -0.41256486968688943 -0.46678480737271866 -0.10620198718007516
Ni 6.961524574025523 3.640106146022976 -0.016400357577436794 0.16091763355540029 -0.2659644240851097 -0.502880010433379
P 3.399517126402133 0.6048312359870622 5.833502185191741 -1.7897698502717754 1.0937082040429678 0.47596647387198676
P 0.07018640706243558 3.518842784212087 5.058335694928209 0.9725652792823445 -0.9334138058938635 0.6531671608581266
P 5.027271531644649 3.7844835484164463 4.159544612121218 -0.8515082293673076 0.3131791340976994 -1.2681698948313902
Ni 5.91511827771112 5.095709391525289 5.611292749377861 0.5438831923186181 -2.8893273140066693 2.1228953455844146
Ni 6.023168343668015 8.960321613961348 10.41321115114616 -1.084890862861654 -1.723849850540199 0.7775933843557125
Ni 2.615817356804959 3.7299233400472644 1.4355830723078906 -0.4682284817977807 -0.4890441329915513 -0.5922109328897285
Ni 3.9146326671459084 0.8853443397566924 12.752688849513026 -0.1342756054878397 1.3309166390413079 -0.6743286254270903
Ni 9.43062082931207 3.3212984748977266 0.3527931538692663 0.19737690482369877 -0.3767180351916093 4.004645383009929
Ni 4.3617163431330495 4.998335151897354 2.4774579094086784 0.5854162785653982 -1.9836202299994545 2.7403686525853583
Ni 7.434610392272829 1.4449181920114422 4.541422703044518 -0.48131873932283553 -1.2740530930850444 -2.3006069107687024
Ni 7.781874630726094 8.590626144906784 12.059605346161478 0.5189769159952416 0.22828593569772943 -1.3253538002415497
Ni 2.2746614995355934 7.306186752820389 11.261776946248917 1.261215575000744 0.3992928351683317 0.6699353814554011
Ni 7.206551858524698 3.6918520700098476 4.33603991968828 0.47229288167514144 -0.5912251719376914 0.6838026263557966
Ni 3.546145956301451 0.18559144377716477 1.6368865273840647 1.0763776831843204 -0.0967027894403883 1.7374193616945175
Ni 4.762230532964388 0.6049908658880916 8.548456169549294 -0.04444023259124605 0.1992026451785279 0.09969581063044121
Ni 5.014971724819667 2.217102463545917 1.3619946106495278 -1.5933162285932947 1.7973114100644594 -0.4778302665536029
Ni 4.9112861064458295 4.510402830138123 11.247637243339236 -0.08272370155247688 -0.28690734488536396 1.4652441808130057
Ni 6.793571772954011 5.936322295778493 12.115001535399635 0.010495243104369022 0.780685650127791 0.5307523113636149
Ni 5.294471686211665 -0.10518780033265666 5.853327665269878 0.872671236598168 4.03156097645385 -0.1793971804168265
Ni 7.077399273281431 8.383983853949937 3.764216087282858 -2.2824459235889596 0.03334746511219418 -0.3743207386040263
Ni 6.982359505616528 1.3611447890376893 8.277845655940633 -0.6244386825751826 0.5988526065759622 0.9300829417484175
Ni 1.8414739293837281 2.7989027034075815 12.479418145125939 -0.5664106839971729 -0.727308005837599 0.12729068952957434
Ni 7.739466594591347 8.670108917592753 5.862646176081993 1.2082804175646094 -0.871503441542312 1.9292485972271094
Ni 2.465746795513504 0.5573814785851207 3.8872593686260344 0.5468736424055097 -1.6121984102097784 -1.3221273228844521
Ni 5.355730814126936 2.263026048368075 5.537245697772611 0.20677685798136003 -0.2714290467441067 0.8534632962111495
Ni 0.5127460055654893 8.27655200784096 10.14249175702697 -1.0120003453495152 -0.7835313471067022 -0.39537704505369325
Ni 1.1247818095712656 2.300838957872033 8.020496419427893 1.7163746252090766 -0.49737990655075637 -3.860191294327191
Ni 4.61443908066451 4.589682605262088 0.1954525117095417 1.4972698417899828 -2.4273651248335746 0.32723201264633967
P 1.845044841042594 5.3366951791082275 10.808120762833841 -1.298591444546041 -1.25729284290757 -0.5722560870343564
Ni 4.997366299896886 2.912959651767374 9.429285658983808 0.1695704241343918 -1.0208251427299968 -1.506556409298231
P 5.422959915797469 8.38032067067198 1.8365964515985178 1.7358389045812752 0.1670988226654477 -0.8014825322684842
Ni 2.4927823799075006 5.022399590156583 12.927604466961231 -1.5989549149363107 0.6924798424148203 -0.8261872341040158
P 3.339005398601508 9.231960033406697 10.174417737232849 0.25700875755371866 -0.442795900657289 0.1417929969108074
P 5.305701142255178 2.633625779289742 12.481079034269596 -1.829646117641423 0.5066716162653274 0.47952642330910317
P 0.22552936866881532 8.05986133756498 4.314594149978885 0.43842476817278686 1.1719862111192654 1.8127300586123747
Ni 3.309543070625388 2.5687496039060593 3.5195080625857416 0.9500616988631896 1.0765442906691718 -0.3971014839439677
Ni 6.360282704021145 8.169719927256082 8.181001978122477 1.3032356281862716 1.882796219301841 -0.47342776661053304
Ni 4.220706854836442 3.806896324693927 7.041122686235356 0.6290170459744845 0.48733100695518655 0.7460035253645733
Ni 2.6600892796453675 4.115148122595036 9.108706372771989 -1.6909261032289846 -0.061990839880499686 -0.2776632005792767
Ni 3.6604981738423388 5.543798828160535 4.872900190187309 0.889874487850332 -1.3825793575229222 0.05567543918543315
Ni 0.8083187602871474 1.055338189042522 5.201555088502071 -0.7784547039147431 0.38739017019347477 0.6320540330285953
Ni 8.50920566821988 3.7304492882760893 7.5791843332149655 -0.711274349413504 1.3896596614084713 -0.1314458493485285
Ni 7.7513696334542335 8.052405790742338 0.6808593592542211 0.49566420941123024 -0.20472460343802162 1.8740958633143658
Ni 8.651995998764965 0.29524057689292643 2.755171492255053 2.0130573043136493 0.528001230981039 -1.020875793462274
Ni 4.650628009672446 5.064253996576778 9.091420207651268 1.2240564494519435 0.25191128842615323 -2.2406256451190636
Ni 9.082360057372611 0.3328569478482187 8.333067451818705 -0.30554835702531896 -0.0898302306902711 -0.36930091679193167
Ni 8.22302524160561 1.779301312439445 6.423192571201974 1.062452588462796 0.7018563985337137 1.6595684148533096
Ni 5.587581711419754 1.0074676730575203 3.1937431113809445 -0.9224022852747082 -0.8207694055225543 0.39860069419731353
Ni 2.3190995112903674 3.131781796444382 6.0173579998137825 -1.1926370546003977 -0.29807853101083503 -1.2080850137243517
Ni 6.3651730998330285 6.072690521634766 7.66936969099943 0.7318390609387333 -3.3086053340476758 0.760113225293078
Ni 6.569886913950848 4.3317557484138325 2.325689550325928 -0.8413585425278155 1.2536202791519895 -0.42547823531444784
Ni 8.505284124408464 6.775209720754676 3.0160325865904394 -0.4233074529153742 -1.181008469222534 -0.9680961877673973
Ni 0.9743790704510791 8.41331700165933 6.68641674170231 -0.10708618955724139 -1.3591866896305949 -0.6809389316547564
Ni 8.625947720695255 1.8791945672685948 11.82825271561176 0.31425308388816847 0.8854485908684944 -0.8997855763164568
Ni 0.6510842304893788 5.605242499313989 8.329380277919782 -0.13228917118543024 0.19169219573409568 -0.41516116965915595
Ni 8.777171677225361 1.1532937398707368 0.3678583411184398 0.27743360106697385 -1.5117078715921834 1.7899912222539625
Ni 1.1350239592904932 0.06267272911976268 12.067654199494887 0.17214718372263257 0.31610042150955237 2.0444288766463954
Ni 5.6135192635465545 7.183188684570569 5.845116413886869 1.2290955545377478 -1.9614146404366928 -1.236917621685328
Ni 8.941193707323547 4.2883142701452535 2.8821584625982277 -1.155300008712836 1.510281423558302 -1.035297625314559
Ni 1.5558379053221025 1.3163653722922741 10.093928281182587 0.7263605543226651 -1.5861690760255522 0.2486742695460943
P 7.955086914085857 0.6252546361569163 10.22622271505594 1.9944731135535585 -0.8994575035530767 -0.9083206103706615
Ni 2.628799973611223 0.4822566944688738 7.916401115065287 -1.4164945222131282 -0.4104506515573641 -0.34273165094383556
P 2.8401388899798583 5.5430329737220685 6.970761885812837 0.8758167242056851 -0.12239119534542792 2.1064886220916175
Ni 4.252955785709146 7.863175154308178 3.5601574016605926 2.9447037338944444 0.23816102871959632 -3.6879458944637973
P 8.309871289495133 5.151828990257127 0.7238579337511579 -0.7074626889768977 1.513750098833193 -0.025118906554814805
P 8.299988999090363 7.018354664224371 7.648923222924804 1.4472084063572173 0.7386478563304505 -0.5339484497034095
P 6.524673820595699 6.712455792610111 9.898648317400747 0.98736429196839 -0.8429387425307417 0.9891787194693094
Ni 8.548033565533851 5.554936012584955 5.157434491116974 -1.2791796156783324 0.2353482418611495 0.5579615247885552
