# total energy = -381166.7278613837 ev
CRYSTAL
PRIMVEC
9.22303468981329 0.00000000000000 0.00000000000000
0.00000000000000 9.22303468981329 0.00000000000000
0.00000000000000 0.00000000000000 13.49884354718364
PRIMCOORD
 96 1
Ni 4.830306260940947 1.3257928145041438 11.669993622337918 -0.9293242092055221 1.0014909611777592 -0.39471832842377186
Ni 2.8801601018486482 3.9480030774955432 5.06293056838665 1.5628478848011085 -0.3690756881550031 -0.32495375813512417
Ni 1.0720763486458744 2.7483906028586054 4.098411407626412 -0.6350910200827061 -0.7718171439935675 -0.9545274479440271
Ni 0.21146666548565865 8.74001529771369 11.200895312697547 0.4135658001475781 0.8212532871375082 1.7485864340549304
Ni 3.871903816897318 3.864091906374145 11.305902331445454 -0.5761646780601432 -1.0596570279955297 -0.5164240676664009
Ni 4.837380328675626 1.1403729217557834 4.184722412417384 0.5462498927785817 -1.5144530384374886 -1.5114664450053388
Ni 3.1074525728440023 4.717545436789462 8.59104207180644 1.0414896130578837 0.07482810085448403 0.4688416899017474
Ni 6.146267320288418 3.408095840050444 11.441417304890585 0.7576583359946822 0.040286358323872555 -1.081298003304073
Ni 6.145713938197049 7.103996482787546 4.8139169280015395 1.2615367057855889 0.4810107211641135 0.26441173488600916
Ni 0.28337590134872775 5.968022948658155 11.04552314520709 1.2706898330397665 -0.0956496655855256 1.6660517085848079
Ni 2.514457546766812 8.024169447352367 10.348348406608592 -1.1329620073372682 1.6444899232536323 -0.6734644776545821
Ni 7.975822298636346 6.762910207736818 2.1376633699669507 0.0700255372595181 -0.6467977669966732 -0.3773978348674532
Ni 5.635329635326537 4.487891868870929 9.220560315914046 -1.1124284061602907 -1.5708363023232237 0.26416002388651927
Ni 7.337422271962251 5.2186974817689515 3.7640846948217663 0.3960673862524985 -0.9280273447709695 0.8107323330015264
Ni 8.119434174381706 8.290235556883044 7.601630862272894 0.09818065953749543 2.088527409627506 -1.376202764572617
Ni 6.6065797669248045 4.329689151983115 6.243080594870107 0.09124536587024284 1.437504548805892 -0.6084358793890231
Ni 0.45658634055449565 4.469694821099714 5.664101814863832 -0.32889217395758197 0.5621251692479415 -0.0869919899105276
Ni 0.1246825190065651 0.5942659602803698 4.258642269879097 3.322948747253542 2.787819132757838 0.9635800450645986
Ni 0.023375781842952616 4.472277270859441 13.112952182440852 1.2360910120189745 -0.7718397697013869 -1.4414239384649563
Ni 8.746951019925525 4.555339922774071 9.346113489411033 2.323490500235095 -1.410453458225371 -1.8923584090689793
Ni 6.359015065315598 1.0437155164631642 7.818206166765383 -1.3771412172264863 -1.1017994656915346 0.9756071514324618
Ni 2.72516700109078 1.3347022661752002 0.3075107389603428 2.2657427519016657 -0.09349919490142608 -1.2659510328032004
Ni 0.6456899134244087 2.5042845393204614 8.615826211071928 -1.17921692453975 -1.1695022683551473 0.12500857836361698
Ni 5.485040282345312 5.832324436819384 11.60209456203031 -0.8205076672207352 -0.1550642600984168 0.597852704556538
P 5.449937411682744 2.1113371392735107 2.261691053498728 0.9635185956990439 1.6855195875014326 0.6423255901579324
Ni 6.458430158030211 9.345424528707277 5.729165714256655 0.5621747915389543 -4.4037631260529775 0.1865358483441368
P 3.0743326546755108 6.387707926753131 3.0267648524048343 0.4982448256542129 0.367483918187851 -0.7655174270277848
Ni 6.299461929249334 8.604768714582871 9.787917149698067 1.3215297985097691 -0.00738035162447116 -0.7950491179383146
P 0.9893549490209221 4.779671799580596 7.672526486605272 -0.93852181654439 -0.0441088173937563 1.20269906682209
P 7.977297984213333 9.07577988165241 13.054272467775466 0.4148431241981049 -0.18927947252754498 0.3389708983498227
P 8.306348198776766 8.23989623263809 4.4517698528567555 -4.074194751963978 -3.1024167444696182 0.08532642928264661
Ni 1.5426171409377492 4.9461199096298225 3.7031379581887363 -2.133372333856339 1.9174009538599042 -2.0270073387358383
Ni 3.430839844005749 1.9503675119288462 2.4001620096152614 -1.6384241766755268 -0.18827905628748864 1.0365458958993632
Ni 1.357197248189389 3.058791840942871 1.1416770588844454 -0.5716367082828027 -0.7757360194319995 -1.181766430434481
Ni 0.8106069996875123 7.46200702679934 3.439410810297584 -1.4611661540888898 -1.5136652524288705 -1.1068701953462228
Ni 4.8101815988847925 6.768545482033935 9.495923244579737 -0.17576164054676827 -0.09059513388075366 0.02983636663514216
Ni 0.6020797154105136 1.1932301345164704 13.176477679619666 -2.5413428993043263 0.1346108773400714 -0.7193686963858642
Ni 2.0389547617223203 1.1871613775811134 11.001841007521316 0.2891071807501602 0.35199893517837444 -0.9200538396471897
Ni 4.1316429245166635 0.31496110651715375 9.384544953353192 -0.1447255971765701 -0.1502732664676767 -0.11786785355377766
Ni 7.493051762125195 2.7757369012071376 13.218904562261514 0.16356432714962799 0.5515679625573855 0.5908094245565115
Ni 8.246546040769385 1.6647116763636742 6.612341396799452 0.9260673928311213 0.09849819077791423 -0.9914204643156345
Ni 7.145721492476842 1.0355715766851699 11.490471860380076 0.35466414071536334 -0.06279508094934991 -0.14688429539078574
Ni 8.635785780804158 8.966745163582816 1.9334801351072062 0.6729458861469507 0.10031287538914982 -0.5439616109650374
Ni 1.3456869006888939 7.704720412074203 6.91181333857916 -0.9586669240336974 0.8059603655341796 0.16659745754899696
Ni 8.962124423119878 7.096332140822073 13.350235044792404 1.0094474970206744 0.026472849479547957 0.2807456961593423
Ni 3.2514887081927464 2.3831491995195773 8.501544508472662 -0.1801335443622188 -0.36482154086433943 3.82961496420223
Ni 3.709808979300201 0.8899592246795072 6.9714513265661004 0.9775365072446907 -1.3751419274082703 -1.0016737666125266
Ni 2.8655323685667695 4.204062194207278 2.052337385298617 3.0401243141883 1.4547042005136301 1.2084143720393126
Ni 8.668167856184155 2.940469526773118 11.029446473149308 0.29763810103930677 -0.5344801538371633 0.4740422602660803
Ni 7.23624557959011 1.0633421346370855 3.771482491079897 -0.04380542722072456 2.986193111387483 -0.44528164319362024
Ni 5.75290488367294 7.789046619764129 7.435203965203837 0.45469033810202986 -0.19335312837628638 -0.11652419504168965
Ni 3.1468718238192555 4.96024959902947 13.353178115215007 -0.8850811802267466 -0.5766215630919037 -0.8927489811846496
Ni 4.8043895329951205 2.9456713184319954 13.494848542123144 0.438536868270619 0.36305365033063924 1.1108124678234224
Ni 3.0131101493002808 6.030130865379576 11.070307284472579 -0.2796239238500733 -0.9962826775039424 0.48699367822042583
Ni 2.447157061421369 8.859389037857044 3.619485032043311 1.0827285651030127 -1.0257937995891817 -0.42336376007460635
Ni 1.9158641385319293 3.0816188522118813 6.841578083542485 0.43055770671988425 -0.6278045137236219 -1.0682275432733601
P 1.9516679598435656 7.195968586373234 12.700656699872637 -0.8092953434446836 -0.6812968292148073 -0.792992492519602
Ni 6.159262576400756 7.599614706853337 0.3262814594996118 1.8973288657003773 1.9336930061517084 0.4159193879814192
P 1.192575299041683 1.0313474267210458 2.39948688346379 0.649534706311862 1.2552786406910188 -0.7322290972883003
Ni 4.269352057954078 5.965947765815518 5.210675286051059 1.9213774220091493 -0.831082357412788 1.0749517493710712
P 4.579070791458986 0.08306726343205868 13.456673478549988 0.31934335392688223 0.73626367236899 0.15114281355682357
P 8.171922465748146 3.3356212321506917 4.762756753654387 -1.4794009319293617 -0.9772248895415427 -0.4613075863082314
P 3.800748102981997 8.406704041046707 5.565181999120995 0.3445501922098131 -0.31214657906812693 0.10902197312737352
Ni 4.978806345160075 4.270689398008221 3.913220246142484 0.655872989825064 -1.0820706198040395 -0.7252099856579898
Ni 7.9915199039615405 6.0913441477199495 7.644692289712848 -0.6284215784823306 -1.6563571070048635 0.9536450453390737
Ni 1.4916045351482954 8.59288944568813 0.9607709193946925 1.357419570427843 -1.103095044574507 -0.020931093725712335
Ni 8.2860575220932 0.8156787465549178 9.364687759307866 0.5228600530997318 0.08336647734279835 -0.3028468989337559
Ni 7.337237811265127 7.458493050519142 11.685368421443146 -0.4135740276776942 0.34188421534187574 -0.7074246366501107
Ni 6.173134020824429 2.1380654942866797 5.554274838100093 -0.1739886078067455 4.904781914907901 1.016583079624191
Ni 8.769473671044283 7.44906710889614 9.580143387368818 -0.7013923144131018 0.04661307187284875 -1.5087109937473888
Ni 4.314378914121879 3.5621850833924085 6.914822814852727 1.4140853985510033 -0.4349692055240186 -1.3440326075979758
Ni 7.3279686612346815 3.0873279107878484 8.133687452448426 0.0735122102565379 0.3559342656770386 1.1173914065925208
Ni 1.1839978766254484 0.8390545283978704 6.814405178249248 -0.08349400405959814 -0.33196927022100897 -0.8684962792848719
Ni 7.204748915556304 5.506050355747658 13.413113084924316 1.2666195196251346 -0.3791940075359276 -0.77899617824051
Ni 1.4807121309831635 6.06884916570576 1.2511083674528545 1.0524862212787034 0.986949058807842 0.22545977910284398
Ni 1.584554280428736 3.778511365943781 10.1872395114376 1.169641622146489 0.9149537994164629 1.6445626854730966
Ni 6.84183171700103 0.9826959178547703 1.1673678224762956 -2.0203746639106686 -1.1403899243702231 -1.4788229479387047
Ni 6.358618474816783 4.269776317557461 1.8018932522073154 0.10996582509788157 -1.650919995149692 -0.04156008282997359
Ni 8.739498807761743 6.564458166736695 5.593192355979171 0.18755631918885118 0.4997844022271909 -0.6847544487461046
Ni 4.17191991773354 8.677999611340828 2.1722202369660337 0.7335789264479753 -0.07815330857297507 -1.3687671342301782
Ni 2.272020852537634 6.63233048024322 5.1091370507125555 -1.7619217177112558 1.0410440408800328 0.5616754833050327
Ni 3.585205778393399 6.945802988934589 7.492816574736364 -1.744386794151286 1.7726450176660313 -1.1173047604159856
Ni 4.679684878704901 8.294441260777456 11.387826860858834 0.13888610767665757 -1.4348277733046775 0.8653001409450776
Ni 8.55673514905196 2.2071368023245066 1.8546333324253292 0.507236744740178 0.9719132475206423 1.2252021330206124
Ni 5.519617440021078 6.4436548561906335 2.2855971598459104 -1.4061355475763073 -0.6283665568746791 1.0565868737106385
Ni 2.8044482087143825 1.3067103553867365 4.870828586884998 -1.8875481321645298 2.191953119614025 1.9111148637408766
Ni 6.546805278021993 8.493511245112941 2.8691524097478145 -1.3092787490565578 -1.3567318003321989 -0.21955498358263476
Ni 9.061170594440243 4.69296604889778 1.8446982792782671 -1.8724452150848203 -0.7655508513688816 1.401286189903806
P 5.196534529009584 5.348410243986069 0.25054281956426255 -0.9920647827678527 -0.6427346526708931 0.5993830251581355
Ni 4.01019400153067 7.240331384031392 13.533805719052102 -2.627579241995752 -0.9764430170701958 0.1307580792528845
P 1.6523897017958367 2.9285256966343827 12.243789056755027 0.12795943346182478 0.9610781045783513 0.2878779363287494
Ni 7.26222686877993 5.68903536729399 10.11599341178069 -1.831721512113213 2.121514148966172 1.2043692554356613
P 5.029772835775248 5.513954496619392 7.456855961832172 1.4243052765067987 -0.06927400380547424 -0.5800467867233688
P 5.404098928447599 2.163705531186821 9.415078732548015 -0.18916505843686776 0.7432781560136102 0.6367105579640002
P 1.7781550050945154 0.39002369799754594 8.749235565659397 0.8734394822227602 -0.14577049350131668 1.507869728793016
Ni 1.6506649942777334 6.413274179374422 8.734237988679787 -1.2529350801595065 0.9135900862997169 1.8512750087651082
