# total energy = -340867.8773237091 ev
CRYSTAL
PRIMVEC
9.25344859749112 0.00000000000000 0.00000000000000
0.00000000000000 9.25344859749112 0.00000000000000
0.00000000000000 0.00000000000000 13.54335737534439
PRIMCOORD
 96 1
Ni 5.485342653019983 5.028185269145115 11.522810834816212 -1.6555297260075614 -0.2868988602449317 -0.2749378312283136
Ni 2.4364700794224814 5.2790647726593125 10.377191309116382 -1.3045420057025212 -0.39293475416078777 -2.0821536448906786
Ni 7.984393806589208 3.6788843808142553 11.047059570948669 0.18303631983131058 -1.417161723483482 -0.49171448073486285
Ni 8.580084572254835 8.119429384738467 10.729779169628438 -0.14841795842649277 -0.5437284119083088 0.750193652186521
Ni 0.7369381839856244 0.9164338075219682 10.704764321522436 -1.527808376698472 1.0808622013182352 2.2692615636882016
Ni 0.7062935376375877 7.301304217129998 12.745098885096176 1.1626811316682557 0.07430899512622043 -1.2479787645954958
Ni 7.552933249995947 3.959328653203042 5.676265360463441 0.9545644718295495 0.3057082796419509 -1.2978201135976553
Ni 0.3024258399823978 7.874564622935845 4.835656162992227 0.826445372861409 0.4236761491087026 -1.4243528419152822
Ni 6.757590073301169 0.42112260360838144 7.731158375013831 -0.9542937346666662 -0.06916113237669379 0.19654463873039055
Ni 7.1959351957919875 9.138076787562065 5.2169963395753705 0.4775682711414679 -0.6202022758963318 1.6594804831251935
Ni 5.336556449973184 2.5424405749316508 10.672423518011735 0.4579263285408242 0.007490394839774197 0.42293232896414257
Ni 3.1520670344705586 8.031901012661866 12.654006084546808 1.049354617628257 -1.1655013747258702 -1.3378107950579798
Ni 1.9600655220705727 1.2556004659133038 8.835524175331287 0.6853578866580584 2.1500369389962133 0.2570069577815058
Ni 2.243498658417573 2.706078563281646 6.942271329537769 -1.0851500300603119 0.2554056747326569 0.39443010775939163
Ni 8.53737990610265 7.90720153680773 6.855444368879227 0.03483047741562388 0.43951568724412043 -0.612604666054732
Ni 9.572600235703836 2.2801793294093953 12.676596529070608 -0.8208398537491733 0.5733788877848899 -0.4510180314567652
Ni 2.6199567154206758 6.732217116727108 1.312255631456828 0.14770087775481014 0.038958126430752256 -0.9952570644529053
Ni 4.381979926551042 4.383849123206024 7.828859988686902 -0.033649055513013025 0.46309604566722185 -0.46513981557012796
Ni 6.529020634812523 1.7821124484470283 4.219012813238107 -0.957102664870371 -0.494378143609955 -0.08037088504958416
Ni 8.406860010961468 1.2717569874954737 3.314439151026487 1.9171075909892015 -1.4547743916299334 -0.310333180008472
Ni 4.6962640611540305 8.998581047097455 1.2000621916383754 -2.1787445913435506 -0.8086957621874717 -1.8700252927894179
Ni 0.35134789837459357 6.915537190647136 8.735059481850405 1.3394473022201383 0.7483835955609757 -1.5325502622588316
Ni 2.0647775485447046 6.65683852290789 3.5831528263879444 -0.029189219969446505 0.25551083285195353 -0.0014953535986038764
Ni 4.840525327743967 7.926291401655392 5.041718437996159 -0.6291684839506841 0.7165931905232562 -1.2381828615509967
P 1.9280763496137794 8.626768221385447 8.247836717521569 0.18749204160981903 -3.6702795875322853 -0.6460827432075196
P 4.1142776531420076 7.570995982028247 2.722079626924194 0.09928417701431934 -0.32158535588352355 0.5544175161910387
P 4.1949492196674125 4.148885551605534 13.506046067304654 -1.1171219549812181 -0.9311422362508673 -1.7354804928005918
P 3.981472156150426 6.647927451725972 10.830609374336408 0.8989329985081744 0.9973332302556437 -0.20419932706217092
P 5.366139725745348 0.5611226570318859 9.733055963015971 0.5934720589903393 -0.2138579331978575 0.4994221337917657
P 5.057574222492749 5.6317229593821505 5.814474871546653 0.8390409501382325 0.041722576549766854 2.185677313907642
P 6.706159404942808 3.7268450058774776 9.416873020721882 -1.6567198896609208 1.476683790108515 -1.7872519689459283
P 8.58491487252167 3.4038996432098214 3.57441757073298 -0.734275952515 1.3810413236118408 -0.9685088498247837
Ni 1.3734523896650308 0.39983874605331327 6.402636105934267 -1.950153979921209 0.02166154413383366 -0.24760494774131547
Ni 8.098414802543102 2.182934836106404 8.944995250516591 0.6885406552614142 0.7965336729036411 0.23132215142089194
Ni 4.46198524476378 1.84729374170293 8.225178722821624 -0.24829451760917237 -0.5002271461915643 -0.16921329790528922
Ni 0.26803632291024654 2.3154719830831616 5.150661141255725 1.0431148073661325 0.1112554904435826 0.7779857346981247
Ni 2.8957187427232207 3.1686122009017836 11.412797507531987 -0.5511732982221282 1.9668047011040126 0.049558270544101744
Ni 3.2389846789272148 0.26233619845743056 3.2488479299893194 1.6452764237106696 -2.9126258795232935 -0.9450128235853724
Ni 4.781136693428751 1.8694464980991012 2.280945514968962 -1.0568326711728573 1.7981123086992001 0.23414445136103545
Ni 8.997267057369696 0.09765997315352949 8.728111992501095 0.6764608412787447 -0.41722859371114596 -0.9899364235709402
Ni 6.245587498465522 5.7413393137134126 2.370873306316042 0.184168890773857 1.1049256700253423 1.8387709627608266
Ni 8.90724950756938 4.638355978644741 8.845912096939616 0.6839833749080348 -1.436990585283951 1.413807205188952
Ni 6.528049022689883 2.1521023447479903 13.028344176432801 1.2078533573295198 0.1833937031707293 0.25704449588766054
Ni 1.4597315461553813 4.229390556052771 2.9436349512322653 -1.1776770908564556 1.020889163198713 -1.3950368665599846
Ni 3.0176329304924576 5.647352034383459 12.590609781561927 -0.42826196870717215 -0.15933691933184171 0.4394115575660884
Ni 8.289119128595186 5.2104041826594845 1.529031549466394 0.6276908709638932 0.6493251614042173 0.12313887214472984
Ni 1.9092640882297294 5.257050817994947 7.803303813826857 0.17833017260489287 -0.8831122294258339 -0.2776711709990767
Ni 3.6127037150893533 6.746254598537046 8.622147974406078 -0.3696950669065569 1.0877771832705136 -0.1666769046366807
Ni 1.7683155563055533 4.533310828014276 5.392748017732478 1.773155381643546 -0.8665324706902817 -0.5258217068312171
Ni 2.230534576666932 3.350359188528014 0.31412775131848714 -0.6826484581466953 1.0516745240106857 0.27500313724861025
Ni 4.399080299909491 5.80897277089788 3.877951048535186 -0.9081666012913004 0.3229547254272244 0.7955448266278106
Ni 8.48454271352866 0.9133690652837009 1.1367898848672395 -0.9428271287879633 -0.13564137548711477 -1.479083657799259
Ni 8.38304163378363 7.450932484016417 0.8021537150020382 -1.716611938030863 0.907124276069715 0.6964982195455941
Ni 7.54489200300001 5.9034227226671865 11.972978163477354 1.538141383193364 0.7378734400582712 -0.2872300183321053
Ni 4.031052134751381 3.317250348767989 5.729734563589588 1.3573825465423204 1.0511443625388284 0.10424409212275597
Ni 3.5572385430598423 -0.24594556462094863 6.796950543061717 1.1024964917585593 0.09173978900815814 0.32315604280475313
P 7.4492483563371765 7.631717112968796 8.729696182933438 -0.9579596135540275 0.008724267246875297 0.1626883523025779
P 6.3753671177037425 0.5877670374692856 1.8502529946250252 3.272049132190197 2.083593462660999 0.552522613161171
P 0.8751060545492952 3.0076114454560945 10.42001534475792 -0.7852125914638671 0.5861410725465648 -0.02982222556775509
P 6.582052149811043 7.493563122578306 12.885069327483562 -0.015633335661882755 1.7265248262692008 -0.45135587441215813
P 0.32618777112263486 5.736999446232292 6.279242291703982 -1.032938381053763 1.3071362487922584 2.1029163313593267
P 3.1648738075918206 3.455506127095137 3.628373505265325 2.2813220943971615 -0.933802813802166 0.802815906367927
P 8.480175085701177 1.5802299562602014 6.852397208193654 -0.5201362264106656 -0.5628152533364308 0.5531710453784474
P 0.2854874019777231 6.207222699794459 10.610258849060408 0.2540756430673237 -0.15249418537839543 0.9998899352392262
Ni 7.5661749352102 0.9513100560003177 11.06295977199944 -0.8890360511094366 0.4866828318482263 -0.13895578457232843
Ni 5.365834361935375 0.044369361588972665 11.915798327387604 -0.16220318513604326 0.836068754883786 1.9377296381149274
Ni 7.320042450923753 6.529020634812523 5.087900550202512 -1.9397384410148397 0.3294894412219487 0.2056964804329877
Ni 4.125835210677019 4.675915727271332 2.016132168271241 -0.6716258817839466 -1.464986813386561 -0.7877209597080176
Ni -0.026085472130662563 3.18915485720901 1.3583313290021306 0.4239821103848956 -0.8890023696580238 -0.28428096300611044
Ni 1.955133433867081 8.419481715106988 10.434100944501548 0.9795694785143193 -2.7022733883755334 -0.384879230846163
Ni 5.592340281344513 3.6725550218439205 4.164988403184738 -0.7610236529224893 2.8860429868284423 -1.1212750579176431
Ni 9.168104228876008 5.484759685746399 4.233721170085106 -0.17589328102862611 -0.7520170785485049 -1.2303301982757975
Ni 7.5833123223637955 5.823787542405929 7.414595115974595 -0.619808640002339 -0.641954579971759 -0.41537739943502017
Ni 3.3964413634874675 1.1005774383840417 11.05388491477399 -0.09653386796269181 -2.416856511992767 -0.7001018777364524
Ni 2.7036911734945903 6.856324371858874 5.840992479735671 0.11749041560970087 -0.19815697752283293 0.9210216028770977
Ni 6.110496399623542 7.752567154127523 10.5175818580787 -0.08101134684706048 -0.9087859800428542 -0.8254513843792558
Ni 5.781212424536763 5.699772821762035 9.169381204808618 0.5455256130180477 0.46089878090558684 0.18748741362412874
Ni 1.0076450522158105 8.593955491986607 1.8626183782391452 0.23688678999286297 0.3174577068683952 0.6265472442777533
Ni 4.973534400608863 6.733595880596378 0.37545590849946586 -1.6463398319781775 0.5619775879264838 0.8940522733771054
Ni 6.031212850416193 4.800254318622773 0.32977625856224857 2.5157385684726608 -1.2041789938017262 0.26790740674409347
Ni 6.903729789994875 3.1046708697833454 2.1070482279487766 0.09831332846061779 -0.14701747853454034 -0.031149171909294747
Ni 4.26755177885052 2.054404432454434 13.119653507683786 -0.4971971011159889 -0.8969810169881263 0.6907908847481716
Ni 2.079157407959763 1.8565101766948209 2.1674112504212673 -0.605420489601467 0.3075414761959478 -0.45975206889565334
Ni 2.828547957978105 1.6351676817088512 4.905214337524398 -0.011542710532276896 0.24992562545469213 0.7394251008161071
Ni 5.6979776526973485 7.593814986737085 7.079533287465189 0.4227245838287107 -1.4618485248678954 1.190688415514459
Ni 6.413232230140305 8.138241646122516 3.2654116033181184 -0.41316265117188844 0.05431249739963549 -1.3628754513360917
Ni 6.378763133408586 2.8893246096113767 7.303066073779052 -0.08356059563147544 0.12383358421890933 0.24900028542694536
Ni 0.5002090543565665 4.840405032909735 12.119450078982512 1.4269905366484457 -2.0351299678429724 0.15278292026340784
P 2.8698646068122344 3.222522793535072 8.926440235008823 0.15546740907410647 1.7317932737569919 1.0629341560849048
P 8.307376183052012 7.146873410323107 3.1048142982395444 0.32560887522061993 -0.4906107061477228 -1.0612601108165916
P 2.670850683749389 0.5191564160929073 -0.030132930630113366 -0.2732961818598325 2.3723021224211593 1.3007321450381275
P 5.093625658967053 0.9502088955946602 5.537120325707859 -0.7497033428136636 -0.40298596774920276 0.9067370679336255
P 0.2900336213667953 0.16990349852369935 12.99651786467466 0.10117625183070962 -0.8140683393532947 -0.7238465296515597
P 1.2449682532569961 0.5141660311620572 3.903100996993479 -1.6143712494913809 -0.5208941876226125 0.4766115636551534
P 7.820034049233824 3.9696832623957388 13.109238751073972 0.8776764031222434 -1.1498742097115744 1.7143555378965185
P 0.9724819468250627 5.546433921912014 0.49632168052113146 0.8728103332791936 -0.314609953006955 2.099491364838178
