# total energy = -340889.55344310816 ev
CRYSTAL
PRIMVEC
9.08849569785116 0.00000000000000 0.00000000000000

0.00000000000000 9.08849569785116 0.00000000000000

0.00000000000000 0.00000000000000 13.30193213303160

PRIMCOORD
 96 1
Ni 6.545634637349509 1.955017239677838 11.010102804684687 0.4556974392103055 1.5546270395532127 1.2666953671683927
Ni 4.921329582272953 0.4092640536655032 5.774382158540007 -1.227580660555118 -1.2793914745788222 1.4915956742233407
Ni 2.894213305537789 1.4632205557945641 4.784691318951732 0.4754399119445555 0.4076754028050721 -0.24172483481145463
Ni 3.592727826036325 4.360578480873742 4.797235260833305 -0.41538125608976206 0.5529517302787896 -1.0249857018655895
Ni 3.9134881077537327 2.4497495076994604 2.4743984171162223 -0.06326893526197491 1.5576169754194724 0.2995862259046131
Ni 5.323213777361556 4.315163267439296 2.543409183306023 0.03473046150264986 0.2576484480202466 -0.16554870456950843
Ni 5.221204500677902 4.652255576081198 11.459774310607454 0.08401053868470047 -0.21479818562393976 -0.3520261888718841
Ni 5.811602275325694 7.927903961192781 12.289682123510058 0.23268277921384442 -0.04263866060613302 0.4128361210704051
Ni 2.225572670682443 6.83014999787889 13.505185729356533 -0.8705680742122361 -1.502172935518555 -0.31079597857750346
Ni 3.0184076004310643 1.6315394977209066 0.5311689564706987 -0.7670485189603307 0.6165726495635445 -2.0850188822536158
Ni 8.081254150562282 8.814123185125698 6.850774521362338 -0.8625740002631661 -0.16229728751174632 -0.5747248602898231
Ni 8.819549017108962 2.4596832335917655 1.1314395640890416 0.2984174024074925 0.5922515563196769 1.1963481849033977
Ni 6.906084380157216 0.9178926317414114 4.73551437711214 1.848890310583016 -0.013601135723202382 -0.225749799539437
Ni 1.0181660057302524 7.515877004808832 2.5343243229199763 -0.2622890321160515 0.32939636728751015 -1.9108436123573609
Ni 7.9133987219209425 3.673724500466539 3.515487426913787 -0.06345842556496169 1.2002773447544748 -0.29166568550595573
Ni 7.85977659679322 4.0748361734134715 12.598100227952305 -0.6612319401441322 -0.36569725860107344 -0.5952656605556523
Ni 8.177128692591493 7.767037585809614 9.090567052548991 0.5301059360288677 -0.9905912835461197 -0.5403803213716822
Ni 7.214793316464563 0.9635623230578191 0.25435064302109156 -1.2979766937801775 -0.9816669844732965 -0.7123125608700314
Ni 1.5885145586777474 6.85285306034822 9.441604749122416 1.0321009727541322 0.0630925575851107 -0.24885913186339073
Ni 0.3453528424603071 5.23898159843211 0.9957828583125312 0.053404126652753195 -0.36955314201205386 1.8683494477488918
Ni 6.42091320970074 2.1793758466105424 6.8816881309232585 0.676609451041467 0.5873777731671432 -0.4026478676834936
Ni 3.4290076629768684 4.464041916882892 0.29378380853027153 0.4829326207771747 -0.13770057200898864 -1.116729861749122
Ni 6.44219846682771 5.4721924002587805 4.494630158294734 -1.0754027208655608 0.6950113505874224 0.701162972011115
Ni 5.042924567371901 3.337268386529541 9.007323701960882 0.22910071828954093 -0.57910164920128 0.31417903611712344
P 0.4330541002306432 5.852436886884823 12.316963970155548 -0.45302606302572945 0.6196307196635781 -1.6987800520557648
P 4.014415853439048 6.2743884806652925 12.315740658622973 1.2652496358608014 0.664144742915553 1.4089869009821734
P 2.5079613231982845 8.592472949936733 1.2521956810270938 0.9515202856865871 1.497789975959511 1.4157152208449426
P 6.457312635317101 7.619758511624064 5.714137246534221 -0.5506637055755613 1.6884426746854984 -0.6559717201864573
P 5.121494613427691 1.2045165232927644 12.447203023595002 -0.6552073312166071 0.02928255101420118 1.4236079933294579
P 3.6925376867401636 6.464901529297041 8.024164764292827 1.2161749898213379 -0.4205815693437789 -0.28169674721870197
P 4.905433803146107 1.0701340246252213 3.675137761561007 0.03406274601166392 -1.46794821000773 -0.5410099845358811
P 0.3389654476230591 5.4910782944986805 3.3654154579737035 -0.03606409271240885 0.39615428953935 0.03266946520856309
Ni 0.5413089912173089 0.19721581427271406 4.833283870512389 -0.40584554868518496 -0.06775396761652203 -0.6636793732433602
Ni 1.4790981579298406 6.906311592551825 4.6138684964367975 1.1715020723939955 -1.4359562304821658 0.783492780559283
Ni 5.881774551276736 5.861625356122811 9.263838315828231 0.4502189325942375 -0.4731048360534756 -0.24119441622928142
Ni 9.009762145379826 2.187882678664703 9.898287120693235 0.22378136295915654 0.6208913315435565 0.6496982284729198
Ni 2.40426158629874 5.332293184650132 6.530836748513414 1.0095400567344808 0.24948313860063484 0.7415588593296584
Ni 0.9440402341130144 0.11497401592004282 8.902610597781381 -1.7587366351150548 0.19809604237791045 -0.40081595668107745
Ni 1.9735395940863634 1.119339140801745 11.48444957666199 -1.1009692564807554 2.2559375928857857 0.42508434231013886
Ni 4.449682093543604 6.94384708014123 1.386101033665958 -1.4947265065428386 -0.24911727062078387 0.6131826500453892
Ni 5.503265967345506 7.976754626033714 7.883017698212985 0.005762613515390076 0.3943660872906756 0.07013300937165987
Ni 5.248288218115294 2.835537976753962 4.672969166823332 1.4271566299126646 0.7430369865370817 0.6166459260036412
Ni 0.9940087839354241 7.502644154946804 6.827895142074791 -0.5128720886490845 -0.22936117103977918 1.13161834882518
Ni 5.204308987014777 4.8273636243584575 6.940975115473373 -0.2552537225358249 -0.14710438182139182 -0.2730385573230717
Ni 1.307661861949463 7.956096475115865 11.549548654266204 -1.2323176610194713 -0.9080035933508749 0.4653349623000696
Ni 4.658308514273582 0.3851904460318912 10.415626113128875 0.6416473331439853 0.858348649327909 -1.1087512144190195
Ni 8.192724551357454 7.164888386112644 4.40985630501654 0.2382319911668478 0.5051420669946783 0.6719791513583071
Ni 7.122963155059392 6.281295737461406 7.100025609398824 1.7439419933043836 -1.2275199825205116 0.5792988528137507
Ni 2.621385750587094 5.292494661610419 2.323901106573431 -0.14384807966762322 0.8909047288870593 1.2904508177167777
Ni 2.404588772146977 5.328012503135698 11.28151528084176 -0.6493922671967268 -0.057958578792655015 0.19872210599768356
Ni 1.4519962635008798 3.471205548903651 3.4906667449267004 -1.0092307530241782 0.8113100598818671 1.0733365823651515
Ni 1.880228007868342 1.3241756587896445 2.705946024214355 -2.051502752774041 -1.8447770597455908 -1.3469338404051705
Ni 0.98122127036683 3.6976726868583265 7.924014084997075 -0.46863882986232197 -1.8914603227347426 0.6055852973141055
Ni 3.8617563897491576 2.807581763721272 6.776190689557568 -0.59341755160332 -0.030616439334276303 0.06508927630016531
Ni 4.240828460419017 6.870048494372229 5.580639058506496 -0.09515164290318451 0.2590031622759281 0.2000343970512039
Ni 0.6388630872674694 0.24094056749126874 0.38216488578527774 0.3859336402526063 0.2968500579203726 -0.17048702241139027
P 0.17514167571166114 5.955973030860249 8.222669327267763 -1.40191019664105 -1.0145028000563947 -0.813376712602909
P 8.743278360486615 1.5146887074213933 7.770296720397885 -0.7489975749958907 1.3489737536533348 0.03618596300225381
P 2.03490511762236 3.3540730152348224 10.340815977779075 -1.5398858766882961 -1.048550633669723 -0.10706664917321561
P 4.4635602266063215 5.975767774678585 3.5137587950156015 -0.7620443808775198 1.3427090036905458 0.0919130813612288
P 7.089244835699418 4.023095366913111 10.472199272837779 -0.7284526609650035 0.6994339051351502 -0.32709908661290116
P 6.380478491956123 7.987651732479161 10.078023031023891 -1.2539339537376661 -0.6870782117832749 0.3560669346001609
P 2.487784862557006 8.497152806150368 5.642094558150758 1.1844545187896054 1.2682917651212353 -0.30424609327412766
P 7.104813428978026 4.045971110802345 1.3658291438189436 0.5379750543642993 -0.23471137960809899 -0.06435316946508916
Ni 5.387478531052763 3.1134369123523298 0.36490219689246495 0.19425250026210414 -1.180003167886471 -0.7402558242475187
Ni 1.6441997723485196 1.3533860842405767 6.803672483110315 -0.5601847576921191 -0.2007954435869445 0.06374510356744505
Ni 6.891024742642532 1.0143851914839588 8.999076800886154 -0.09740367216215483 -1.0846093270654935 -0.6727311990329834
Ni 2.87524561483583 1.7173076324379093 8.839360120219709 0.05697538894377929 1.2909753227616798 1.4349259894454383
Ni 6.5707915936806165 1.9040853093022863 2.394680494042868 -0.14061157500819654 0.3779069132933879 -0.03441293026223106
Ni 4.157477865580654 7.117373730152011 10.296466844900134 -0.6516147287693423 0.02719712924008219 -0.3839790876293968
Ni 8.338949360032018 7.418175675126966 0.1377388801607071 -0.3801712838475324 -0.06990752362441509 0.21191006544286728
Ni 7.406133418212689 4.045598482475186 8.384380932758877 0.8525459266032027 -0.0054687364240550975 -0.9261026169444309
Ni 3.59740840136527 8.636979313792743 12.483011696985379 -0.8351529279377359 -0.15470096322172713 0.3447088292748644
Ni 0.11431509997567675 4.787228826974724 10.14920140345826 0.19385937858874355 0.056870230824482705 0.6711620547736505
Ni 8.764245520261133 2.553049350784493 5.544577724933314 0.2742821999221857 -0.7145041692047115 0.6455129867469787
Ni 3.8338637961869573 2.7182509386567997 11.189173437123927 0.8569720806953564 -0.11640669562721889 0.8869226043108597
Ni 1.0561104756299542 3.577577303563797 12.71930804313084 1.483760237339322 -0.8360147617173989 -1.9859630192000184
Ni 3.0692577343445575 8.5529198162832 7.994793472466512 1.1426928614717868 -0.5128245232406007 -1.939332720935989
Ni 5.79775140775033 8.12352474445534 3.668300486182433 0.43444290070690345 -1.4494519509757553 -0.8088657121064328
Ni 3.444712583692242 8.382619582275867 3.4649135832721387 -1.0916158402903136 -0.46522080531970844 -0.07729533144805398
Ni 2.7953486483955237 4.7160022855126975 8.887859060273787 1.6123701599009521 -0.04746256435733761 0.04349432373820896
Ni 7.371388098829081 6.245341648138479 11.441510978328782 0.6512941122051299 -0.17967588799950993 -0.9113771378087981
Ni 8.037747521242553 8.760282936099152 2.4916910980451235 -0.3244361950687573 0.26721038067706887 -0.4372047797227567
Ni 4.721237259084488 0.3155998338110486 1.4765542879597984 0.9814659242060839 -0.2992015888716847 -0.21447602639783064
Ni 6.08542956481267 5.707120927788695 0.20984700571381723 0.18251978520620826 -0.2644456734477381 -0.07831683073403287
Ni 7.8459984371841305 8.955503825547199 11.34978079037724 1.3118691354915537 -0.09965364453859613 -0.10333340738302849
Ni 0.18187534223829327 5.020966761556888 6.241452680792351 -1.643521388692776 0.7147443102399754 -1.5006112474583897
Ni 7.458119614099226 6.04184113903088 2.3192450701831033 0.06311466907229776 0.17516720149587897 -0.053616242663559285
P 8.573632498175757 1.6232326125740018 3.396675339224009 1.0538831016262302 -0.7203634561989658 0.011217980203006486
P 1.87528386616165 3.3675603429788126 1.4135028484558025 0.6471170980093048 -0.7597733254551561 -0.5132505550344257
P 4.821428836611271 1.149103964495523 8.06937821312086 0.34351172364296967 0.3639998162939925 -0.5366164834538758
P 8.844287902633988 1.707319375570898 12.153004779656962 0.018997624148425346 -0.05466216742957038 0.553036319572796
P 6.366845748279585 7.823913392428137 1.194209260223722 1.807025809138746 0.40273399963939677 0.4975783957148076
P 1.7610051201691108 3.2562989775866806 5.656008136347035 1.2146919775179081 0.6058966579069373 1.2687841313766213
P 7.286301601295905 4.09862076688114 5.890068712529542 -1.5418895373818864 -0.1852001602518488 0.8681692349627563
P 2.6123154317943027 8.843742592886926 10.033980180452883 0.4365494055269449 -0.8597601849634547 1.7172089481849133
