# total energy = -381163.3112917279 ev
CRYSTAL
PRIMVEC
9.35243257579492 0.00000000000000 0.00000000000000
0.00000000000000 9.35243257579492 0.00000000000000
0.00000000000000 0.00000000000000 13.68823043304950
PRIMCOORD
 96 1
Ni 2.5730973280970675 2.1345337135842417 11.9483880504449 -0.16835943454542618 -1.0722734312079598 -0.47695403459623664
Ni 4.4179020370539055 6.964616153231483 11.90863740683575 0.07260692483344915 0.44736577941615857 -2.321684557374608
Ni 1.2993708489268117 3.9638414419843278 13.042597394616555 0.18787719286337967 0.7993580297263136 0.3384425366501784
Ni 0.9678084139853768 1.1214688790109826 -0.18246128073140938 -0.24844132759968182 -0.34077401299683246 -0.14155594119933687
Ni 2.1640032282096637 5.2061811578785075 1.2851701155065511 -1.0971424265354977 -0.38918300042783943 0.5510066907372768
Ni 3.4100465073509607 6.673128891304942 13.840991171127413 -0.2489465493708745 0.7803737753143271 0.264769375335744
Ni 2.4819485215152324 6.814883709831607 3.1852514411698616 0.47638710634917314 -0.1122232536734906 0.27794756458891484
Ni 8.253343934039052 4.515363735534236 3.7218163895149345 -0.3319476729544541 -0.057349484453746394 -0.14819735777525445
Ni 7.399476204497192 7.765146960555388 7.139274699576352 1.2203234647720727 -1.039240412012391 0.34582314538496567
Ni 8.240147651863087 6.355931792594751 10.232801224325938 1.2959424369589683 -0.5360621536123026 -1.20047557680821
Ni 2.6103293616495287 8.63197716146216 11.97375184722819 -0.5442182070605337 -0.6058735179784855 -0.9518234187493027
Ni 0.8015932436493404 6.571009681468388 12.28558345544628 -0.08687526182700522 0.1269317635282588 0.8783346055315325
Ni 2.6543419087225963 2.2106812185287628 7.716151437477106 0.7811726170665386 0.6049232382500743 0.07685618702810634
Ni 2.4477934382362605 7.472836684573932 6.218303267261591 -1.1141669861179522 1.0613279879400495 -1.0242513948027263
Ni 0.9914046010370873 7.2672982767913545 10.037565456121705 1.0699391266478282 1.821220612581889 0.19580210413741117
Ni 0.7521965012192892 3.164956662770253 2.049018812305597 -1.802048667639129 -0.7160180347460765 0.7458747130961928
Ni 5.988530836534745 6.700774681604133 9.581035818887383 -0.984129072860544 0.37063120556758106 -0.43329284626286024
Ni 1.5336960437665288 5.200766099494465 9.453625761240588 0.004250290635921712 -1.2748655616840108 -1.2829848483570356
Ni 8.2863860778574 8.394836884457336 2.219998111727698 -1.9460867518303708 -0.3782059325910454 -1.4126229550728637
Ni 8.274545898385556 2.446914309586692 7.516905346241653 -0.15090010141839819 -0.47456573686971815 -0.2546749672142195
Ni 4.516186749589152 8.272123618383022 4.42054596970532 -0.3459604422937783 -0.10455236739179415 0.36015498862660555
Ni 5.883605896965525 8.927691722852583 12.305116945845093 -1.5344235680221445 1.0586195878699511 0.16392839535726605
Ni 0.296842464742953 7.235060442163038 3.48036931737047 0.007263366430632651 -1.65333091858403 0.7680088259910709
Ni 6.249360824915701 5.991645196538002 4.288057541242402 -0.27683479114071036 -1.2971590829748885 -0.6504590178983443
P 4.6341676848477045 8.828209898964731 2.357907210034124 0.3998057702490082 0.3960815273198856 -0.5983041902716598
Ni 2.5949820200118525 5.126928645363171 11.42786532946796 1.2675302043648622 0.07378680407416326 0.9613591261538798
P -0.21903770876967124 3.6672571043767803 5.645053402661927 1.7471610144623135 -0.7344939820630769 -0.3646233088106043
Ni 1.2300132099353391 1.958567697183951 4.5299282785765 -1.261603554467782 0.5594357953412367 -0.9452982160362752
P 0.046468495832393486 8.12164298038777 6.3251529374274185 0.7457093911629222 1.210377152192638 -0.8782983529769584
P 0.0017507753531828 6.666572836162949 0.7048152079805354 1.3105753563807945 -0.6456415419050429 0.6453654054255208
P 7.1045659522968 3.2708449028810205 11.095734266634038 0.35285974051677294 -0.6581216766499246 0.6291905954378713
Ni 7.806755932490805 5.210258818423314 8.14256717749074 -0.03852360999649495 0.9408201256602635 -0.5445930739014492
Ni 4.186653792487677 3.5117635625925 12.745165726629745 0.1548832544358623 2.05148424083128 1.2033382430679858
Ni 7.64710055826974 1.0354826151372503 12.40137218054038 -0.4797354539961157 1.772806740054876 -0.1074991087249439
Ni 8.841181722762085 8.446499721268136 13.430932835455218 -0.7973140027130914 0.5669799262370816 0.051014286264337946
Ni 8.51996307810174 4.671034973534919 1.352536621631076 0.06518672110997806 0.9364479647344969 -0.8152788147216282
Ni 4.054662913430686 4.708902972493451 9.349608942861508 -0.9530007268868554 -1.1251448252856946 0.8446187013363261
Ni 2.7541510677459238 3.3967941105803408 3.093389043992685 1.238551557744325 0.6394606099053116 1.071134689617826
Ni 2.051091311334792 9.003624121850931 4.117584208415425 0.7653112245542496 -0.5241399482534199 0.7517373425245569
Ni 4.551136789625712 6.607138127992668 2.248826049487584 0.6994200211780792 -0.33869090521555867 0.472183866901103
Ni -0.004948372005176387 0.044041539613638485 11.351224951333734 2.1321834557545603 -0.5868165013470347 -1.4305885384123491
Ni 0.9563610366761046 1.495902864267535 9.261552050445069 -0.4975436858221302 0.22295732439596438 0.2343563102615254
Ni 0.7448922514819186 4.009238149058843 7.672048171809349 -0.29710922511903026 -0.31807322896520707 -1.6574565107166292
Ni 6.7517922005764195 2.898552624653736 2.815176624674626 0.3482600369612325 0.01692042990442247 -1.6625706920147432
Ni 5.1745231740616076 5.57035552474595 7.616309544940232 0.8144437204148425 0.74451742773735 -2.067489100899968
Ni 1.5260176967314698 8.557728200303409 8.189859622621292 -0.4855386909414541 0.7487060118974009 -0.021631976447478874
Ni 8.756598323754686 3.5550653247999593 9.511198400111624 -0.58555563235674 0.0599936069448128 0.945026193321811
Ni 2.7921500007586464 4.655369649194207 6.72705314628027 -0.06649772661191773 0.21432253153910188 0.8899994434639705
Ni 3.120195921101808 0.16201031671001606 0.3635196965964864 1.6680327435705788 0.061513386023448906 0.3905320582565661
Ni 8.742232987523442 2.886805969506313 0.02158354359014565 -1.0646064015810053 -1.3206224562041515 0.480110063726715
Ni 4.512389662017612 4.2523265730969175 1.5204745100229684 0.27630257278632414 -0.2068917862926695 0.14566353560980722
Ni 1.2411519569740181 8.636849778764553 1.5488507252958954 -0.8585605082283988 -3.3510066818320223 -0.6915907549416477
Ni 6.164309804286191 3.6880195043984996 8.379893567901163 0.7765019510637466 -0.6395986781450727 2.2783110754849796
Ni 5.6058573582966 5.5903323204425215 -0.3651947172468873 -0.1556556138255126 -0.802347965592573 1.7755588488787164
Ni 3.3743576251514655 0.7594249962538778 5.975309302791184 -1.041596056728761 -2.61016670294626 1.07574082093127
Ni 3.7409168622916718 9.090199588968524 8.107073761129286 0.5123313856542661 0.6133446295445502 -0.06065026669220523
P 3.8202161369692194 7.810693306548978 9.804372840850741 -0.1063174297120169 -0.6512630018568785 1.0537712586387142
Ni 8.054090360857645 1.6333181541410116 5.300575258517792 0.39451572549466246 0.5500350708526268 -0.08098332182260247
P 4.8238069574785145 4.042327055039403 3.8189750691841375 -0.2387071310310534 0.5880837980952323 -0.40360714627296945
Ni 9.53265381537731 2.534284733461872 11.561791226797247 -0.4092643445587468 -0.642020657323004 -0.7891864885099505
P 5.4005995234872906 1.5794294384089642 8.45545280484507 -1.1996268556546694 0.10805061035303971 -0.6713718567916115
P 0.23006235613255524 4.7618190352515075 11.101866656586399 1.413514870759514 0.2097678222888839 0.6187295480055474
P 4.830353660188065 1.5759409811080176 13.38959414881738 -2.4025946027571137 -2.945732175158959 -2.0713570684958067
Ni 5.964345446239174 7.825862951970252 0.7252418556775789 0.5962259675863926 -0.10288937786707442 0.3620817733356732
Ni 7.954000628861051 5.083093794506506 12.474097630454292 0.5342839786659573 -1.8832088813592276 0.9368994504496188
Ni 4.8472628580435915 2.763727958566753 10.688112239613039 0.009265741572642107 -1.6576565425425775 -1.5399414125165802
Ni 6.322955115803498 2.7300124396125645 13.821827101810069 2.1583457159722252 3.299055485575712 0.2117501428262353
Ni 0.8920770922845341 1.0093893286234683 6.681252414124251 -0.8386113187999815 -0.8276643328701746 -0.1200841444788061
Ni 5.679330067562648 4.864443276439942 11.110791682866006 0.22989107540132023 0.5138215970465473 0.05007557650015247
Ni 3.0299823577641947 2.8321503543140034 5.463752758796597 -0.012835718312087572 2.1881599711201796 -0.8485110944121967
Ni 4.9782062646670555 2.855999057041654 6.733034962070311 -1.9734957399709432 -0.22054588674099435 1.651219271557666
Ni 5.73783888492115 0.2978861962035043 6.073166609163821 0.24316413836114253 -0.012139463576011351 0.4487935130016206
Ni 3.115762868124198 6.473473163528519 8.141197981381199 -0.45895734090849993 1.4308543904792261 1.2559201309297596
Ni 1.048042931907146 5.231713298445757 4.365436761539564 2.11031185249245 -1.4785799786899634 0.19687553970724805
Ni 0.2889929681942013 6.574133393904088 7.732248844196649 0.9563683578075076 -0.507092762963146 0.8583975002879733
Ni 1.9786847793671574 1.0706477611199818 2.3066858080345964 0.6138619355006009 1.9023612859179622 1.2086899942982021
Ni 2.6222350081484698 2.6805006622634737 0.8764940693493143 1.456749255968117 0.4200796900066958 -1.9891025932702644
Ni 6.012379539262395 2.6082624740797993 4.949444729177509 0.03195418430909335 -0.536216934022612 -1.978295989573064
Ni 6.425093030504937 0.5653779222130514 3.6332806525574544 0.057130940685037095 0.07509009626661907 -1.2480656678823474
Ni 7.208022559972592 8.04858177814918 4.698950113888444 0.4757422736763226 -0.5780513535598948 0.3265645542656698
Ni 4.749473824427783 1.6496755584824472 1.8059294530242795 0.06803678896426348 -0.18115170121408802 0.33900355135997096
Ni 7.232741038917368 0.7652571731248436 1.044867781093014 0.025084453772453573 0.2803309772194269 0.4934540891337889
Ni 6.088947903666816 8.945171419087083 8.440696536937741 -0.06695255476114922 0.30814439988726927 1.7497267183069605
Ni 6.87609538016591 6.882829131524305 11.842796282442551 -1.202539144205458 1.6271822852131201 1.4685228515642772
Ni 7.180517056160034 1.6303160233270606 9.598707239986949 -0.04621995019948814 0.08964254015949723 1.4865678819914463
Ni 3.8713084754010447 6.014783114400044 5.193560985540982 0.9061053478868976 -0.8415536892577571 -0.9641593146068363
Ni 8.671799818801116 6.009639276556826 5.602237031698219 -0.5257669423338817 1.3976565635710188 0.2353299870287044
Ni 7.178422111292978 4.219116085494608 6.013417659263481 -1.5375284321997131 0.5338499764523322 0.896382721282495
P 8.657696350678252 1.448710490164114 2.6763771747997014 -0.4620002414998817 0.6789193301215662 -0.15134387382403613
Ni 4.194481778441812 1.437936487990681 4.048293906937537 -0.23650703805594106 -0.5105871492696498 -1.0925028708809572
P 7.474117967818515 8.625327581995744 10.75314531384323 -0.38125937470538857 0.6631769796856449 -1.332966065371169
Ni 9.095100263568245 9.289097769717127 4.162221497975633 0.8017872079930966 0.9524299419850502 1.2436490268718903
P 2.8114534213193796 2.3378368900131288 9.820866790705832 0.6818151636121225 0.8164777201257358 0.8235294847661947
P 5.671025107553961 7.140339006388276 6.151832724165032 -1.0776004998478281 0.09828864587026945 -1.2554403630798636
P 7.392546052057509 6.2496039881591985 2.040353783647884 -1.8599866776064937 1.431654003562386 1.2949901003480278
Ni 8.554221038137579 9.406583026056241 8.678913278916664 0.3451263764282572 -1.5740334691042828 -0.34134402656768953
