# total energy = -381165.36428152287 ev
CRYSTAL
PRIMVEC
9.27643944908010 0.00000000000000 0.00000000000000

0.00000000000000 9.27643944908010 0.00000000000000

0.00000000000000 0.00000000000000 13.57700681059500

PRIMCOORD
 96 1
Ni 5.4690176244746525 4.70052027716144 10.248861662760737 -0.2624188728256965 -1.2702046658732318 -0.18246887736361478
Ni 6.864129178171674 7.665891837245126 7.495905723092732 -0.9698028860458588 -1.2224603086094172 2.945479949938837
Ni 3.6389616556905433 8.620706470309702 10.533217926166659 0.14268542681808977 0.1958229300730176 -0.4239234892328183
Ni 3.1571248393351894 2.871800115653815 1.6057117749182053 -1.1457136505759817 -1.3094700391317577 -0.2232990240060993
Ni 1.544091170782752 7.526912221854192 11.292104882240718 2.0704468979767117 1.199367945566328 1.806463765987689
Ni 0.5134045397017261 1.36354383035065 3.72578820101811 -0.6752300541954371 1.2370842291701791 -0.7548254945315774
Ni 2.0469020166668006 7.879249943905886 6.385307204627831 -0.4177196744149516 -2.4137534475874105 1.337735204625038
Ni 1.3833119227547404 8.727441182276603 4.424108356474831 0.6030075092846002 0.6394135587174601 -1.249093080705597
Ni 8.45102184043846 3.6455757569970264 3.2954922097244017 -0.3195909511613141 -0.28176411012152763 -0.6428529234163123
Ni 7.833535650443962 1.271938991077824 1.1400642006386932 0.8284523759891087 0.772365817408186 -0.06442130369886324
Ni 3.579610996281172 5.658952721599828 8.819446763732374 0.7736940493013063 0.055377191218723976 -2.3074915537036778
Ni 7.1543796911850865 2.8928669095767092 8.96616014666779 -1.769844314992442 1.8161339420876015 1.160252210511789
Ni 8.612877155439195 8.451708296955541 0.8793090544052176 0.12160186667491316 -1.6127285716816355 -0.2561582366279653
Ni 6.46343337742335 9.055381868653608 13.369401152667256 0.0806688759059772 -0.6196551451436103 -1.6833950849592618
Ni 5.43744062468886 0.829942626743628 11.64779510949881 -0.8633378750123841 0.3126911387176873 -1.1303921897275628
Ni 1.9726626719882765 2.5596479291697043 6.4168461710120015 0.6212672268257364 0.9758025552727195 -0.11249064840226433
Ni 7.262793438687012 4.157412578436767 6.860489103343254 -0.20621327216840615 0.2987956116825176 0.3451294617520508
Ni 4.914815304203621 3.4408261861180587 7.53650127728268 -0.4349203545639542 0.023820756568681555 1.1511628466160109
Ni 0.3904063741436246 5.7183219338880384 3.036117397676627 -0.10884739522272223 -2.0017907302608946 1.4151688614231694
Ni 7.657005008280734 1.6061691033816128 7.275252624472059 0.23181888855165236 -1.212842325903679 -1.0254209896307953
Ni 1.0039055504753907 7.566504065298893 2.1533806989057074 0.8624346464718244 1.2823474718833527 0.49726600668071136
Ni 4.575993354386916 3.885204740095319 2.9603437299180295 0.5134724412372447 2.3751020537637997 0.4196433738002257
Ni 5.997283020127272 8.45712573757684 5.62067720490883 -0.08301449332001831 1.820182401125362 -0.7080154761565741
Ni 9.13722789365656 7.074871328915984 10.231673348159356 -1.9755737055458942 -0.41257823942332816 -3.8077472175948612
P 0.897419447084948 3.2623103859189437 1.904487335758628 0.02995566582182583 0.10585540247393382 0.36060184635603704
Ni 1.0453805111223582 2.1779317234747664 8.630387362488449 0.10147218580457364 -0.04933329901748923 -0.80431331684906
P 7.402886226808351 1.0926996286039465 4.972198430812003 -0.07146844035363176 -0.39878324252176484 0.3023051674976729
Ni 3.4408354625574784 6.085984333861627 10.971891469900598 -0.3860267141870448 0.3626443307073625 1.1613145903380322
P 0.38675887816366766 7.060901011149414 5.042065789591866 -1.6678928755586049 -2.364617095072076 0.5486944976643324
P 6.584537294051881 8.922589638355836 1.8261069885230012 -0.6009593685063199 -0.5343672824083829 2.3511535133680024
P 8.038749043293933 1.1019575151451395 12.361946436469763 -0.7941129792772904 -0.5839080694509879 0.6397493447903241
Ni 4.497013749164755 0.49623941619889705 0.916556741608476 0.8740002398222367 0.0544150844157708 0.8545115349700058
Ni 6.147320151306885 2.568794498437857 2.0502777129717504 0.21957400974602828 0.3281529817987123 -0.7260949593661044
Ni 3.1757333768117753 0.44257150357823816 6.285108671876287 0.15948758597709306 1.8329283879371205 -1.4649659874509544
Ni 3.6215033967020416 3.827189887962433 11.813109608759277 0.2894465663674499 1.1507843802306696 0.7455088451163419
Ni 7.904621005719676 5.132691036861936 9.226485793756117 1.280444084213053 -1.054454400748668 -1.5918126474645746
Ni 3.5103438231317856 1.38044550297395 8.375438339687971 0.13477902748681947 0.48947453566075055 0.9628578221865933
Ni 2.930946693395945 0.7502543015497766 3.1643521132873373 0.12027492033337352 2.684457443240035 1.1025965076715334
Ni 5.303841344161545 7.219324043564738 11.829048386970777 0.40929236958320475 0.8232245519312661 0.41836682108064716
Ni 9.484417191830136 6.786550315301938 7.562474380014831 -0.950864397270143 -1.1049657792346583 -0.7541572648199591
Ni 4.446754000387017 4.649203014289816 5.448873836274051 0.45519298877006126 -0.4929774066076864 -0.3520799249279549
Ni 1.254499284968162 0.8374398450828986 1.4112757493864299 -0.6500970065732352 1.8729596928273937 0.8592989290563201
Ni 0.6522153238952159 3.408321542390263 10.845191077369963 0.12158669716626157 -2.6047481030338493 -1.230493977547171
Ni 8.764751021623976 8.899871638216176 8.557424455874122 0.3992128738600157 -0.7203290034166046 -0.08324974925927599
Ni 5.336772704102662 6.9016894813833884 9.078673152749428 1.8327126723818887 0.17153654672182717 2.1543219395248125
Ni 7.0568935893199605 6.247886031059462 10.867158613560543 -0.6538081368762353 0.238138403011777 0.5305373671393314
Ni 1.5753898773859434 3.1276628677371647 13.305385371873552 -0.945824006632758 1.48757112644498 -0.25444202526780696
Ni 5.875307118193257 4.884639046770254 12.714785086250137 1.7808522360671715 0.7945202420180382 -1.450070815506677
Ni 5.3057151849243915 7.93672676255241 3.4937575494487665 1.381957407668207 -0.5517080876796756 -0.5180680310277271
Ni 6.111939811358879 5.455715210346326 3.9646899112658716 -0.9809717581784847 -0.3267573870027663 -0.37347921653933747
Ni 1.2952970655374672 5.430761588306436 9.603641701832167 -0.81051558900503 -0.1318911644160632 -0.24101726722146877
Ni 4.379870872168579 6.960233090563217 6.1353952884324325 -0.5689033685120396 -0.7908746748456509 -0.22593646162894637
Ni 1.644953896596771 3.5439894689082454 4.1985396726054836 -0.31193626282953374 0.3906426156925014 -0.8576115140515682
Ni 6.835112475665811 2.8199726486140904 12.16221449167309 0.07095010595631653 0.07697857153858356 -0.9241105262150665
Ni 2.3846293466319417 5.329203129535915 1.511501183812292 -0.43627558304026803 -0.3889431165028915 0.9523916325479468
Ni 0.5515297780741197 0.7196392685318416 6.706213566992627 1.7076030496640333 0.592110145645806 -0.18745013262829008
P 5.569917456046351 5.520409098861635 7.335479907406624 0.3861982067679026 0.17864744673499555 -0.04732835277231849
Ni 6.581513174800949 5.052885828531393 1.7109882306082758 0.640117269652704 -1.5045468350673703 -0.8972921204706418
P 1.5649724359172463 8.481114609917046 0.25090820578911044 0.7405211620937634 -0.5083328060178343 -1.4825898711803047
Ni 5.2631177751076 7.037784124114693 1.2375234008295017 0.2875624619708596 0.5961136103782444 -1.1596320604292867
P 4.540158468907329 2.7025885841929926 9.93257125665135 1.6693656034493896 -0.0764538093833651 -0.6650857666725836
P 8.132858521210167 5.928999149556408 13.994906824540372 -0.4353921519940502 -0.0070155120858846915 -0.12335330214838112
P 9.732190888739215 4.193071211567374 7.851202629319416 -0.08693105476560511 0.4183241407681698 0.07430051048578817
Ni 2.496902092932601 6.110001035520092 4.498170521160434 -0.20407180034537115 0.5287324527201087 -0.9529079100627331
Ni 8.272830715619046 8.53296990627503 6.190300678071725 1.6458024714174686 0.7687104800437858 -1.27694301303833
Ni 5.355158607033167 1.3617163717849035 6.481377721837461 0.13205160125332743 0.01664377920426811 -0.2664891862403282
Ni 3.409304844968786 7.844927118051763 12.96020349519047 0.025266744986588742 0.46776876855254285 0.6490783355007338
Ni 7.364648743518975 6.432960273928541 5.488735624105875 1.0563829852299484 -0.2662485309844318 0.1758421160757165
Ni 8.315993988240459 8.534815917719618 3.854851302669029 -0.4433679711106751 1.5446267338073913 -0.35332742418181085
Ni 8.539955065158315 4.778822702305938 11.908202389254035 -1.0313484108588238 1.0696089970019194 1.4873106736947417
Ni 2.149026338241944 7.372125553691521 8.638859534610765 0.37482904569901254 2.252916803781591 1.3285825915914926
Ni 0.7609129304433945 0.8903480173150568 11.691119792166134 0.5063214320147602 -0.3452022239715152 0.2927002974180572
Ni 8.576170284654124 1.4610392086551967 9.8015396945555 -1.039040894407075 -0.34606482908212655 2.229666832114715
Ni 2.7019485098730103 3.7414106526453876 9.094816012628169 0.2077075973257455 -2.1886299687780633 -0.501796033340581
Ni 3.8320785715367904 2.5724679684481897 4.494423767278682 -0.7472620803620227 -0.9112118158755275 1.9139898712958263
Ni 8.222867812902747 3.4475794340158425 0.5251290314847058 0.6301755850589598 1.0996924466508609 0.3168732951198349
Ni 4.817143673550094 2.5521154603606373 13.444672037409289 0.6939710822483661 0.6742404365886582 -0.026188485469909734
Ni 2.83960159442688 1.284592054446749 13.160233213692527 0.08618312085598705 -1.4106861430614672 -0.734981977443089
Ni 3.374703725932063 8.22345222858621 2.1375096387019727 -1.269535664830665 -2.692685487576782 -1.0806392866741519
Ni 4.497737311439518 4.84700453204318 0.7181624593761724 -1.9770052957860984 -0.70919458406634 1.054043024242862
Ni 8.239147964084905 7.764936380932819 12.074208910895237 -0.3254121858287815 1.6072804040828705 1.8953336896472195
Ni 4.375121335185522 8.469305702535344 7.873998551550205 -0.5862536868650291 0.9525757235342949 -0.24935406922193828
Ni 9.29471400569046 4.838878371111231 5.7984546005301105 1.1766147110302125 1.60431643635854 -0.44809905803775735
Ni 8.9010868517802 2.672310285926005 5.51857792972012 -0.05176556260806569 -0.9673449114236695 -0.07521890853499949
Ni 7.5967730871264605 6.781114321801799 2.7532945297068347 -0.03983487260875075 0.2672782578005268 -1.2996615376817682
Ni 6.53646678497727 3.1002973714480673 4.758238283232885 -0.8199636217918072 0.1916366599058119 -0.032366332145847485
Ni 2.5636367981203185 5.239472131025936 6.614283124696158 -1.4648441171611095 -0.5138007711109409 1.6819077017804582
Ni 5.448423928962179 1.1177089092803556 3.74379191464451 0.632121395931421 -0.895747144581025 -0.11276858465399933
P 4.0142214595491374 6.150390652754917 2.9209847251027714 0.7082553600815221 -1.2128832064439434 -0.8913140485103359
Ni 2.7730616944669833 1.9926533989384476 10.862569558979454 -0.5711757094859842 -1.5978102598089063 -0.1574957523580449
P 3.5221063483163877 8.39195875065111 4.561439548580827 0.12628821640698895 0.39970009790907934 0.4418134821393617
Ni 0.9790261399508622 6.39071536880971 -0.15981728126015443 -0.6907484615460103 -0.08220151050041972 0.04508249416093526
P 7.161234979916491 8.264825148399556 9.94913526687976 -0.6834974364105519 0.11152237095172406 -0.1932960498861058
P 1.824369511419629 0.3919379142918721 9.670915368150188 -0.3071277856972969 -1.3591067283222786 -0.12199524545858989
P 1.5049445964302128 4.9889989902456255 11.805750609367365 1.788280667320759 1.1315504717017222 0.5831231116558474
Ni 5.964370213064994 0.7521244317368552 8.92540225478799 0.10410165300762073 -0.2915157901916528 0.5693137165765809
