# total energy = -340868.6697726776 ev
CRYSTAL
PRIMVEC
9.26690674361782 0.00000000000000 0.00000000000000

0.00000000000000 9.26690674361782 0.00000000000000

0.00000000000000 0.00000000000000 13.56305473256868

PRIMCOORD
 96 1
Ni 3.422074084248115 2.2785841169718926 2.3201230268006188 1.7007009232275612 -1.0297144747998264 -0.8952640342970195
Ni 5.7055140603946315 5.625568455242949 8.294608131007363 -0.5624298449725539 -0.09611632080929898 -0.0841025841778745
Ni 1.3380857436272366 9.367360091750044 0.7196679837811212 0.8682797923986917 -0.9347857465407257 0.6144160082318579
Ni 9.000186709656617 0.9845254476550358 2.077371769150112 -0.31588573439558504 0.8867629388045437 0.4673753897688661
Ni 3.403280797213501 2.957709383407631 11.593848438641812 -1.022351606676852 -1.3817303792590654 0.4221283450056085
Ni 6.706126858292315 0.9857208786350483 1.2248821365827889 0.06928146000464197 0.6022791157590078 -2.539582979190426
Ni 9.10261383075799 2.100168359931744 7.0710715492951 -0.013473609006402603 -2.274943444564327 1.6199775399345648
Ni 1.3180877587057884 4.411149583152656 12.424531186076074 2.821543007372844 0.1014017375779544 -0.0907609700346566
Ni 3.9898759990335497 5.299327000581419 11.01804269643439 -1.0339015162979805 1.0847060005443576 -1.1059610532683921
Ni 5.59852762113693 8.000361598838786 1.4633316960866156 -0.9237166332107575 -0.4408578030943117 -1.2607404351365386
Ni 3.5180421712946934 4.3835990691714395 6.348011877617199 0.6195271042061782 1.757347210966696 -1.2930360619454504
Ni 2.1184241663706933 1.540150646876623 8.161975527120326 0.1270644324513812 -1.9441458260539162 0.22952726430399825
Ni 3.2076285934848014 5.608943624404636 8.37941793554981 -0.19052645756076864 0.8104150588714236 2.078364867272208
Ni 2.3589652667442005 4.26664143817348 1.8817251255655054 -0.7087464407853278 1.4558959068288861 -0.47810666014344105
Ni 7.430734103409457 7.143339522144919 7.567031768944516 -1.0476435484744215 -1.0403069056036922 -1.2978813058528937
Ni 5.469726883220709 3.8268247735039482 1.9063009624569236 -1.1735437854143724 -1.2139640982129478 0.06264852806915662
Ni 4.5824668895673035 7.034407032454641 12.472138066491715 2.615656522416237 0.4977066937625558 0.9061531704056974
Ni 0.3246317929465824 6.136082352056005 6.229049814673683 -1.5927161331154505 -0.6705236498587033 0.017380657370292645
Ni 7.185225940979464 2.200983039246125 3.23031305469389 -0.6774946818598977 -0.4383532915049031 0.3655813018484994
Ni 6.560339880171731 5.484915343501642 12.984672148991923 -0.8255812250889007 -0.8680483931141759 -0.3246323702399635
Ni 8.413202297750052 8.27575553576909 5.539612334326644 0.46459782702372887 0.5317478425076649 0.3174803325762145
Ni 4.146282852371919 3.6769418225681276 9.300756052349708 0.5315025592660781 -1.3246436615484025 -0.7361428305204096
Ni 7.15588691398164 7.656225747104357 12.174184771594417 -1.4033608130446475 -0.06832552384927588 -1.7037065428231046
Ni 3.8543011522305903 7.5002173707593265 10.098331848472398 0.33721792021445796 0.48688852010112926 0.36960070742053763
P 6.08405793715841 7.138177855045177 10.105207893334175 -0.8814582387621787 -1.235416097439137 0.6984070065325327
P 1.7363959326419178 5.307908156298407 10.534397269260465 0.6201781075266158 -0.08086685084939621 -1.6497347165923395
P 5.54236089888999 0.6545772302647859 2.9157173218353187 -2.8755181760377186 0.4673190826096339 1.263237233416463
P 2.368445312422904 7.5115137301751025 4.218205169597287 1.839657222020522 0.26593845594318066 0.8504322226943096
P 8.64983276344476 2.259262616248436 9.544647139539297 1.207355848867811 1.8316217533105554 -1.2725975915854406
P 1.7813311638208345 1.4111738377307868 5.748022288676919 -0.6061481117961109 0.01754109420755689 -0.3038167190461929
P 5.271822821134312 3.815963958708797 11.52227641049431 2.6859021461063617 -0.8502123933740197 0.48178333766408
P 9.310924629205273 7.904903191667407 1.8333453851209254 -0.7054461727675012 1.5845942753392646 0.28666000476124825
Ni 8.805702136187465 6.141939037167383 11.422777631948625 1.2128451541171563 0.4671403909399245 -2.9430353450530866
Ni 1.3534132075104968 7.380841077080876 9.633539016536748 0.011928376006469779 -0.702706405238835 0.0694328979808417
Ni 9.05755812979039 2.982192551230831 11.865693150259368 -2.0796928420550116 -0.503379575777617 -0.8187793716757188
Ni 1.2844488869426482 1.2337867073478583 12.343179791159521 0.43077907870207105 0.13412879549733028 -1.0644230819256055
Ni 5.390596765869344 1.403343301466364 11.333953403370973 -0.6974279304487151 0.8592539347509975 -0.010095693673105194
Ni 7.041542550707428 5.053976375567396 6.057138499531758 2.152055769198455 0.11972753247033574 2.305250580188301
Ni 1.7987714824594652 6.902335076430322 2.3288311391410654 1.1183044053250935 -0.05072298027616426 1.2893933229865406
Ni 1.2122967504281001 6.3026086676437805 0.31619149421328535 0.6545609558818598 0.7527801819667745 -1.6732937348592019
Ni 3.7520037678247213 2.1749244972632185 6.611446871293968 0.5984998512222338 -0.9170201950271886 0.1690366631181089
Ni 1.5646430816066448 8.359713711574614 6.1221597512469295 -0.6206038822101246 1.0426113853671528 -1.0014428815486431
Ni 8.024585293270976 7.784970883579649 9.703673747436188 0.5083343486797309 0.613722067488627 0.7810098662364292
Ni 6.813437639288779 4.973039211385781 10.310566255268029 -0.4751699461126204 0.38890814949989794 0.6061928489911174
Ni 7.034786975634335 2.75520893553762 5.708309886182769 -0.4798053880021027 -0.32452052725244757 0.6524012292263797
Ni 4.016194014407467 5.88511598150797 2.928819801390664 -0.7934956574082657 -0.6135896556758207 -1.4034153204316668
Ni 3.006833256470002 8.349269907586443 8.062869665423886 -0.6039266786647599 0.15406255830677984 -0.46728514404790494
Ni 6.885636110337436 0.518952342164989 8.036299590184415 0.6303316510208499 1.4992891862128566 -0.3966595113105426
Ni 6.486028554367703 2.6679517409035354 9.206818344587786 0.0064269865722663515 0.27071222318274024 0.38178902195661346
Ni 0.48437751281284686 2.949156028411108 0.8020943398890007 1.32128734348166 -0.6817488291505615 -0.3060852033653954
Ni 7.61559962759758 1.1118064128524823 10.769581170800288 -0.5998944175769152 -2.124533138298154 2.1709155822174355
Ni 4.18373042283882 7.442466007445858 5.879882959225699 -0.2784327317554495 -0.25362827111726 0.4788913608282655
Ni 4.633351474925817 1.092716584799571 8.949351238904258 -0.8131800232110704 1.5350198068452467 0.061480990123616686
Ni 7.560146457175918 3.7008133745410885 0.6885747313219298 -0.5700161419602442 -0.36265075846526573 0.33978928048606
Ni 8.34719412045836 -0.19278872952076284 13.359012556821334 1.4010115960861806 1.7951745662271148 0.18999449631669857
Ni 3.652106512285699 0.6502764588087876 4.416225994709638 -0.20808092150476418 0.024793662004912134 0.4842670233178821
P 9.5507521777535 8.263708556900747 11.48206174165042 -0.327108856804914 0.9794805183449389 0.1878630517959926
P 8.68393498054899 8.804423303046056 7.6071380149785925 1.861509284898607 0.2998515637508578 0.27719371714202584
P 3.135912001590878 7.324841159156728 0.47454254460286865 0.5389867834582652 0.38679110315689513 0.44473631221311144
P 5.549728089813323 3.5624862564120545 7.453563128364965 -0.37046176986925233 0.1882813702803338 -1.2248090113472518
P 5.5943019116261885 -0.1866911048320173 12.871718748431665 0.5911894336037496 0.16206871644070797 0.46833826790276756
P 8.804108228214114 5.2708405290112 13.15309818047817 -2.6745874924244903 -2.0473146828346227 3.6628282734605624
P 4.803297279130839 0.21636374047542642 6.704380973047088 -0.66590620569135 0.4517682793592284 0.32354556493368797
P 2.9257014872451284 0.34427948879016634 10.078814816015 -0.5574665874300077 0.26366920029302976 0.19994440844055886
Ni 7.61545135708843 7.028828354547916 0.9874093090579805 -0.5475755535685408 -0.6264803955955598 -0.038957869320436135
Ni 3.8326073233607527 4.601547450713394 -0.12983214464548853 0.6699626351489107 0.5990588090494974 0.006420301704047007
Ni 0.3182923019897878 0.32998621170821935 9.513018259865804 1.2879316508393497 -0.004020948233935011 -0.4108414592378795
Ni 1.5344144315539276 2.64575749906532 10.222175717929638 0.19540461158867636 -0.03654848854799512 -0.5995069523305094
Ni 8.77101610395346 1.247770469741957 4.789888064959691 1.3926889351530982 0.29775688600535816 -0.28590307199056564
Ni 4.700397545781552 1.877818197649434 13.695566225394163 -0.4056606863678885 0.5088429128850334 0.020982258678621926
Ni 5.419398312271504 5.0590361066921 4.5966823246319475 -1.1320266400071923 0.28758611611994345 -0.6553340866024585
Ni 5.262268640201034 8.283975282120029 8.4410892004489 0.9514248977593034 -2.6350763217037456 -0.20789117409146132
Ni 7.562305646465397 4.5125666114104535 3.4999059079537456 -1.7338136466211302 0.11463469132846063 0.40552287523844355
Ni 5.05816501745085 2.6601026708254687 4.366354282266748 0.1891763712907774 -0.7360379295114291 -0.19215422297217877
Ni 2.46208740585721 6.9408205404612655 11.85415029112213 -2.8060845067259286 0.47815859642729913 0.43270457785955796
Ni -0.12030298436062985 4.39147593996997 9.62879250686262 -0.10367202166936983 0.4234285518742708 -0.2135036351822323
Ni 1.4892475277044661 0.0956428186171333 3.367855265815117 0.16861011710365156 -0.4558182810588859 0.43151132888240523
Ni 1.0233445203315632 5.051288972589075 4.105889332226368 1.5993668056627486 1.3898864327072966 -1.625539864513691
Ni 3.513075109238208 -0.006156006201722878 1.6827544425039187 0.4427884444581213 -0.6540745031637445 0.5165207411452652
Ni 0.09081661354433898 3.745711538092718 5.526903698311225 -0.4262814479420336 -0.6141820378441809 -0.3988904575235904
Ni 7.341910801522487 8.836125391283439 2.981892303449805 1.4677756889856077 -1.7138999384163385 1.5557601247163915
Ni 3.4288574600416735 9.208228767806064 12.632303577237007 -0.6285048822247563 0.25136981410038645 -0.6086482525101453
Ni 6.490940014983258 0.32575864881611344 5.422224718852153 -0.7402887343679831 0.20375504043590068 -0.9707202556538057
Ni 1.7631587595432812 3.6752645124333814 7.817894350136147 -0.8320750603433605 1.6114931566126374 -0.08395577418736509
Ni 4.752625832629227 7.908554352955197 3.6652664466633396 0.928928002208368 0.6447668526095734 0.5558413931217588
Ni 8.371705089002024 6.519574757062625 4.143336902693268 0.018236834723000847 0.6853897683372584 -1.0139327864855376
Ni -0.17357935836985008 5.370784119084332 1.8387164843148414 0.18725858544277427 -0.8459487330016593 0.8267857869199633
Ni 1.6186320807504615 2.6720384468119494 3.5974651229016272 -0.3640622941008117 -1.8403167099813917 2.057481853175611
P 7.408030181696042 2.0692910264015008 12.834637220784225 -0.7476369472029382 -1.4822756823739953 0.41953255925397426
P 2.5939276892109833 2.793638798127632 0.05233300289476082 -0.14701105077663715 -0.8604376706464537 1.0443407093534336
P 9.060829347898487 3.2327141102514187 2.8755035796821105 -0.04450939526628463 0.015866534718611384 -0.9476739153573035
P 2.251218941127112 6.427424635626629 6.78659975044216 1.3755723300774696 -0.14890235426207904 0.11050832786491291
P 6.541796799621305 7.04155181761425 5.3159583182545065 -0.7691036017171464 0.31168943692605033 -0.24247302583138888
P 6.199449460903485 5.700732336474582 2.1700890252836023 0.18586453330872507 1.5541547279024848 -0.2568593764600479
P 8.689365387946564 4.149164860393499 7.506418784804476 0.09610115130064739 1.5395524046082776 -0.3590316736554397
P 3.4005377927942475 3.9232191382643298 3.8723197258549016 0.09989892778018279 1.4399972333207587 0.47784723583446737
