# total energy = -381168.0899602649 ev
CRYSTAL
PRIMVEC
9.34333604190923 0.00000000000000 0.00000000000000

0.00000000000000 9.34333604190923 0.00000000000000

0.00000000000000 0.00000000000000 13.67491673621128

PRIMCOORD
 96 1
Ni 6.241161505133096 6.647755452884342 11.846621123254236 0.3212979065500918 0.2952567452913238 0.3245958605750732
Ni 2.573126672997903 0.9428173375849134 6.964443151072511 -1.6793216862208367 0.779061998481439 0.1932988780995832
Ni 7.094254788204711 0.629888463423683 13.288586559543564 -1.3131444026595513 -0.5413185169152355 0.10361802850298284
Ni 2.941235420234697 5.67133013611747 13.627792631550593 1.0248278361314866 -0.9633183067627796 -2.9020769003628537
Ni 1.4956438352880108 2.194132939453914 11.211954477858452 0.4050683041995281 0.03450677552761799 0.17022399855799072
Ni 6.50348500346855 4.868859046876227 5.326981492038786 1.6826201544664505 0.1743408489398417 -0.29356470230088155
Ni 1.5101073192395453 4.463358269423644 10.271572013605432 -0.7450486176504718 1.0282654010581258 0.06716158544816175
Ni 3.8801472434192608 5.938250555708839 11.54075394235565 0.8255470294168556 1.1539370669270386 -0.07778564082091119
Ni 5.36270106513098 9.098007915645404 4.068588313236137 -0.17685950159663735 1.3258214839065876 0.34928462157100487
Ni 7.618939158219163 5.073468759443833 13.038102936442854 1.0748419632660844 0.15272069956690473 -0.07547987550587
Ni 4.129791834957407 4.911380568493432 9.379256340817959 -0.6253344549165746 0.17450591376279623 -1.503630493900688
Ni 7.051593116549216 0.07230060175307781 5.8202498294701375 -1.1925599215055591 0.6510480576325949 0.3738594826968916
Ni 1.9687062745322903 6.073560746009952 5.364164231530728 0.7876075740586049 -1.3205041854587323 -0.7361070921864677
Ni 9.265748824806836 8.715342251098214 5.252945832811677 0.38068936113453145 -0.48414592435898557 -1.3216539827924594
Ni 6.233556029721889 4.012205952832044 1.0134305328769788 -1.1487786626545506 -0.6751770894703146 0.4354343180858953
Ni 1.972499668902008 3.456184034255933 5.442657596309049 0.7680890444097029 -0.6252066710894587 -0.34166747134537934
Ni 0.8740345017929161 8.611762029465972 13.032701553967156 -0.3313884580168744 -0.0795753857314823 -0.1730542689179342
Ni 4.724429760750374 2.118638785495 2.5523956793340368 1.005187950413372 -0.17950979473529083 1.0533534543750052
Ni 0.7025385059388974 0.17854834578077475 3.0399206681962623 -0.4701804633178289 0.49979982884615864 0.4455678069754714
Ni 6.521498955056767 2.7739243045240194 4.15660066861512 -0.4400000830797068 -0.49187388913086255 0.1205996506626439
Ni 0.03719955749653719 1.7214629203168466 6.973167958122862 0.368893654051184 -0.07111671344116784 1.0705839593206787
Ni 2.0732862331043354 2.695505686432786 8.877892937174972 0.6524565079443473 -1.1555607185733905 -0.6145985565563092
Ni 6.622687282702192 2.81928620025057 12.497779690822409 1.1611767792085874 0.015817169537914694 0.6784498466843155
Ni 8.87040425346234 1.1638432913042291 11.818956440029368 -0.9488795056296304 -1.0410173014071555 -0.4078898328087233
P 8.852063285118113 4.945184757728995 6.9746591545302685 0.3006300937880952 -1.1211935539474303 -0.1176847910086941
Ni 5.626958633994836 5.010812348992289 3.1645402135766094 -0.40012278726879474 0.5894032882376042 -0.4581991225862367
P 2.382457217572215 8.419279966878399 2.6078063328059846 1.3350386316294813 -0.940489224683406 0.06555027509698388
Ni 2.226685121680753 6.197210453125332 1.7720234481303698 -0.5012895260178077 1.4034371748085377 4.0773924329656674
P 5.171471009552131 1.7646478187819583 5.4974123476017995 -0.15479352293553342 -0.17891638412566604 1.0043795955794637
P 3.65270241794626 8.199627483534325 11.151115346236734 0.2529947512983191 0.3010939207983911 0.18729123845292261
P 3.1012680772901775 7.634458439125816 6.982439350322545 0.23035618796319685 -0.575566382354512 1.10554479166658
Ni 1.0103696560407238 4.787039454522488 3.375543570891008 0.48048544478826277 0.662813168588323 0.6692044168266474
Ni 4.288507081652961 8.186714993339868 8.96922684846143 0.469494750104714 -0.4502752397534697 -0.6084394789334489
Ni 1.3257913322163402 2.5843667060687663 2.7794677057051858 -0.8111120849384482 -0.08641837679524471 0.9588769831619744
Ni 5.652316447589452 1.449272859285772 8.08667589600842 -0.35992307512145755 -0.962537462732697 -0.521247200086657
Ni 2.6621406339838654 3.198709727245315 13.353350826570992 1.4339304583013885 0.8033332123239778 -0.17591050741980674
Ni 8.906432156638772 6.079942244420093 4.901007596992789 -1.0111657652633619 -0.31596775258643 0.9951891873294473
Ni 5.036104759235702 1.3909050400059035 11.661161511918584 0.17096704737160232 -0.43528802231601804 -1.4333211068521639
Ni 7.653004960859535 5.696192752910128 2.2578245915216275 0.6445264544639933 1.9362985620953557 -1.7607636928474129
Ni 6.598777686169907 8.826369111431603 10.662906425187654 -2.034610862114709 0.5579044462983747 0.33819365386416594
Ni 1.4946721283558664 8.653601487563497 10.789905718218165 0.013516803539512207 0.8649417291643942 1.9861633081362826
Ni 1.3976228985079406 8.794723232785707 8.667941639481338 0.3760001831889782 0.773883282493977 -1.6924618231472206
Ni 7.358353520358506 8.98753231212929 2.7366789646816407 0.589968673822771 -0.033335638037652264 0.6298565111566442
Ni 8.486580015265286 8.178838561187966 9.690510889188417 1.3077219460923992 -0.566336893336444 0.04517299699221252
Ni 3.244510759758508 8.185743286407723 4.868270416715409 -1.4445879380152347 -0.6599217059731409 -1.8008489909040728
Ni 7.22120269288785 2.6496018772248475 6.775196685702261 -0.3593350638284714 0.11395129210819085 -1.3488655102102447
Ni 7.594412901518402 6.587163919663603 7.114703613124819 -1.2360426752795424 0.6258617881749544 -0.11032449398888096
Ni 3.5564193416409866 4.0065999513004416 1.7986342030672984 -0.14925125296106553 0.5279387531742198 0.6575591192782353
Ni 2.952316616595498 0.7322736723961057 12.705145687476387 1.4406695767974351 -1.3498229890275075 -1.2039373101045652
Ni 5.04097263723231 5.17816083804651 6.930939817252478 -0.2586110690438321 1.1300216937620218 1.3265233950696187
Ni 4.757355676412653 1.9763584666229277 0.2322715927917104 0.17061892000356424 -0.04037146183851111 -0.14565787918285236
Ni 3.1910762218264495 1.34788832158674 4.444566952289712 -0.2971241375173657 -0.11094747228486053 -0.411248464868311
Ni 6.244067282593643 5.961777075469798 9.105183597605855 -0.003434479602845698 1.0478849750612662 -0.03558201086966775
Ni 0.6916469792965823 6.299977804535492 11.767060749517734 1.085992323455949 0.2387169012230663 0.6085250966687198
Ni 1.057151738821947 7.325418261360341 6.853594748454546 -1.5945817255692796 0.1044415528455427 0.8588574706435274
Ni 2.289864758941913 6.676037730611276 9.878855722645667 1.0121903498731342 0.03193875769012564 -0.4580929360256756
P 8.182407715496419 8.040594563418647 11.962146799816738 0.47086180565556973 -0.08610830175399364 0.6053595544565445
Ni 0.3174491800628792 7.038951583095452 2.9479018903893612 0.05420631083907439 1.324322787873874 -0.6330958440295484
P 1.0633837438579117 1.2386086650640347 5.124784228796945 0.9079593703765008 0.8094174708448447 0.027911381698287416
Ni 8.553113910109523 3.565884140893509 10.786200151205776 0.30442889870889506 -0.7785776026458526 1.1924989863606366
P 0.6153726567911868 4.06031478930908 12.572649709944137 -0.23402335240213892 0.14424300111319674 -0.4457572972784581
P 3.1985695772070253 5.443623697239663 3.7711590989761987 0.7418270253893805 -0.6338900577960696 -1.262589572530135
P 6.780729809213953 1.8324524073066908 1.6594371850376077 -0.7299199895391494 -1.3628435696568915 0.6804609635770733
Ni 8.193516941864878 3.776781918512396 3.040617681053358 0.861272250732607 -1.4198210154831998 -0.47600812574319956
Ni 2.7135943847080903 1.1847723636888785 1.691969746259086 0.724332725259359 -1.073869572050486 -0.6310770138273066
Ni 5.007336628042696 8.570343021483314 13.018507158089138 0.04714374756533816 -0.3086282815022233 -1.0733247552906096
Ni 1.5320174418922252 4.452080863009236 7.6095164039781285 0.3403001586842075 0.9494271506029842 -0.671125030888128
Ni 5.476362746184221 7.196657749515317 5.537767149627041 0.5816002472534177 -0.5753578658881318 -0.23681299933213407
Ni 3.412167578896968 3.6461153661466272 11.214019355089258 1.6540703678532158 -1.5264477489055195 -0.31384864936089824
Ni 0.3080619304982108 6.11867037166758 8.835760098330624 -0.8562578282371511 0.330337905265173 -0.6671873863966188
Ni 1.0873400570696266 4.2672790225199595 1.0440196802341681 -1.1871690895072908 -0.1923113173753333 -0.2676531246414423
Ni 8.228974901552265 5.787019321057975 10.609574663950342 -1.725267556823332 0.6594306252693353 -0.4456007170959358
Ni 5.098471526274781 9.255695395393495 1.6844081845265426 0.2806037712648393 -0.10034038619297558 -0.6290095897753167
Ni 3.020784581968137 8.097009625498341 0.581125593434627 0.05233968994398083 0.08256660714932232 -0.15813827103805023
Ni 3.4383195760418936 0.9206157028525902 9.83754322869211 -0.07404160039744667 0.2708567191804045 0.20468577978028618
Ni 4.434814378291901 9.193188478316127 6.494094950903116 2.9882515365784084 0.7317483009971398 0.7258473621316726
Ni 8.412552765040475 1.5355211928494767 4.243791744769721 0.4360657810223071 -1.1814465852012168 -0.4041306228766072
Ni 8.261471023763788 2.951148699609748 0.7060796302396929 1.9522908237585537 -0.3770126836138926 -0.6845346194258147
Ni 4.321115323895115 3.611171289932971 4.405689331668048 -1.198543907003136 0.3292482717454201 1.1024250150906756
Ni 0.28756732323226053 6.60964398580533 0.3959219895022514 -0.7461716755113214 -0.3496579457500236 0.9123204755586739
Ni 7.30860960010142 1.6720740468234285 9.833044412463 0.09229566151162816 -0.31268111141535826 0.34011349659469814
Ni 5.419536577325543 6.173758680051461 0.8404751079575663 -1.6359384341391954 -0.4989331099704891 -0.659277901741555
Ni 7.030533237462162 7.63779401003712 0.7922672321201389 1.3546407221311252 0.8658696402953023 -1.1647639823392133
Ni 6.0389249998805345 4.253217302011523 10.904829683949606 -0.6067430650676324 0.5352088044730718 -0.6242275950056411
Ni 1.205598659378782 1.6301411553670413 13.557640062717708 -3.4574979181177423 -0.04488914720320656 1.3376045925844449
Ni 4.4952190447949185 7.20506675181272 2.8960052655441393 -1.0623271186285252 -0.5129877882913423 0.15207946643848003
Ni 3.9821390979508826 3.2295801090126735 6.988237824573398 -0.219553440920738 -1.3341446590603023 0.5400113680680377
Ni 8.609117865410232 8.760395816740527 7.410259488539614 1.3646857650719528 0.6390448625241317 0.7423852118856957
P 4.720131826242812 2.837094598449294 9.406769662001476 -0.24505389918468767 -0.15306599872146542 0.36714067591581934
Ni 9.01573049983325 3.5029754603730425 5.255420882487879 -0.5743386805949979 1.3583495384412798 0.42149302541445477
P 4.826272121907819 4.227270858256089 12.928539242509215 -0.3528021478059601 0.2888050761287091 0.4480427508785252
Ni 7.188743944019872 3.7945155700240316 8.780089700121046 -0.019098411392347754 1.0487838327264518 -0.4569007154897873
P 6.946695484557047 6.890308452485011 3.889584012664125 -0.3433065496106991 0.3763747929195776 0.5048697871698983
P 6.679242494820175 8.580321704209567 8.092965829726879 -1.7936223912486466 -0.2069797180207855 1.099026530932088
P 0.12285178623071502 1.9427598307768565 9.49784476288389 -0.19044186826676235 -0.4938880913474139 -0.22577525346073377
Ni 8.907104876822565 0.20861613499552492 0.9629830594276763 -0.042983445540061456 0.23661476727839892 0.5563453293413708
