# total energy = -340865.2128977921 ev
CRYSTAL
PRIMVEC
9.25654464837503 0.00000000000000 0.00000000000000

0.00000000000000 9.25654464837503 0.00000000000000

0.00000000000000 0.00000000000000 13.54788875877132

PRIMCOORD
 96 1
Ni 2.1970963701013733 7.867451870716309 2.237054095631027 0.5718336547849572 -1.47660974233747 -0.41911166966647173
Ni 3.0473007234669547 6.022576274383989 4.683599528827665 0.09520795006241668 0.16421610180101395 0.857149229703169
Ni 6.029278012582953 8.784247805025744 12.238282018321865 -0.2834746650547312 -0.07230199199852064 0.49115500868696704
Ni 2.9590395719101514 4.398108258515124 12.041891468149892 -3.1345668468396015 0.9016192870910859 1.2548479809115034
Ni 4.962822267222612 4.403995420800403 5.68621103564395 1.7685109408929993 1.6852408799187493 0.3957112884646604
Ni 5.2140356276945665 2.5076256675608466 3.887620938643511 0.16876541173459322 -0.407701113836685 -0.42010411548672805
Ni 8.242073482111735 3.8568503335040116 11.25055966329154 0.4652516585576439 0.4095479372374366 0.8165972764227355
Ni 7.862462593244981 5.789653845792081 9.955178465243035 -0.35902884544196234 -0.8006649214631953 -0.28539990710190205
Ni 6.936826658963155 7.404013715095658 3.0405795465245955 -0.42811747270950784 -0.05872065376966016 0.1606605232392717
Ni 3.9532757572866255 3.8479270246313577 2.1313943430814426 0.714891120230485 -1.811036987180668 1.3322001337394218
Ni 4.59644823695326 7.975883032681321 6.494491573433662 1.3060676983184283 1.3529466222581539 0.2593096377727534
Ni 1.8085344027285435 0.8078723241784215 2.791515555679436 0.38072407102720884 -0.4889078645240032 0.10278653374062299
Ni 1.0804423840601143 2.207158233944293 6.819126919016619 1.7262306920675496 1.103081674838068 -1.4697428400143075
Ni 6.960560438993742 4.4430487819349755 3.218477372146995 -1.2545618171296522 0.0019789781032417534 0.9471604660559946
Ni 7.79997166150298 3.0389142941737757 13.875205640434551 0.1795211075892005 1.3622360179798798 -3.266109369666994
Ni 5.123580675097495 4.7922519222056 11.430231968489547 -0.30078024621271426 0.14785591527543568 1.3359518874723701
Ni 8.28362611025421 8.981652872472036 8.29657786728182 -1.9101730686528975 0.3678574994771858 1.5532849237030217
Ni 1.3616469486268814 7.151235998607647 10.916509486324374 -1.5218963820894111 -0.520429075060736 -0.5514196099049793
Ni 7.579240101982946 5.307036130021907 0.574006653704643 2.8448012065698363 0.8809938975312505 2.156452355604254
Ni 2.1771207471271117 4.790317304410595 7.392662414607551 -0.6345256344975395 0.5363514027179472 -0.20717846429515285
Ni 6.5630011103924675 7.260842741720821 8.072251991542645 0.6201986763519061 -0.7475364170693319 -0.6422535992694165
Ni 8.222218194215632 5.990854096472593 4.348370993748998 0.7114034187922006 0.2944705019446025 -0.26697435340686276
Ni 2.318931008464314 8.272870005575761 5.0425646209002615 -0.444993165418924 -0.04606105602412067 -0.1839259215251155
Ni 8.087887220813185 1.534901691541269 6.926222361614076 -1.6196145001681914 1.0874871628339204 -0.9187718876109726
P 7.544231850783382 0.8969387951044373 10.363389299570205 0.03832743482528883 -1.0577788371362105 -0.4304785167425167
P 5.797355290794207 4.155420175503455 9.630096954216446 -0.20840153806897654 0.5523912297896293 -1.8807691615694835
P 6.897236418249107 1.0578564155442673 0.22788224012597386 0.7789295866686327 -0.5430157021120002 0.774037548683654
P 7.9775029279642204 5.826457866619543 6.586753403512002 -1.4010910431738643 0.6205835704951506 1.0190886196548643
P 7.126493255229426 0.12110152004062355 3.8963998454223754 -1.3269247442730956 0.1030878670311257 2.895416971844175
P 5.014436759208007 5.600042788792653 3.840568997429208 0.687932332253454 -0.5222414456791263 -0.20740266449081698
P 2.1631526215162866 2.584214316536304 8.847326527341826 1.2110561805375337 1.1117311229829498 -0.7700829349112801
P 8.673150758252305 4.0474981234844964 2.0267231894816504 0.6230639137148432 -0.4113567083114012 1.48793108088756
Ni 6.598999811850717 3.9751489718779967 7.375971939267007 0.6692290994169958 0.5301563296508289 0.18418174628966347
Ni 1.8003053346914173 3.0360077392090314 2.9653617917856936 -1.5064281112504831 0.8587515411932823 1.7866382466213295
Ni 4.100436301329631 3.5894565332920165 8.08807605432045 -2.0688571848920887 -1.0949472186563918 0.17370527223837182
Ni 8.894919050753394 7.180958762912723 1.6378585331045308 1.0520249653715688 0.0711395962593033 -0.5068122556082498
Ni 8.7312078051914 1.6534132304381493 11.997319355200094 -0.06720529420190362 -1.1643564624881495 0.1353410706378766
Ni 5.523518935628511 9.040367134068765 9.674127559314531 0.44823532650530545 0.26619968002436734 -0.038147971824631075
Ni 1.1445994938073825 5.375201323526292 3.258416584587702 -0.44718143131949434 0.6915889551694347 0.37071939440601315
Ni 0.4269368237974797 5.643409699651973 12.636941950061061 -0.9443937019441349 -0.8872902720629235 -0.7506127420018104
Ni 7.334173087041533 2.7550068186206857 9.324700410667644 -0.6995868857732468 -1.4692985533880374 0.3269674461310434
Ni 4.782625115952944 5.582196171047344 7.900586597314393 0.3569562791836498 3.183942826169568 -0.21989771163403418
Ni 0.6768107622840884 6.298680482945744 5.8778594580820425 2.3196477294502373 0.4634691127359244 0.5898712290129583
Ni 4.292611421148277 2.940841205474842 13.128378375751337 -0.5490171711110738 -0.206560885315812 1.5314081782345883
Ni 3.156315047733811 5.061922832358127 9.799986943214641 -0.8723236234507622 0.06760818606727712 -0.0378756919998509
Ni 3.349943445034829 -0.037003962188094035 0.49463085918815175 -0.22104056698922578 1.4005135734038396 0.2890956107859344
Ni 2.2134526841864144 2.372655992589714 0.916263683002197 2.9085190564437715 -0.7783852841293885 -1.287702565547679
Ni 3.143004136780619 0.8016935807422215 7.239178725034555 -0.21697102490554246 0.04291068332059706 -0.528892889557373
Ni 6.210632231911836 6.580736649604092 5.532821762824587 -0.09746357886581279 -0.2084565596766281 -0.24510943501297144
Ni 8.243536016138581 8.185784435167118 5.750970746436457 -3.156577289672422 -1.8472825997762639 0.5967563861685657
Ni 2.916255823352674 8.743676370597484 11.636579783551888 1.4872888193178708 -1.1231149393398594 -0.015908443700140343
Ni 3.236809958477173 7.502355243584329 9.493018638414204 0.5624442431502571 0.31624671727942955 -1.225047609720619
Ni 4.188595630897224 2.7196653318200696 10.633981235897867 -0.9386902238014543 -0.20868641629924703 -0.39226343912537603
Ni 8.207565084313753 2.4153286626135064 3.781107732693451 -0.06676794955416887 -0.016576159191126292 -0.36720623904643207
Ni 2.021277564367768 7.1915945325130135 13.392982253458957 0.2259845412580624 -1.1090363497596059 0.4619341641486367
Ni 6.115012127498434 2.8530243680527767 1.649238528880507 -1.7411281780046723 -1.9486048902665345 1.3144867756200587
P 0.7949251954230464 5.44422737566673 9.665863316408407 0.41736511928901027 -0.7283428748600166 0.19558098926554057
P 2.138659804838856 1.299581817930671 4.963865479784799 0.0636214335053872 0.2135954235650902 0.34165615849146963
P 4.242727902979467 1.475391367119802 2.0409218030498706 -0.37886439211065076 0.11517693698517582 0.16404769454394974
P 3.4386118845484757 6.592881235953596 11.73722711726896 0.1441329578978937 -0.7921558555509196 -1.7605749738753742
P 1.233453064210503 8.717804328793472 8.760037312954761 2.622346018621271 -0.19602836121560432 1.614975201623967
P 6.721315790526291 2.8007989441321177 5.437620979875845 1.8442870074830495 0.7118502765216321 -0.2896221727133657
P 0.626633811655461 7.574528520845829 3.580679477822047 -0.9005054852016169 -0.1624150440365332 1.7737799026014227
P 5.930575478859808 4.149125725261333 13.541696971319098 -0.20479685143685375 1.2873649797026023 -1.3544113797291382
Ni 5.61191893535242 5.819191479207683 1.6444973268010739 -1.833124820218643 -0.31770478988219475 0.8061580833672826
Ni 8.079898822932376 0.339667973808258 2.176901367023085 0.7787233841950976 -0.014420546300704195 -2.238379272287048
Ni 6.755611287801379 6.023585237731624 12.3104247489866 0.4780076726717316 2.395080810878572 -1.6238812458643455
Ni 0.1354908184250022 1.8016475336401048 0.8480114779797603 1.115126264707428 -2.11895538710006 0.7761275984434634
Ni 4.620681870385427 7.142821799681046 -0.10476742166231888 -0.3211554674349566 -0.3044150147518241 -0.08859404429032483
Ni 3.0512902941351228 0.7030697276471025 9.622157616021347 -0.39400201908303756 0.32302363099194686 0.08188706458379445
Ni 5.404655648041629 8.711250695306086 1.6843004680380171 0.4659651396849007 2.3733655306886674 -1.1134558189835404
Ni 9.210067363905248 3.6475968891313753 8.66073125253193 1.5520001434533273 2.2136000084598395 -0.8112807493058286
Ni 4.464144446790555 7.554571410960515 3.2551508756973777 -1.2529803315751453 0.14237997976252897 1.8619301744861096
Ni 7.737073441804135 8.013316498532996 10.688755912166584 -0.18161655666564852 -0.14387867579524255 -1.872048493867034
Ni 9.246963950177447 7.048155119348438 8.426515684677046 0.27438195872484356 -2.4252642764404877 -0.8078154164650474
Ni 8.707001941392654 3.8389666895808086 6.0000754660773 -0.06838131678787578 0.2643736825592221 -0.33014867207250237
Ni 8.50524629804372 8.192745356611347 12.706022615813895 0.9522314528209986 -0.13996854210755894 2.140236922186656
Ni 1.3140497969430762 4.52170164032807 1.1275952216091814 -0.3223502590740061 0.2430895763694652 -1.8362132293359794
Ni 6.205022765960769 1.956333648340235 11.8816467984933 1.0163056575930884 0.9526831956464367 -0.7502144781221273
Ni 5.632375898639314 6.836235790167374 10.243260642353768 -1.0332230021737174 -0.8836495899865427 0.25631893057554567
Ni 0.7443603955809706 9.074866275322274 6.736876967441041 1.8024219918181472 0.16230602926249468 0.033148975948142916
Ni 4.948252466220996 2.235094485165943 6.32416745249965 -0.6034623374338317 -1.7159257105971157 0.5978246795320801
Ni 4.170369494828493 0.5251274706112292 4.937541718610469 0.22075106077326498 -0.11025430287257786 -1.1490429720595308
Ni 0.36675817686501094 1.429025335851 8.876549438245322 -0.05103562642057662 -0.4125201324918831 2.0702268115461058
Ni 5.158227921062582 1.8501240570489121 8.675946234683364 1.6930009834801425 -2.2599518562515013 -0.24642044051491108
Ni 3.2389482202505997 3.6445052032771565 4.6754982011042765 1.2699424133507806 -2.5127208646922594 -0.8768485079043092
Ni 1.9411158892254592 1.393396896171699 12.202150022623194 -0.2917222497755041 1.5554348801664888 0.4685079607114125
Ni 0.021813972706739647 0.4242422437011834 4.585107118664073 1.6551967681481752 1.0371287649860268 -1.9660716795927302
P 4.276921578265343 1.0543481851887322 12.2339740225238 -0.5941063501402284 -1.4712376793922792 -0.8092490635877806
P 3.2544529322440603 5.400119941249513 1.138511464507025 -0.24940677683674464 3.3578805261337203 -1.80313907248983
P 0.8884653542932052 3.388645057479401 12.483579521220673 -0.0138495042885826 0.28838932874752915 0.3679035222237728
P 6.882157507301438 7.553451369079196 0.7272737401369536 0.7400395944716545 -1.3094918935086286 -1.0769412689972744
P 2.949394252568548 6.937474617076314 6.931085750080562 -1.8319297714692773 -1.59181496145742 0.5058838302567094
P 1.4714388226295287 4.24488467784184 5.192133717815326 -2.8919948335365033 0.8711296031426612 0.8176532284910757
P 6.379480859656738 0.06469954325342758 7.439295034357195 -1.9348708285098934 0.6925965704983427 -0.3824245986580833
P 1.0779986563190553 9.046430170699042 0.3070238440672802 -0.25373291501592427 0.8614203462746971 0.2472843311771032
