# total energy = -340894.7518028868 ev
CRYSTAL
PRIMVEC
9.02049666264225 0.00000000000000 0.00000000000000

0.00000000000000 9.02049666264225 0.00000000000000

0.00000000000000 0.00000000000000 13.20240867155938

PRIMCOORD
 96 1
Ni 6.325036847528421 2.1655596183931425 11.370732756591865 0.49352170914693066 -0.361325611895939 0.7585093711410679
Ni 4.981866875736844 0.3523974229291835 6.029354894375617 -1.598163015162635 -0.9429055474343826 -0.9066810178847095
Ni 2.757836398945876 1.4330501990479692 4.768445536435827 -0.3967199322348329 -0.311722861267147 0.2569038565447382
Ni 3.650098811537808 4.349358680735746 4.99633304599488 -1.0554812993512854 0.2436091963183611 0.29149933513142057
Ni 5.209959150566744 4.659483350855653 2.5687794207267056 -0.7760363242812377 -0.3117858532945985 0.3776364332408206
Ni 7.256240743567347 6.099984480023431 2.741401054299033 0.24346367187943233 0.49695438897756355 -0.37062143537556813
Ni 4.918191190850968 4.5037805605432695 11.377214885386168 1.003272478558214 0.3950857390655196 -0.20711084428201101
Ni 5.761896270712956 7.658563908547509 12.442438102219318 -1.3511957010053182 1.4212142962863008 -0.44104677917666624
Ni 1.925352816746167 6.559416408427943 0.1922195642966587 0.511301658838171 -0.46086947032954817 -0.17388910611440375
Ni 2.506705776021554 1.6359752886063585 0.2906656550418774 0.8475376747553339 -0.6101176379668202 0.9359234596895945
Ni 0.6348192462077513 -0.2254799390397105 4.447165218278187 -0.5828032664225834 -0.10807092206801389 0.5774448303241475
Ni 8.679738236807957 2.3533753762921124 1.4214633712769098 -0.37175477764906295 0.9229411884973137 0.40901186222830854
Ni 7.168507394481069 0.3591835424559784 4.659869428106413 -0.3365689737765494 0.6139866340039233 0.3874662748470488
Ni 0.5695442272901049 7.187306109214341 2.0272961539895094 0.8735757506903084 0.08664797630754756 1.4995750928843914
Ni 7.717260279358161 3.8083904843494465 3.7286898874080725 0.4531618172726453 0.09859743535993987 -0.39047292288385654
Ni 7.632449571142124 3.8288038679585608 12.538103173889553 0.48862170074215205 0.20113997141055678 0.310201282416298
Ni 7.696594321846681 8.469750098479821 7.154886444746309 -0.9287577951790907 0.7484779550469949 -0.3306783193237273
Ni 6.692279301569191 0.82346128158732 0.4279350607297682 0.8932578025002681 -0.047517071744356876 -0.766633542910099
Ni 1.734082208682685 6.613719797436722 9.301123257558768 0.45775303618775354 -0.195109963166393 -1.2449266080327335
Ni 0.08392579750810368 4.905616618711726 1.415364613584412 0.22645659579847452 -0.8514344387065786 0.40841125252983207
Ni 6.436277610527801 1.895125132930815 6.842755616201892 1.1094104452695732 0.7261713211299945 0.9403907514323288
Ni 3.464168337410073 4.462917711338989 0.5078196758000092 -0.40697349164204105 -0.002579587801718138 -0.14538508513743995
Ni 5.929605341884257 5.4703087209274415 4.876863786076263 -0.24698634032071012 1.0156903926065928 -0.48167843665509946
Ni 5.423636671968733 2.8762935591557253 9.215029834738571 0.38066313588228634 -0.9904858683165071 -0.08616718001638708
P 0.18186583839893825 5.560026579246597 12.498852287412161 -0.3526121432823411 1.058421870036848 -0.765921861555055
P 3.9500032591083887 6.179247582883921 12.466915219507579 0.2871125189176346 0.4695610845662752 0.3075255353563478
P 2.3918387734239124 8.429347294597708 1.326499192185742 -0.027328512611623904 0.47789968633895763 -0.2427774444456851
P 6.234245550124207 7.654107783270044 5.707744426045596 0.30007396417430904 -1.3457233650368372 0.6786447363039408
P 4.598504794427189 1.1190376949309215 12.637015624304498 1.1521223823158027 0.18330140056723915 -0.08119158117866662
P 3.815399410140115 6.059762086071578 8.062790398291932 -0.1891894839169 1.2884736393857488 1.08542642365015
P 4.5178525351036845 0.939304301907677 3.6792079537855376 1.062870649836821 0.008206961290824575 0.09977731460065396
P 0.29264565402649984 5.645775419099996 3.606911380382105 0.07010781256067926 -0.1753788032860528 0.25038611003087846
Ni 1.3051756404784576 0.9623336295055863 2.5368694143116626 1.7199672276563411 0.5700516231838698 -0.5598983367999518
Ni 1.9090708205400464 6.448238788904154 4.921923872308082 -1.8527590495098027 -0.6032322237008966 -0.8979055856849245
Ni 5.932708392684759 5.794243771208883 9.358699282702498 0.28746013206504045 -0.8941047238815957 -0.7165281416132756
Ni 8.490010133648212 2.2153978616279444 9.990512899472087 0.4258973251297375 1.1415268661881437 0.6611010709932227
Ni 2.1739577006468256 5.213107303849812 6.887076021719638 0.12209037627555748 -0.23296611478221815 1.4032312294453189
Ni 0.5313054405214808 0.14004140426636227 9.161956841454177 0.04168246734045079 -0.44534926320676205 -0.34277484547694514
Ni 1.3268969960819694 1.1100623009004007 11.460825867565964 -0.04724504902989282 1.0340328996695225 -0.8607174066704015
Ni 4.054893592562556 6.924611209760242 1.5644328287114198 0.24501070465157807 -0.23764475120481007 -0.16806427190251055
Ni 5.2886720031399355 7.7844178758980895 8.108853563736007 0.6090490874929898 0.587849313486923 -0.5642861814550024
Ni 5.168482907599573 2.6642216861330668 4.9451994594608 1.173634802466282 -0.20212650369354224 -0.8369861244917327
Ni 0.6994962062065802 7.540016543372528 6.980813413285025 1.2457290493293707 -0.46073088786915495 0.45484280451949405
Ni 5.115604757039861 4.5500647281519155 7.360078385078437 0.509778023104793 -0.9193359876445586 -1.6610056615204685
Ni 8.258553213618931 7.07731919523028 9.233328813965018 -0.3365229510299624 -0.03166724919629385 -0.2753710621109903
Ni 4.795007290468262 0.5753353860515064 10.49011851114728 -0.6199631633023323 -1.3500929548594427 -0.5458074059245245
Ni 8.296313012022711 6.961559163477843 5.1377302308871595 -0.6008647519099845 -0.08027472579135207 -0.8129583941185677
Ni 7.004956772202302 5.951904009264606 7.032342097566381 0.9257678593128313 0.49221301763783615 0.14527992701814335
Ni 2.4280199849379014 5.180949233780659 2.6402704637915195 -1.0116529893124255 0.3247586114051826 0.0417130634680701
Ni 2.3919019168995037 5.2263944952135875 11.159441156517588 0.6050839321976547 0.3827966372855214 0.9710961509359856
Ni 1.2180196031690178 3.1730408329467257 3.857651415807411 -0.2421758063059442 0.8661205799638438 -0.1223703694098215
Ni 3.6403025523245964 2.8687434035742725 2.9333905959346076 0.5096435544094577 -0.3951585012849839 -0.3942105355494178
Ni 1.0849492386079684 3.457637497934599 8.46284941864731 -0.5927950875279726 0.19508630901730917 -2.2911871601166993
Ni 3.7835029344698414 2.558519507992721 6.867417653668669 0.6097599975170854 0.2302371458868293 0.35794589679042865
Ni 3.881501608588011 6.949390513681689 5.903113947724624 1.7060051090492943 0.6246677678668533 0.870773505354823
Ni 0.7121050562325723 7.416129044261802 11.334663399234637 0.46287133125092544 -0.09439753834597936 0.3293176915307748
P 0.11345619694299432 5.5462703220641405 7.889363234380986 0.11429761970401606 -0.15016605146585105 0.581582763751921
P 8.519795813134424 1.5242564392917846 7.749061137765396 -0.25761862322357565 0.10240112537674623 1.0700494269734473
P 1.7672235128717644 3.3138056810334375 10.389767291538497 0.8558467088416615 -1.6006994084312434 0.9528408042702236
P 4.006498628769848 6.084370000559279 3.8056599800549353 0.062489119673156894 0.688808049990188 -0.23570382542835538
P 6.919541690719887 4.042733963262916 10.275923213245441 0.5064379029879665 0.3429707635378351 1.1342840685828013
P 6.311271569849452 7.830900494430023 10.135211586088156 -0.060474403235973265 -0.5039117941320032 0.8932259208210682
P 2.2754382864190466 8.613302279989076 5.811911315679414 0.5656612074256581 -1.0410396700046587 0.38274058723660537
P 7.016890889089114 4.12131150838841 1.5406818613924635 0.1025530775735782 -1.0699992904618025 0.19386940589107257
Ni 5.264740625890718 3.0470876401345017 0.4863265387582786 0.66021995393985 -0.9827429911462945 -0.09386891953601899
Ni 1.6146778963389616 1.2872609344034682 7.1226995090883145 -0.9198376098713255 0.013720434909886049 -0.8629372971398558
Ni 6.961703491422053 0.643873118557936 9.139829563507575 -1.152358666696325 0.06154938146770691 -0.3370909077182904
Ni 2.9759880866183552 1.716086318139078 8.94207051230223 -0.48094747202634597 -0.4534047865213869 2.2273404979743834
Ni 6.265348222101329 2.072395930405987 2.7341133951661103 0.42904486961978366 -0.18094498451992064 -0.4607645693205677
Ni 4.083768201900945 6.861864636015213 10.402402301004377 -0.30932376490735114 1.1864059860890213 -0.6879439022176798
Ni 7.925309010935984 7.148184215837086 0.25956298306475584 0.2555375723248308 0.5943032966423829 0.6234745188897005
Ni 7.473742955490883 3.801101923166873 8.154903198435314 1.097447359370426 -0.037254256365768096 -0.45818960950454
Ni 3.14733241788443 8.44019895190295 12.240573823050868 0.10968094686761111 -0.043869961910072836 0.32504323252513695
Ni 0.18791859155921917 4.858358237479667 10.359283425622174 -1.4056398388868114 -0.1967978923917772 -0.3836659272643521
Ni 8.576327264781936 2.2343499248019385 5.693050037225779 0.7311196662742053 0.3813046261210272 0.0012894082353848762
Ni 3.639346379694209 2.604298527796634 11.464535997781798 -1.0083941160554954 0.4504300201637791 -0.6117222634497788
Ni 1.2466506591015536 3.6974744592245377 12.681533578695882 -0.1738705941716425 -1.274951693639914 0.009808758560305688
Ni 2.9396896086496964 8.33319782226472 8.002455003264853 0.17591153586107122 -0.14253398884189003 -0.19579799037235313
Ni 5.557058835893793 7.8625804781839825 3.572756172384955 -1.1444661513221257 0.2274122748435245 0.6342978347574496
Ni 2.797319112183655 8.053246712981087 3.486743031983723 1.3005236285717474 0.910946992249915 -0.3901307090530894
Ni 3.5875687297090937 4.109440534977189 9.104657745553402 -1.9147663444505343 1.2182514127343922 0.5623524547673993
Ni 7.282391162958784 6.145438761952873 11.40523074345651 0.1440285711095455 -0.9360031638875945 -0.6020225196635116
Ni 0.5487564930756975 9.043318369264414 0.34773923852982574 -0.7435463220733324 -0.425296458320945 -0.6299071618889216
Ni 4.654982123095622 0.45679072702548007 1.4949876342557735 -1.2425079712889118 -0.6997995160046852 0.9455571261246167
Ni 5.903355697031175 5.537763993852301 0.3307410149005659 -0.18045416092643116 0.40946463349501094 0.060527625071411885
Ni 7.917560404431243 8.871793628068078 11.303479542788898 -0.3747182311527611 0.6957163470742469 0.5876760211338524
Ni 0.0935326262945406 4.668936831201368 5.738519653999293 -0.20220029435427112 0.0970887120248973 0.05661414894961863
Ni 7.994117358337807 8.80112705838456 2.3923818073140004 -0.8001000500986608 0.44984972218027686 -0.07063540292937512
P 8.611155401818962 1.658282976483221 3.5818795025582904 -1.4771604726346172 -0.6602402656548242 -0.02253854742214828
P 1.9594232320760943 3.2033136192446436 1.6976709745076122 -1.032588453913512 0.20764229130544884 -0.919808556405603
P 4.856012908386264 1.0135429882103772 8.157002267973908 0.17015072211789406 -0.4149475109864531 -0.04508943613947073
P 8.550916526104572 1.7794102036609438 12.543687763280804 -1.0197434796300437 -0.7689740181178175 -1.2172204003667166
P 6.153800762220504 7.733713664998032 1.530330841643697 1.364973728626017 0.11905853142776915 -1.2936320436582367
P 1.936411945471211 3.2037466030772714 6.014911275358863 -0.9069198733683929 0.20508018700522745 -0.3223065503202643
P 6.937447376298364 3.8395472793056467 5.803831656952642 -0.4409241375558729 -0.24524287526704217 1.1040018726594922
P 2.4151657774067536 8.745398430926713 10.124794716714844 0.47347147536427486 -0.7771964060276099 0.36961844803235056
