# total energy = -340861.7167706215 ev
CRYSTAL
PRIMVEC
9.34443680653723 0.00000000000000 0.00000000000000
0.00000000000000 9.34443680653723 0.00000000000000
0.00000000000000 0.00000000000000 13.67652781651822
PRIMCOORD
 96 1
Ni 3.2655441831051726 6.091339181009783 13.53552290488156 1.2399332685832 -0.8184908939010226 -0.03970323212689292
Ni 7.580197604876991 0.9800164746340715 5.327623051986208 0.7870691850566316 -2.088945728111847 -1.0782270776882332
Ni 4.061372468417351 3.4123265928189515 10.101852684482571 1.66303246214251 -0.46487242084135416 -1.8743051511116946
Ni 5.863493784011369 2.0666342817111523 1.2349672788044197 -0.9988344973915183 -1.5517407191443535 0.02900178654898876
Ni 5.5651726463673405 8.995674168323886 10.40767366692137 1.3274333084783978 2.013436027809307 1.0889915152935892
Ni 8.833071627489312 6.956708763310116 7.260321655386339 -0.7337704736334911 -0.35083036879157 -0.7924936985063126
Ni 1.7541002560371612 5.274196235870947 3.5663593508709606 -2.3124303857661914 1.3798347048982493 0.09909417249070032
Ni 3.983514622877804 4.953046639675176 2.852266852276787 -0.08742007858688171 -0.7499915634780439 -0.4345693989824387
Ni 3.4855495978174984 2.525745139494281 0.304454825811594 -1.0116391053553544 -1.0204962986356683 0.8785968580539836
Ni 2.980763134057736 8.688569260299735 6.157569744119558 1.472988600645115 0.3866386367394309 -1.2345277812969124
Ni 7.256711899537572 5.769694329675558 3.7155161819183453 1.1117768886192207 1.0508204035405064 -0.6539024963622544
Ni 8.684139997363376 4.162544683210519 9.730931815759522 -0.14878922572298245 0.6468461037361053 -1.512086595087841
Ni 6.490580233659465 8.804599129246514 0.9404240968675015 -1.379759885796256 1.0276329096804497 -1.6861047705809413
Ni 4.344882674090642 1.9410357097119861 7.554175217904051 0.09567974749251264 -0.2523537752802106 0.3456503672525273
Ni 1.9957380414196804 5.863886250347502 6.019067439654529 0.6926749891447619 0.6103966026598197 -0.8589153204646562
Ni 0.8661255472192186 4.403042447330937 7.412226685230312 -0.1791830075234914 -0.08492508007916987 1.6485574084547867
Ni 1.6122703977079191 7.546277300111202 0.21588545262658562 -0.5685884083747821 0.48895285882932565 0.23710739064410127
Ni 0.8890437123620767 6.646679046638117 11.788564601718365 0.05675016030685066 -0.8991083477437741 -0.3931520123779164
Ni 0.5464570442205223 6.679235063664016 2.069231100635233 -1.1792958574068013 0.6914493442677768 1.7103227625880415
Ni 4.843660665132937 7.016186102107429 2.2137652389091635 1.0755847549693798 0.7079267730975098 -0.30813565813652094
Ni 2.609022758247095 6.377577962162856 8.140049898927199 0.9070900803976701 -0.36328504961515495 1.164765267890794
Ni 2.131036138583279 4.437000129843025 1.2717021278664777 -0.9147913056966697 0.2506087675646458 -0.8581727858716769
Ni 9.096865071990202 2.1300082505600733 3.2231606221337703 -0.2619463040646521 -0.6824443125556893 -0.8540307386788453
Ni 9.111442393046575 5.547035094976048 5.41431886563801 -0.343004444989248 0.05436494790412572 -0.4936518069668917
P 1.4520039660169959 5.0807290210304785 9.873645657788721 0.17225388450382592 0.7952324375937143 0.04096435822750364
P 3.868241653293568 1.8893142532715885 2.494078712830285 0.8557330660819328 -0.6848668059542528 -1.0971483400727684
P 2.6443447284990738 1.740821811664658 6.0881471214759 -0.3341410810613471 -0.8742033569719783 -0.5313513784001945
P 2.490525958044623 2.759627042519884 8.45688049653819 -0.8170801295964251 -0.04307471970228711 0.6906587300456815
P 7.694713675098685 0.842279479524503 2.1980637821328672 -0.5219825355907849 0.1492445680928462 -0.5459634718864146
P 4.714772851459513 6.132221091023647 6.914920442948516 -0.7078714943795422 0.0350842452976428 2.0006288487423096
P 2.505962967265858 0.012718712621684782 13.3874462907022 -0.9901649946419784 2.272873449409176 -0.5470831873131545
P 8.348758824264493 6.905828306161432 12.998075766406265 -0.6498152136667583 1.54847079014383 -2.6117121930565084
Ni 9.163874026666642 5.426874985063297 0.3790122163529932 1.4413288076479889 -0.9765062662079635 0.11104183177087973
Ni 0.8266322204803394 2.985678307695975 5.0375988395767655 2.0936351631677166 0.7451113525676071 1.4226487147399822
Ni 8.26022028772018 1.8055787571266195 13.172656940485814 0.9134980408065428 0.3234391212628107 -0.12397910865783808
Ni 2.999311840658313 0.7431424830172823 11.011272875239216 -0.0975733649707997 -0.40708559173987313 0.5212196892828314
Ni 6.772389751876179 2.3293904937522623 10.838333518665824 -0.18437997834339856 -0.8212939105674565 0.09494081244395906
Ni 2.2691282222826823 3.0882989101582057 11.091472436584356 0.13246297775913318 0.9244427127435046 -4.552737728313889
Ni 2.2706326765711924 3.018243669158447 3.0850143407022346 -0.47012415615859676 -0.4286766876470875 0.3514551468597624
Ni 9.065430387353256 6.773184028985019 9.615912080406456 0.573858655634786 -3.4487399694194543 0.11415466636824856
Ni 5.669194914315762 6.374615775768708 12.686934996225546 0.9535987654821705 -0.7548740883813257 0.08084756757568658
Ni 6.0550921115369185 8.596330326871882 6.802567609793842 -0.03374135811650318 -0.46538304192918556 -1.0212920550640863
Ni 0.2918136720134783 2.083239345504212 7.206176252098491 0.9798296741542415 0.3071362703377291 -1.2047230392306543
Ni 3.554034973472724 5.847748408383173 11.010479532574031 -2.115133185140493 -1.5508318341768386 1.192194053525708
Ni 7.088633518870285 8.145283717852632 3.0128706181280536 1.1448795847104607 -0.5311824569224981 2.1111739433824286
Ni 4.81935578560241 2.093957414255276 12.07517061922882 -0.7517764232926085 -0.5765349169153685 -0.32087033209437
Ni 6.571708632000121 5.576600892298074 5.986954348922267 0.4522709300272599 -0.17230042147104518 0.8892203992061007
Ni 0.5631293879569194 9.015960940127338 11.826434799824236 0.7899999855501814 0.39858552468866193 -0.25488579767344494
Ni 7.815901673034641 3.500986607038733 4.99510594869744 0.5838754164408396 1.1243274715907217 1.310492309748685
Ni 2.4852556958165497 0.7477866679948573 4.043068586055029 0.6760273532857518 0.31948502171106913 -0.8165710511704904
Ni 6.018723564388584 3.9799450481063077 3.278181599128658 -0.06676846377480114 -1.2737777279364708 0.621354387222904
Ni 8.42642978107255 0.011507673641616933 7.381563851054428 0.22498386790768996 -0.1509353255317078 -0.6002286609878824
Ni 4.971296324305365 6.837726052405765 9.692828941182942 2.120566697451238 -1.2953629103064142 -2.56703901851885
Ni 5.963105477896579 4.491655739367847 10.777213427918696 -0.5693425129319872 1.5993254109018522 -0.038033300623637724
Ni 0.6570886321581556 0.40282277518872533 5.378650216789113 -0.8266083808018343 0.3545916356062151 0.6776705453161296
Ni 4.775502344757823 3.8583085172147706 5.9425878985097365 0.5741990696933402 -0.23806744056452547 -0.6469867430790276
P 2.6947766526921773 6.6249719204753275 2.062475072991799 0.13246709152419123 0.38259223458419916 -0.3957578254318797
P 7.980531956605901 4.00381073911783 7.4025981777838465 2.1093322621879995 2.968662044482255 0.37303724390591236
P 6.180204772834205 2.3964274817384252 4.719400216451254 -3.673445901075409 -1.4497715390987034 0.24485181047621057
P 8.800113799690706 7.826759908334323 4.958507528409372 -1.1772844834037275 0.0639883299265027 0.388886295123027
P 6.007155151909232 1.265460978678304 9.046626577634193 0.02765478560279108 0.4379516851911103 -1.4579520180269665
P 5.290614410932514 8.087908877284601 4.2357574093288335 1.3164333578234684 0.6097630828408789 0.030951454076191855
P 7.003916856884983 5.925475431810675 9.55371083834765 0.18772266956338637 -0.4237723083669347 -0.052683703546960885
P 0.17018835444583102 3.4406963022594295 0.33289461852638175 1.64331724310177 -2.141401117698086 -0.13444092742111038
Ni 8.020143023245621 4.686748886172294 11.89492765102872 0.9883711359663494 0.7063262613796094 0.7703325890282411
Ni 7.557770957097957 8.570184593336158 11.851600301963286 -0.31436389843441986 -0.12068501128759859 -0.305296646025829
Ni 7.3956449825286885 6.657770892852165 1.15502468946508 -1.5972289333841396 -0.7616396892399335 1.1759156280806586
Ni 1.3367683741790581 8.319538771095727 7.31737971955449 -1.6808926302523826 -0.2900258359096876 1.9301883354325595
Ni 6.902137253714466 2.466108945275199 6.92944543516007 -2.6159995075779525 -2.811972590075589 1.005369984517191
Ni 1.5856013757240177 4.410424552224869 12.541320641083592 -0.9405144214943867 1.7195399103109354 1.8579670760733034
Ni 4.209126699534888 8.722452187319226 8.330741816105013 -0.40832049258823866 0.10804649658798166 0.04732912410326688
Ni 3.996783722813732 6.793050301142614 5.018013834960067 -1.1532981477914588 -1.8331160784678946 -0.3030829262039619
Ni 8.920628998193292 8.874981425526382 0.41589937973121716 -0.7156681076058254 -0.43194121733097224 0.4126761984537731
Ni 1.289429458492147 0.7688051091820997 9.02803955884366 0.3612271386448618 2.13096012487042 -0.45106456842398446
Ni 1.9914676339050894 8.198182573301429 9.766407969214981 0.2870461844560734 -2.4991876060925153 0.8380521038624018
Ni 5.422305555578318 4.120335863203062 8.303101907161011 1.0588309325498086 1.3586547283865247 -0.4193764932920842
Ni 4.701877528986568 0.65002050033313 5.384668033943154 0.4301293609332141 0.9457831260924938 1.0388562892000948
Ni 0.13259194833159504 9.040695663740296 2.7730802278563322 -0.21723327742799362 -0.5179973256907917 1.2887032388980515
Ni 1.31687406871174 1.9326724389777215 12.423716234573993 -2.365986978836409 -2.406950051512332 3.3978501245481225
Ni 6.197548047116658 3.7514175072379485 13.090501588565612 -0.6419309258226751 0.3024283233390985 0.31431299059182644
Ni 7.572488444702948 3.4916047927178373 1.3995050524535917 2.4367874465887387 0.7083911143284382 0.8314690513282454
Ni 7.108555857647327 8.080377261405475 8.785910256097319 -0.3989670763977967 -0.8585522806982826 1.2255793138543731
Ni 8.364821910736227 1.6894554438140952 8.983631992910201 -1.7507518171373653 0.19864445868221273 1.407116680542654
Ni 1.1777727858622804 1.0871597843984075 1.3303141718369837 1.3299961841095675 1.320638139933435 -0.959545984204541
Ni 1.4365202346128876 7.783607300232831 4.329673669121827 1.472845390199031 -1.2282915705792137 -0.5812737171519345
Ni 3.432024665118203 9.166864246370514 1.807831700784755 -0.258241087298923 -0.30381569060492836 -0.519147637245151
Ni 5.489959276378405 0.5923279489215644 3.2871943082048576 0.6669891543428835 1.5243972941343942 -1.9819662393357995
Ni 4.2904793643533345 8.196332374859658 13.153399925592884 0.38424622524785434 1.1561734124567251 -0.1649655783725288
P 3.8385450338594964 8.048260432898584 10.937488269602536 -1.9021368286119822 -0.14407253697360348 1.1333633565407448
P 5.905758670638274 4.862573804759923 1.324071153761495 -0.5305430235662864 1.663591934190406 -0.25125925666445115
P 9.03235108187918 4.277649452936412 3.5353554447601034 0.8431220621861415 1.5349359888821887 -1.6729785176116283
P 8.875327169679643 2.4232460147075203 11.002533958154652 1.9692937860744535 -0.16366125773880846 0.5470446207657353
P 3.9089553634490897 4.147388007086522 12.6678013278954 0.534861448435982 0.37551193069865 -1.0528564601339288
P 6.468303096865624 0.8664600780485892 12.8094629863663 -2.367384116294252 -0.5098620981781671 0.03418590185308951
P 3.0366054870275314 4.320390905828622 4.810704706221646 0.5741635884697143 -0.96391865935094 1.1292997279943324
P 9.037668066290127 8.724395830126742 9.712522341263906 0.0982945594075404 3.4585780385557983 0.4001394994393431
