# total energy = -340893.10083570966 ev
CRYSTAL
PRIMVEC
9.06728363254899 0.00000000000000 0.00000000000000

0.00000000000000 9.06728363254899 0.00000000000000

0.00000000000000 0.00000000000000 13.27088613131460

PRIMCOORD
 96 1
Ni 6.407006144685384 2.043666009457158 11.365797521726007 0.24390744428507027 -0.48344118498247707 0.028587324719389476
Ni 4.655587756677426 0.28482604972768405 5.806623207259874 -1.1185527738904737 0.21496659288100395 0.48311902575636795
Ni 2.760072095855385 1.610812019424522 4.7401746330069 0.6080139613602561 -1.0314502265440106 0.419462111027355
Ni 3.367208346192544 4.637172103450306 5.046931721858384 -0.08167366302140773 -0.37786500431185893 -0.3969083940965551
Ni 4.928766880471955 4.63076153386312 2.459373765982908 0.6978403353957852 0.9832713528459389 0.4429216276018759
Ni 7.30911020158653 6.2157045928459995 2.8082656155340993 0.0950714244845524 -0.5710646378294165 -1.465460667699186
Ni 5.386111603821407 4.181078665253656 11.912796826273786 -0.17359882856749456 1.2822626254790304 -0.5185354575824489
Ni 5.740606127980692 7.811337979329998 12.297042015033515 -0.3693281704854413 -0.237844525920442 -0.1344167590513943
Ni 1.6317755793758282 6.6752345315709976 0.38667340733886546 -0.46719978342295015 0.32794960753865454 1.3847110591539442
Ni 2.816588475256982 1.9203600182037788 0.1843378779455254 0.8088960511237359 -2.545535340119119 0.47169767129330376
Ni 0.5049035331680487 9.001709120129037 4.775713851531617 -0.9892522530197222 -0.10675503147006775 0.6733150965609114
Ni 8.645092851580218 2.1804913207310377 1.4400242902641314 0.37705099305099576 0.8186037653298031 -0.10653057416408751
Ni 6.992897749276041 0.4069043307659219 4.971154618387338 0.1597575518090281 1.279824191240867 -1.867675304500003
Ni 0.7361945263799446 7.61218415979259 2.6656435897806046 1.194461766513962 -1.8557952652329655 -0.23571745227511015
Ni 7.846655049403674 3.8892481388553906 3.696433257363812 -0.3096708638341247 -0.127402018296458 -0.1556414727581255
Ni 7.553119873666808 3.94903780767845 12.849894251219947 0.9783464047404958 -0.6414616994957405 -0.3995350330861248
Ni 7.676353326650459 8.68574148447888 7.095942895066101 1.0551699387584539 0.3425056509759585 -0.10199026309157275
Ni 6.745025414332765 0.5685114351638999 0.30117980263779465 0.01845332160918112 0.46063498572123895 -0.10795702219796889
Ni 2.0399393558498975 6.549888401481527 9.294902459269814 -0.21592869968395714 0.46441245048580015 0.511781426688067
Ni -0.015253891395364356 4.76138482307528 1.424828429484549 0.24197808847284133 0.23293114777922463 0.34588562319178495
Ni 6.412800138979884 1.9136411609702502 6.823610655570643 -0.1469899677307146 -0.174677406343654 0.6367743213224002
Ni 3.440000499864294 4.220222129055468 0.5197104074762161 0.07478670609358733 0.41699822286789473 -0.3612361375059262
Ni 5.885428783492051 5.685939474457151 4.799309643945667 0.325900952539742 -0.23986335612268364 0.20934667559106526
Ni 5.445284697351781 2.8841488062246214 9.20918579938933 0.039802476708918545 -0.6286439789057819 -0.601125718880855
P 0.07193801554570631 5.627020264870826 12.482104368947946 0.3570490960077722 -0.45170657288335747 0.5332370254586817
P 4.112176376296054 5.851580613380362 12.640572379723459 1.0147241720385813 1.3359642287675444 0.3484940073489095
P 2.4631276214413167 8.852715514108336 1.1643679845584007 -1.4382668808932133 -0.9892620232117348 0.44010395564742266
P 6.093396002801375 7.734247933176882 5.845374057676786 1.2534768115955897 -1.507623931330797 0.05985553870505176
P 4.736903157042181 0.758765715734091 12.481148677244283 0.4088719942163346 1.32541087873173 0.4858413097835374
P 4.038513763387572 6.2000725957196785 8.274636281167352 -0.32023886915795813 0.05184963768143974 0.1489154668882016
P 4.707135264602674 1.024013686462268 3.6946016660531873 0.40176443663727573 0.45988268093624673 -0.11507152175556311
P 0.34168245226862926 5.513543209165549 3.607185797204332 -0.11711246344499186 0.8014357381909487 -0.39587609617729885
Ni 1.4076867296195215 0.9491541921032784 2.831768014925875 -0.48843066777726846 1.335537939863403 -2.116687159891174
Ni 1.760730488384252 6.680901583893474 4.882902745979871 0.4947375838319028 -0.004986911691630121 -0.19326751064101555
Ni 6.142631353379054 5.579970129668694 8.955326337008401 0.21082068903343046 1.3040326701662703 2.0392046521329785
Ni 8.733217782015661 2.2948025665381815 10.256749035118697 -1.069110717209262 0.9071749268019925 0.23718812328336572
Ni 2.3702151652038452 5.188762173743474 7.26991052062568 0.4737913205975389 -0.630767710117004 -0.36927597709126725
Ni 0.3839369011133879 0.2301621163892586 9.295380305121643 0.9239536889222282 -0.1995011502555532 -0.8516370416356881
Ni 1.3687790151943247 1.2269122941743693 11.561901107021365 0.37809691781700694 -0.5410254111548488 -0.4183133421348925
Ni 3.8521992175919664 6.923505826997777 1.539701846882083 0.6560372833170702 -0.19979785556036558 -0.18880536110460389
Ni 5.563549278859085 8.009303984700617 7.994448147060384 -1.3236234478140043 -0.4004670579820909 0.32795757795845454
Ni 5.047122134816418 2.8770128539401587 4.948236152066871 -0.18091670238514648 -0.3450124765582122 -0.6899794445904698
Ni 0.7148156848344475 7.645669638555642 7.315191628774827 1.045528816124264 0.3433679989762538 -1.3119688942942114
Ni 5.236111529308233 4.667837656977691 7.130818388422809 -0.6193062464446237 -0.8986447778437942 -1.334145944611883
Ni 8.30715518748628 7.216433494725675 9.13559844493569 -0.4781310856234733 -0.6498144423358099 0.9041793345087783
Ni 4.756742373812707 0.3839341809282731 10.237201784883824 -0.6768076830952021 -0.9306838085572101 0.015368512036270305
Ni 8.057106704451174 7.102992708155263 4.7961642032246 0.6322088134389048 0.2906583272873639 0.6090084640630414
Ni 7.389011105691596 6.170576721791652 6.973877308225066 0.3117202901639857 -0.4629366372712221 -0.27002265331488334
Ni 2.3850401740794442 5.097835452639799 2.527029303429565 -0.8124146057999556 0.9006569231778168 0.5823538375899906
Ni 2.217812260505941 5.445411639323805 11.723208991056717 -0.048967431037638245 -1.3851928838863692 -1.3692911250544482
Ni 1.2887058326986565 3.214406481011137 3.729477159409895 -1.2195996992321705 0.8287927900476629 0.19414965613565272
Ni 3.5930562489897473 2.8032414336270843 2.7474984935264595 -0.03224446185600253 -0.9615565868766666 -0.12699321289381355
Ni 0.9232036261081927 3.0497355414455356 8.36802386307154 1.220010561517344 1.9013693543183383 -0.34148492302092803
Ni 3.628989894356108 2.8459664744967013 7.065353506721929 0.16572302536384362 -0.22216208218817865 0.4911038437340574
Ni 4.0275604846586885 6.812649216286416 6.067873412597683 -0.26669847403765684 0.9522926450762373 0.3106514825798392
Ni 0.9338032807721532 7.484308257546366 11.445502572502807 -0.32865460402547914 0.06838414500135319 -0.12394131344136719
P 0.36540881356818933 5.629794853687909 7.947602025741861 -0.7948182328744311 -0.6610208525745906 0.9246681984907494
P 8.461144866834479 1.6590499687934444 7.895554003755491 -0.6733477495710597 -0.8963133014971403 -0.40078150389871625
P 1.9724062267334057 3.339507794440277 10.526109019012063 -1.4855468969260996 -0.07542691078074751 0.5643592007847829
P 4.036673104793231 6.318781474129064 3.778208369012966 -1.637959321223966 -0.8336830282604287 -0.9079513999567008
P 7.047519066381002 4.012055429504392 10.18249886222542 0.09639991348798882 -0.15863732216165582 1.1005954180811046
P 6.322707607978077 7.751357897548905 10.188895830887033 0.47377872219204853 -1.0076225279967936 -0.275534584272048
P 2.315004474657347 8.599711096581823 5.775662060283348 1.1057805618264698 -0.1489892575489305 1.0099637745354606
P 6.80412596959341 3.9187440127834177 1.6409580175949836 0.6619137967025052 0.6135855419107625 0.05999155006228379
Ni 5.2447798525406935 2.620290850090101 0.7179375506178534 -0.31857639385387065 -0.004149503391999305 -1.1670121549434418
Ni 1.4886666404867859 1.2580402791712701 6.8813257298794905 -0.4795948146531934 -0.8016547961802903 0.7060328985089067
Ni 6.964199796315019 0.5044791842901416 9.191349545591658 -0.14580083251861983 1.5315765854916528 -0.12994561065391813
Ni 2.7438416580038116 1.6492119659616247 9.324576051958672 0.1587010855200557 0.0407157325518073 -0.12833995672969511
Ni 6.523022039831129 1.9453585194086882 2.5536372474940583 -0.3637761303189606 -0.7797657094166829 1.7628874240586347
Ni 4.308637212569822 6.456921541541759 10.48557916753008 0.4681847730440388 0.7680013697919033 0.3938582944163217
Ni 8.11061274565907 7.5147380616971375 0.035673414323712765 -0.5357435939306192 -1.7823874417647756 0.6593753465513676
Ni 7.59513766640658 3.7185383883349576 7.987003000401206 0.46749366051428515 0.9503270367094344 -0.22611721018118475
Ni 3.3321451600629155 8.017319463505528 12.526748047051862 -0.5774774833342957 0.4895681238158214 -0.7937717938877878
Ni 0.12408124401109406 4.827938685550448 10.196353671743411 0.25783305322722694 0.022290435967084188 -0.17878602919538888
Ni 8.708717981415129 2.638425417522027 5.702606048655463 -0.6833709381350166 -1.243357977994033 0.5132150738107999
Ni 3.9111818981643047 2.5293641289864257 11.398483266065309 -0.6272998061730616 -0.33378241217034776 -0.3798164716112749
Ni 0.9951525223943583 3.2447093431898852 12.751875100793646 -0.7104600810423248 1.4678088562163882 -0.6520734135733157
Ni 3.018018183007097 8.615578843084759 8.06762384683332 0.237172696664398 -0.7744844064130856 -0.27213250056903454
Ni 5.540055946751025 7.849792329569397 3.572934132967282 0.012962473697938967 1.1366718520886874 -0.0817659656248979
Ni 2.956532932129153 8.481899879260318 3.497542389054166 1.4856168309320865 -1.0830095866785412 0.19506625441265116
Ni 3.620448513095671 4.247269836380185 9.566609962917243 -0.22690036820411244 0.9285875881498137 -0.6110756310047153
Ni 7.286278781189737 6.0085262272199635 11.40874199086155 -0.3365059817490979 -0.018314739148787812 -1.1437639830487785
Ni 0.38518727953781917 0.14700152378830503 0.30981185673539136 1.6783001869348582 0.942672348377654 0.13294223138839684
Ni 4.541149568898258 0.29953771755683384 1.5603507720884453 0.5907037522165828 -0.04312974130993862 -0.0472591900972799
Ni 6.295297209304721 5.800676882598946 0.3910982417922554 -1.1561821542074733 0.06098476721348852 0.7134027086104164
Ni 8.076546960738197 8.759630779480261 11.228523379908186 -0.9589314905489937 1.0560855085941876 0.6530105806756044
Ni 0.41101997084459746 4.8922801307989205 5.836110920632557 -0.6883845892995242 0.14516782692031127 -0.41828351733822156
Ni 8.074869513250745 8.920439056182863 2.3456029302852355 -1.5332987103890818 0.3949037049617005 0.318540912630245
P 8.52265731956357 1.5730739845986843 3.7024176646163474 -0.46397947671343964 0.4328310761350933 -0.1959535421136109
P 1.7698159066676469 3.138504249024812 1.5498934737788252 -0.9317202202415242 0.47464775506056317 0.6438337992723429
P 4.631595723964988 1.134462269406412 8.05136711385897 0.3881100790786348 -0.25078411680024554 0.13592034018011429
P 8.258618017754733 1.8731557391784759 12.44734856373629 1.100288428363647 -1.558731805750206 0.16905748905371532
P 6.3040108689557615 7.716748075605074 1.4547015024151606 0.371584827730102 0.33064515209294665 -0.013829706794240698
P 1.847223307750822 3.166413348302546 5.925185195673062 -0.17229450793377424 1.2391246566389755 0.4677775103032911
P 6.7632959910204296 3.8976625781438043 5.6940592270247965 1.037855615849722 0.04633025052510731 0.824765928276457
P 2.23423311131555 8.728965225952875 10.301936750245568 1.3340546704496572 -0.4455102142646586 -0.5907929694962792
