# total energy = -340861.6693602274 ev
CRYSTAL
PRIMVEC
9.36118910145039 0.00000000000000 0.00000000000000
0.00000000000000 9.36118910145039 0.00000000000000
0.00000000000000 0.00000000000000 13.70104649347116
PRIMCOORD
 96 1
Ni 8.180443742077331 6.327602272905922 2.374473146439633 0.5649251005905819 -0.6498648359577711 0.9124444027310481
Ni 2.4944292979404628 6.667357276150067 4.191342373616051 -0.525717834263501 -0.18929541336714495 0.7037397315993558
Ni 4.4370352109898725 6.888197092139834 13.240993133719119 -1.1989753381135997 -0.5945256970658341 0.5581384166860516
Ni 0.503141456228716 0.9656534788022758 12.513796292987536 -1.6950321549775582 -0.3280771342554543 -1.6012030875405392
Ni 6.004154461364297 9.052522772970079 0.28015231118332323 1.4966188384695451 -1.8807884448431933 1.3576183167022102
Ni 7.843993238644318 3.9227689174366582 3.843513344629411 1.1208235722025213 0.6231983824101782 -0.47603615076765754
Ni 2.2992297793520757 4.811145778842659 0.020293186092264784 1.4352203807574055 -0.7927780625159507 -1.0021597051100095
Ni 1.3598531588213136 4.222027415913234 9.706519794231015 -1.4199315729191353 0.9296538246307989 2.066401010042112
Ni 7.849834620746714 5.386390859278895 11.06110166737627 0.9926257974776455 -0.9096138752607883 0.7422286317031733
Ni 7.594648601337571 7.384106093541129 13.61704521222581 1.636712850411375 0.9668047226494834 -0.6777643905815166
Ni 1.9399660576762119 9.09508810056558 10.414370801224116 0.6228767374047015 1.2970428691119986 -0.547415888062225
Ni 9.19844499125877 5.740908457996562 6.357230436934899 0.03811197638037307 -0.058921456926556585 -1.053444985647547
Ni 5.07650741098466 9.0674819534182 12.008295817063622 -2.6238172038501584 -1.2074779762679722 -2.561943349163497
Ni 7.220547394674052 7.475237271052061 10.2509721786935 0.21575746421341555 -0.9709868790516311 -0.06960927565770593
Ni 3.7488754656191885 1.3601339944993134 3.1185641254407543 2.2574368031391314 -0.9110881458134696 -0.8813952467347271
Ni 5.942979089506677 6.777379333601118 1.624779495662415 -0.5341675076927509 0.9253621392339805 0.2724919407909823
Ni 5.172160042911388 5.06218479140667 4.414120891902943 0.19337086898809924 0.026846944989515054 0.20321253766886935
Ni 0.6480217741520274 0.7630398983146944 7.849288863412467 -0.22505971545094786 -1.1669792448229772 -2.1681729864752914
Ni 3.048171726631181 0.9625362027764782 8.159740535895187 1.3387230224596043 2.451028015668153 -0.39912391369063516
Ni 2.1026448047522233 9.21988211467942 3.806123818579446 -1.1716866776009756 0.31610222128176524 0.35942119578437454
Ni 3.875195353583494 1.6547118983425593 5.347450184167443 -0.7769614071986684 -2.3966697526322465 -0.5454569645636412
Ni 7.451356877232812 1.6165182461345877 6.008018760293574 -0.5612849327348334 -0.22383098525016937 0.12252463559949868
Ni 0.9737696298964698 1.7913852616357901 9.574373502067141 1.3970916922064842 1.6908255730953785 2.785045683777758
Ni 0.11762427925450512 3.954213152183368 12.501945027375946 0.8574485061111426 0.8383889183765303 0.6342716095052044
P 7.751560855825321 9.270956763318315 7.264390524604452 -0.0484894629599552 0.10997559528989446 0.8283821848728056
P 0.6679011956787059 4.095660722002595 3.3953389195366674 -0.1463803591711737 1.8778082791689465 0.23609334755729017
P 2.0398686695300037 3.2350678703400404 11.679991420530454 -0.1880420005760181 0.06968383764938321 -0.24409796302932155
P 0.8605731931650946 7.577910794928783 5.461100638578252 1.57860283364252 0.2674348379830491 0.4328776131023125
P 8.515134341928215 0.0758406109627698 0.2686764292613252 -0.2783671686248367 -0.059833941438496956 0.2712922640559263
P 7.927354629063922 1.1850423104557115 11.263439092780487 -0.28907169952653444 -0.3947011020325912 -0.5062337573969604
P 0.5125419624902957 5.941893191551745 13.53973021395354 -1.535640214038065 0.5165986455710523 -0.2009365971504991
P 2.2802640098978233 2.4019313867965986 2.064378135267972 -0.585401623277379 -0.45252161258548523 -1.1475463329093463
Ni 6.650975194933412 9.138392962113146 4.306252844102151 -0.11400117150951979 1.5340880390595968 1.2501600885175308
Ni 3.26275826819082 2.842721705795802 9.767325399112602 0.5092769150986584 0.4262709064190724 -0.09775128530956068
Ni 2.788080444046309 8.89473992788053 5.975560708749286 -0.1141397539699131 -0.8345435764885112 1.206146144830426
Ni 6.285916897101486 1.5023772654062066 1.6360007532363599 0.7974353587823041 2.2742230214585346 0.10456316602507154
Ni 3.5318924596072847 7.9317169432621855 2.4948645932413624 1.512684890793472 1.3339376852558187 -0.4966548554592736
Ni 6.2689544221502995 2.425193942124248 10.48538384688207 0.859350865340178 0.04910138551234124 2.320662543867997
Ni 8.459388459845256 7.760875239145647 4.398817219689808 -0.041653156764412134 -0.5832303266576729 -0.5782040770876753
Ni 5.076104879846193 7.371552738734539 4.764525184056841 -0.05682317963663117 0.8753315570391506 -0.39671376158724575
Ni 5.876945260419659 5.025985072512498 12.36281060742451 -0.8042510961525567 -0.3431129455426542 -0.5294104526237399
Ni 5.418583989166937 3.7250231553677398 8.82829701482256 0.014373238002536535 1.1644981302723365 0.7201109738685275
Ni 1.8463541650096154 2.443129980759168 4.171557500100965 -0.3398365887842276 0.450585829015353 0.28115630133419967
Ni 2.2236007312667323 3.749306080325455 7.751339931758627 0.29004640473497784 -0.6321807884144467 -2.125578805953849
Ni 5.276471774909776 2.3668924553714916 6.741380880276178 1.3315853829735582 0.560678409499086 2.086731751179664
Ni 2.640070680551154 7.000746670692883 11.03282245072062 -0.0878391684021713 -1.555008591262348 0.977273483391291
Ni 4.1985682756109854 2.725594505691356 1.0934627319789068 0.673252361643776 -0.297530628927165 -1.1179848172021454
Ni 5.248182260945931 5.904691825406038 10.152215376405946 0.06816791522548905 0.22535282121133446 1.3427411424800617
Ni 5.915092106681298 2.748426446312739 4.138962775193383 -1.2249018281713744 -1.3876212908222036 0.3782362716083486
Ni 6.895817100202896 4.126243727336773 6.228112489498789 0.933564986759747 0.4045952212178516 -0.30953253848404755
Ni 7.385781746419862 5.243960364586668 0.30545092517647093 0.48321389946301935 -1.3126612923755459 0.17183942267422664
Ni 7.060386807510772 5.503106167055607 8.824186516615569 2.013196400994675 -1.1646359414017813 -2.0445558891425626
Ni 0.054315492363012606 7.788369052021826 7.478031586048159 0.2702607374676184 0.5559450085791586 0.7275126656492373
Ni 5.653793230681027 1.5928344372899388 12.745316289811635 3.241557905579875 3.086803206302078 2.2607345000537973
Ni 5.40957852509241 9.080138281306724 6.467085865217004 0.47633542717563127 0.46932608573733364 0.8144403779807329
Ni 7.622058163510351 8.636211963903191 2.0856280349032894 0.6775342768485815 0.5165389959777104 0.6004847428627464
P 8.4022664829401 1.2410409446488693 4.097256804772561 -0.6021035094130921 0.3101359763960014 -1.0452696489256061
P 3.660421588238522 6.249174229229847 5.904439073295839 0.6224005690992314 -0.9435786622420073 0.4431301440682562
P 6.030852573152811 7.357464148888217 12.0454260381709 2.700881393124013 -2.529281854374734 -0.5844076347952257
P 7.121019230390927 5.887074067206186 4.575477839054503 0.6842289152599378 0.7191619796916969 -0.2455578354042997
P 1.0792327881746573 7.847915576947049 2.4988384180850596 -0.9483244044571085 -2.546562752942369 0.6575022978983709
P 8.736638802355914 4.103262007687123 7.5422484082985175 -0.5273677111620982 -1.084474858370158 2.0925074773211767
P 3.922169801323592 6.097897410680628 1.5769634770072443 -0.7481786786390212 -2.3104046135854146 -0.4384903313033997
P 2.1559942223829163 9.00450923322138 12.57979454955534 2.240731831679625 -0.1243118094069085 0.5652421176103685
Ni 6.108194718873953 9.285017269596837 9.747130505507636 0.5598122048440488 2.3711741794643038 -0.7019317318563395
Ni 3.894619821311813 1.5165313835773961 11.577782211641358 -3.3432319229826097 -1.3801321815340104 -1.8021242580720704
Ni 8.785747601248811 3.0041366923208135 10.604719351534522 -1.1081110097318592 0.9724050995553963 0.2918934852460457
Ni 1.615713183857655 6.254229271433843 8.49970429365998 0.42281174422587825 0.4921693088840944 0.61172483455294
Ni 2.242098441257652 7.368753743143808 0.3724639346607807 -0.6990911770837508 0.4089146745288119 -0.26069160572194455
Ni 9.069859695491932 9.018373154525303 9.790466258979786 -1.6110074752254708 0.7361929670320546 0.09853187222932708
Ni 1.294596308443429 0.1737698841191497 1.402261218437135 -0.17645018197336063 1.8023381738550897 -1.3652244111842422
Ni 3.826563975343197 0.28491153980649303 0.3703408169351023 -1.755163830162132 0.12779334019760571 -0.09393628243884466
Ni 4.06226935988842 3.4622358502740704 12.539280258528164 0.21751352767257376 1.6215849936310012 0.1800075603073158
Ni 4.173864097136271 8.130239684040236 9.724687990359747 -0.21638789870856284 0.09310761588996223 -0.7455458690018644
Ni 8.337636832243081 2.307533154231603 0.1574130781135153 -1.140301735531791 -0.4553505973938481 -0.29386012205411327
Ni 1.6791914082748742 5.640547147868704 2.0583223819313696 -0.5221321737947717 0.975709738448597 1.5689162024823755
Ni 0.4313589208130432 0.561278186050379 5.594178369074158 -1.0421465299155923 -1.4832010224017422 -1.4773967570151394
Ni 1.8937685886452467 2.2294421133691285 13.654161391549188 1.112917172871251 1.038157206250541 0.6487080966455085
Ni 3.680875786786173 4.122040553356042 2.8203194437617585 -0.6692872063484409 0.8051617808922843 0.4596281417232794
Ni 0.3481660318002389 7.869109309446765 11.979414675938123 -0.5874965581331946 -1.1261748092121056 0.8525952917838994
Ni 7.2157638269587885 7.053796530267044 6.584846817834802 -1.325704241602433 0.5494372893676279 -0.1583071925157467
Ni 9.167375204082726 4.255624724191275 1.2702581524690408 0.764086093897897 1.2745387744722114 -0.14895094811182732
Ni 3.6216943482423507 3.851567711874445 5.615291595346182 -1.0244696814611194 0.8300071220707382 0.17869141259905352
Ni 7.988960615627809 2.112286829696883 8.603093012396675 -0.35459266404747963 -0.13257430652601682 -1.1812635226561332
Ni 0.03817399371051137 2.326133837304456 2.379556272211429 -0.2837037503464017 -2.4721128613629104 0.4547350752970363
Ni 9.155617550363802 3.2452715666407 5.621840683357138 2.032659651925609 -0.5485469163428746 0.029024926477440337
Ni 5.025348511642364 5.052804879761478 7.191363887135241 -0.9236793522149188 2.2155756441289713 -0.9473553556756201
Ni 6.19580608922062 4.457143045534657 2.3326445444394173 -0.6523801461804571 -0.2580001749327105 -1.2054925704068271
P 1.9230878334284245 1.8962212202331112 6.244004980516798 0.9547840440395234 1.0603291143618898 2.155833233963016
P 3.3429930213953596 5.2324929077350095 9.842626805573612 -1.5626540236227477 -0.6783850548846511 -0.8706233529302038
P 5.494025813466947 9.236601198709673 2.6118719701231945 -1.947315224920833 -1.7597378226860596 -0.6622372414801949
P 5.7322212743571015 7.137186004254447 8.367064666821753 0.1066457595857131 0.8681350392907115 -0.5037611274867517
P 9.315759415148548 6.835091065430075 10.056060984734527 0.78236329494053 -0.7596311434503369 -0.7047064663879993
P 6.219349480226269 3.3780319528204665 0.2713331347752032 0.03880154624822995 0.410130549213784 -0.04606979777486904
P 2.5356091695244984 8.41243273448369 8.288393232224744 -1.4250421546728231 -2.8187070805859453 -0.20296314066222465
P 5.087347668155452 1.7160744939855133 8.96427952234791 -1.3550251020537374 -1.806543727296005 -1.5525544732949004
