# total energy = -340888.7539062544 ev
CRYSTAL
PRIMVEC
9.09392173712654 0.00000000000000 0.00000000000000
0.00000000000000 9.09392173712654 0.00000000000000
0.00000000000000 0.00000000000000 13.30987368998450
PRIMCOORD
 96 1
Ni 6.83710114278266 2.348114172813185 11.434725007645937 -1.761243717807625 -2.056099113895472 -0.12092001011654013
Ni 4.820560439530492 0.5111102135562005 5.986061964647954 -0.8888275346430563 -0.45042307818524363 -0.48192449122763453
Ni 2.675677223019922 1.7441686622543338 4.530933591995672 -0.13310523932882237 -1.7395742032539911 1.3846298122940475
Ni 3.7271618893206977 4.224508452780066 5.102140075984582 -0.39855132901661683 1.3706162716237749 -1.1543674695962376
Ni 3.970678917594879 2.8416594771113535 3.020076759377485 0.1394916024711404 0.543674932962554 -1.8429045253132261
Ni 5.33701333193168 4.704594753349584 2.5586366353250094 -0.16121742418400622 -0.33251074454677576 -0.4356911712917077
Ni 5.261133651450697 4.7709076284775005 11.3746178245075 -0.798173008279277 -1.1029256088761779 -0.3873348914755071
Ni 5.731898682545982 8.096209129440737 12.40789009434384 -0.6209561233432208 0.26336889544379155 0.2281977468592973
Ni 2.1799675654194437 6.537401867862804 0.11826099195192918 -0.42159406976869324 0.472095935172987 -0.006953548499697702
Ni 3.3042490728336267 1.7853004689196605 0.25079671238552176 -1.1584820059852434 -1.098054911047438 0.49098891542274803
Ni 8.08194986062552 0.23239607174731214 6.685349966349989 -1.1893576125181775 -0.5944501066328923 -0.5372913980337133
Ni 8.682703404759536 2.5758532473919553 1.0339188476506003 0.10831697664054893 0.1957185432846694 1.397811086871012
Ni 6.926585329735306 0.9388746371305923 4.4455644044938465 0.171310289643634 -1.6880323266209574 2.588424940393794
Ni 1.190294283134636 7.477231366744416 2.313921028205263 -0.3720543111673528 0.18022096186970255 -0.4756579414926324
Ni 7.785951811731042 4.062782153921748 3.4345595106912734 0.20316651492228235 -0.7833125462276768 0.12692250755687817
Ni 7.952152319936992 4.01221085680349 12.442508834475072 0.7079200882292904 1.385650540249078 0.3116899511466826
Ni 8.463940030640345 7.135754616737114 9.094076944333578 -1.0010993821662952 0.48915314776558977 0.04940631834726975
Ni 7.1889176814652815 0.6006398701160373 0.4330743643022018 -0.599743750931664 1.790860512232793 -1.181750746705197
Ni 2.0855908487330046 6.681595086188125 8.820891906759162 0.17639901702045105 0.9005887889440426 -0.20416718827265481
Ni 0.5095087739909198 5.089149409210004 1.3094292009367836 -0.7111766474933752 -0.2972529497857462 1.324458799231106
Ni 6.421918159518126 2.1171376622023876 6.71143678938783 1.1804919345974314 -0.36241935918075 2.4722936099151487
Ni 3.658129931682737 4.422310337984029 0.5854857594312926 0.051089619586963626 0.7824208876513429 -0.5233233658893954
Ni 5.962320463949045 5.737536913837714 4.676650042161904 0.359376201479052 0.5378066471072351 0.3513433038722465
Ni 5.332893785520141 2.974885426182111 9.518449335211493 1.088421244612416 -0.6004541467351271 -0.3029769967537169
P 0.32037521470192276 5.749304448178845 12.564933023661444 -0.49172399381655957 0.252212621716656 -1.0348841919262242
P 4.114035495147878 6.240849089760592 12.523472926432195 0.6189540053115276 0.3932905948383098 -0.04373060811873114
P 2.695329187248038 8.760147239727901 1.2348372197314603 0.6502810975595834 -0.39711768189388386 -0.4289546238988225
P 6.3605887533383845 7.997467330463928 5.804302666253256 0.3905305155946694 0.28087219443487754 -0.8428528676851549
P 5.092268624263332 1.1619212482472117 12.334792244430824 0.22216619595323672 0.04722473731491867 0.5005498196383057
P 4.277589672215289 5.844781529359314 8.468713430003296 -1.5638200189063907 -0.3372467165698644 -0.6153542037754112
P 4.886927878187038 1.0698907632918488 3.7731625815240784 -0.7304884604481097 0.40898589408637953 -0.23576476057327786
P 0.26027166913206257 5.85066529652988 3.428636639658523 -0.46844651134585774 -0.7516121298006024 -1.9537676654143965
Ni 0.4508675309883345 0.08210537909762756 4.652944917148746 0.7353625007109593 0.019590777647734002 0.14769470710722307
Ni 1.7232253611819819 6.739959873978986 4.616010864619328 2.2007162105186358 0.7632234887872855 0.5320630597552386
Ni 6.36272582487638 5.737382317173263 8.985761974258692 -0.2756060609399318 0.5265611561004029 0.07264189183644264
Ni 8.772378564062386 2.601843674862551 10.041593535006964 0.9595454699839088 -0.26567800319294244 0.17019108843752626
Ni 2.3851082452240955 5.407145654063673 6.743180940952423 -0.07079635398727162 0.08354208368871419 0.056537272965096176
Ni 0.4862183317953486 0.07125724021390695 9.176837995166904 0.3968351176564585 0.7026297863646286 -0.0915310154314617
Ni 1.6791107482849004 1.2244237702924896 11.571244775061638 -1.8536357956878011 0.6182263831168837 0.7929084174462279
Ni 4.157740881580237 6.938252830940615 1.4968021770353304 0.6047900551063197 0.48905698850735774 -0.06625681424570525
Ni 5.43671908658095 7.619423922353315 7.675285153572218 0.039466176415422355 0.9909520093196481 2.5390818711842917
Ni 5.692894853497212 2.972821106015622 4.825986782452712 -0.9133851693777624 0.7386337152630634 -1.7026559900714031
Ni 0.6006817021546534 7.778876740852063 6.8144018054805775 1.316322543277217 -0.9605890807570746 0.35320144012690785
Ni 5.466210673805281 4.292158134359409 7.2185966034712425 -0.13508781697648994 1.3230287516527988 -0.3875709187457132
Ni 0.8355376796510193 7.283940066573838 11.057736494422166 -0.08860278604107322 0.6707079979553675 0.4625268034273131
Ni 4.501336515282656 0.4695209826425283 10.178246073675664 1.6887969727011238 1.6020803479391699 0.1189369182482403
Ni 8.007543395417539 7.308921068764785 4.53760216458636 0.09167628276007438 0.2091690123626204 0.018295970095710424
Ni 7.521773393949096 6.46443224224207 6.859708631478218 -0.7410580084338397 -0.9236233021660029 -0.4604989743640069
Ni 2.592786129110027 5.044971138862854 2.7897759271295515 -0.31373037861547903 0.5031574324644819 -0.31385919088385944
Ni 2.658553368951646 5.771520898252555 10.903328074145229 -0.23273394416675403 -2.101932113069186 1.039407019497242
Ni 1.0943806937251286 3.248876185195958 3.4832338157975067 -1.0269554239974505 0.20058461312771905 0.4402217121722095
Ni 1.2594626495941708 0.9334546599533792 2.315332404812484 0.5144232351862882 0.9221246061332892 0.11897342791313058
Ni 1.439294946036098 3.565535623598201 7.976819581838319 -2.1991285543165415 -0.4637491058701884 -0.5966049481923661
Ni 3.798567360454049 2.7600324382813795 6.860907210323782 -1.0571273195951407 -1.332806656975169 0.5091529879262844
Ni 4.223990099258084 7.110928211210619 5.823308962059255 -1.6811929351016208 -0.30430368598494045 -1.2294043440274183
Ni 0.8246340678465253 8.975691365657942 0.09152759109982635 -0.06937916192477084 -0.14042799824248076 -0.08148854359379515
P 0.27521389144729547 5.704753327052725 7.647839698671499 1.693077859464665 0.0457473814384438 0.8303087124715571
P 8.491294546326682 1.8139463214502332 7.994268998294085 0.9396500166115623 0.40373467298976917 -0.10333752114808653
P 1.7207790963150855 3.520911751100576 10.748720496988792 0.6638619215678114 -0.48428527815032724 -1.293131192762418
P 4.125939438310582 6.24244052601229 3.6465060813003314 -0.5082068219629313 0.6280734511142926 0.8198715762986332
P 7.132726340898169 4.1472192144761495 10.180975159499292 0.6685140756278423 0.16062581334659434 0.753417044219825
P 6.381604805782243 8.070564270984798 10.123449740657183 0.9171616057010592 -0.584590183119677 -0.661847462240944
P 2.3568443373939307 8.56736519915787 5.705437189944884 0.3864951691830311 0.6229281594679272 -0.3466171020411708
P 7.0151874063084385 4.185777441374444 1.234301587758746 0.8545094780874768 -0.8612961619920071 0.592135856677419
Ni 5.399870516913051 2.947594567945842 0.356569931418409 1.1437207885156688 -0.33077370725101096 -0.395080596859197
Ni 1.484309857155569 1.2497503414980908 7.003296194635747 -1.6405530500930712 1.3511908159093116 -1.1176634293069847
Ni 6.7768084436468845 0.8104448222263817 8.992416905967223 0.5481311689616947 -0.28934912155763715 0.42275646550791063
Ni 2.46346147233629 1.6445083772122564 9.502969662139257 -0.26991800941621896 1.4903546027273882 -2.125092867456366
Ni 6.484102394313062 2.006273665948353 2.4427346065941693 0.6356294090846795 1.4066567101871 -0.7223442340744204
Ni 4.395728805619945 7.291669899796374 10.438507739494144 0.43155195231235355 -2.142437786492717 -1.1530070989136012
Ni 8.138313985699961 7.386383091576028 0.11165425802702096 1.2608671905223898 -0.5301779269173836 -0.4314743049968827
Ni 7.906609961374101 3.9740254806841646 7.931020774690869 0.038578631604146464 -0.03213853240575756 -0.27218572240447314
Ni 3.1805990230373746 8.570811795382976 12.098115663862515 0.3016850174151708 -0.40316208831575084 1.5558483135548238
Ni 0.3327647732694313 5.068160638530459 9.820317510394377 -0.09536530157588738 -0.5288381250600377 0.7268444359376192
Ni 8.71862439444073 2.574534628783405 5.736341972560725 0.266658879048973 0.24298133292637508 -0.48865332531103584
Ni 3.737447114467389 2.6923645688591598 11.363623273488624 0.09224861032377663 0.7587276577994612 -0.05217436801071015
Ni 1.403310298904836 3.690513385924442 12.916100256353372 0.41096230108646004 -0.33955788120154423 -0.6593910302806514
Ni 2.958789185236361 8.963851079945307 7.800331120309246 2.178334500389326 -1.325750778569652 0.5102943006195793
Ni 5.6604295539625635 8.067927033767697 3.599895186968443 0.8062023063416567 -0.9246414590178721 -0.20517506071187894
Ni 3.3376874219621713 8.572466889084742 3.5018945425888512 -1.1835628602132713 -0.427769859562102 0.3072296013824838
Ni 3.320054308293352 3.836443543244472 9.084494679314064 0.6171462626788274 2.367903736243148 0.8339920748604153
Ni 7.067913962807569 6.268449141325763 11.217906823322393 1.813506017546451 0.350358571361474 0.08161581320027879
Ni 8.136977179248534 8.824068413517551 2.509390322560308 -0.024330092104932293 -0.7866668074118903 -0.05565924123551705
Ni 4.9258862376286165 0.3761609663728891 1.6324161898757796 -0.9500203041022929 -0.1989730456662251 -0.8740233797506883
Ni 6.22312503687739 5.798484375317046 0.09351825050266518 -1.1170589629537664 0.44424446017835745 0.7415755715002067
Ni 7.9656931689585875 8.89765642579609 11.399201422331595 0.5434643596136447 -0.27617710295205344 -0.757356231373231
Ni 0.09442946143078053 5.183489750210689 5.386438794948716 -0.261232308716763 -1.694494023085901 1.5513144302402122
Ni 7.3948222506707495 6.160176912681637 2.3577109881069984 -0.06130538377770087 0.8809753855884892 -0.3773664674088856
P 8.5787053191914 1.6319769534703108 3.4466180505184285 0.7078763794755486 1.8421630191615113 -0.8391936736660128
P 2.2218905432499003 3.092842681158002 1.6519817618502326 -0.5375629065275451 0.13831892231927792 -0.2269710735410478
P 4.829399731168498 1.2596536219443746 8.132040089299693 -0.46815597668863246 0.43511575840421196 -0.5939983638074544
P 8.659968601163843 1.555487980252963 12.439713363024948 1.1872446799402327 0.8962737065084564 -0.6388594859862029
P 6.461040209545592 7.941639746754345 1.2648635295363633 -1.0030310519713694 -2.049431729177625 1.581466014122928
P 1.7785891548982122 3.3074228514155855 5.759262292153758 0.33287944074010417 0.5162204362960271 0.33711019099200007
P 7.155133763322082 4.3051351602518295 5.659051824864664 0.4138391084136228 -0.6647229840165261 1.3955251190503126
P 2.573061413510404 8.676701416610273 9.989525378419964 -2.220863117780156 -1.6807967281044665 0.4911894614693283
