# total energy = -340891.2485539527 ev
CRYSTAL
PRIMVEC
9.07208359848821 0.00000000000000 0.00000000000000

0.00000000000000 9.07208359848821 0.00000000000000

0.00000000000000 0.00000000000000 13.27791136664792

PRIMCOORD
 96 1
Ni 6.384877831512057 1.920315099630931 11.368732964991139 0.46697969699234415 0.7769814618033264 1.0655201716445262
Ni 4.798832715114703 0.4567703247524141 5.964185367838818 -0.3424148910343651 -1.0473036486364997 -0.342244684005088
Ni 2.8634216687839773 1.5848022409779583 4.733535487971405 0.2901870440779002 -0.48623905944258833 -0.28475893108379347
Ni 3.6010636941527836 4.306454463200812 4.864893811676346 0.35603093915590295 0.12447841689175983 0.07723413919281537
Ni 5.067647616954638 4.4884223111001536 2.693570495411227 -0.4203535124933728 0.516536167764233 0.36915102147762874
Ni 7.486092669345416 6.292215572142036 2.513681061808114 0.1979068091852398 -0.2084267348799572 -0.015098803314651415
Ni 4.995406617212765 4.684923636531389 11.419056718559911 0.3001181871486831 -0.7674796929604782 -0.7073109938903818
Ni 5.412513793544804 7.9396424045074285 12.691385563768792 -0.365112589742197 0.23660885374112797 -0.219695365815241
Ni 1.7320875142178527 6.514717488463665 0.5578823225576447 0.9147627664515793 0.36223732507693096 -0.542109131137331
Ni 2.774243089421602 1.7026032433198142 0.17373765388127932 -0.837320625013016 -0.661487507798364 -0.09915870718004859
Ni 0.7920019488214365 9.235290132767483 4.81973570236891 -2.193056637090849 0.8881575051592252 -0.27329181098445837
Ni 8.628585486436029 2.2290108798917188 1.5039091953420998 0.28249430341933285 0.8497724776231236 -0.6340967744902369
Ni 7.277035580553292 0.5478413407022757 5.203573734627936 -0.6162810864650548 0.795203898348624 -1.5490521165685969
Ni 0.8636577991870236 7.699849097314519 2.9730441879828846 0.9011976261726351 -0.6817164332507292 -1.2945183029179317
Ni 7.749246591172925 3.7198263373300833 3.7185988844523896 0.04023339359875006 2.1433212175389347 0.19774020170038847
Ni 7.650115936372043 4.015113578394778 12.640292497531664 -0.2826308289971971 -1.0042281576032641 0.8157092173908274
Ni 7.954702062873811 8.580975192998212 7.109511396560649 0.3930715368489682 -0.26107932807866646 1.626108078312335
Ni 6.707698845553843 0.7866249250179695 0.6991165162009263 -0.30779164453354085 0.08604068174085182 -1.5890471689042955
Ni 1.8410250911235904 6.229990152422145 9.219424873399333 0.5738095475644053 1.1254746978212875 0.48058648914250135
Ni 0.17361880958935183 5.007118676821802 1.4084146315491968 -0.916525514778957 -1.5775664219582057 0.8602846900083572
Ni 6.319749345119128 2.0306497773730685 7.0581661264063005 2.1334615511360355 -0.12624090810882133 -0.07084546205765219
Ni 3.4727390751211664 4.492849487776536 0.6069704583737053 0.2735715470084063 -0.1916975950507344 -1.7478834944506347
Ni 6.27118648292922 5.806024481075056 4.56049729171666 -0.5114777794047191 -0.952615832743611 1.0881291672932938
Ni 5.3930632468354505 2.954677755234245 9.089566165072684 0.23861997063388582 -0.5561807787390486 1.8968670955726104
P 0.35347376927572266 5.47984679619257 12.544704491280223 -1.0468915007997452 0.23983275999506434 -0.2835847082700342
P 3.951663427422199 6.224646695327085 12.474915675668733 -0.8210473417742893 0.10400137998433057 1.102957490555378
P 2.4066604161149163 8.310881127405471 1.5538346844516644 0.5905068057144283 0.8144882004995327 -0.4649328417656445
P 6.464984327521189 7.64574319219578 5.728728516488759 -0.4065983676908094 0.8032452805958619 0.9991977942682081
P 4.690484823626927 1.0619055006637586 12.617348291522978 0.37761277909173674 0.17292262843607636 0.9736826807162392
P 4.094893479403194 6.249640284965269 8.126426621459006 -0.5178011505195856 -0.9406409197699218 1.4569955676509683
P 4.702931721987576 1.1036189399219682 3.700141730870217 0.6432051645494085 0.7190925599063422 -0.029141911671278845
P 0.43985723975696384 5.691752519157611 3.630672252592762 -0.7327818844679768 -1.6968398976102583 -0.4219871914420539
Ni 1.452993941938696 1.0061212601246694 2.528087530173063 0.8704904268967654 0.08222053666381324 0.057589882599326625
Ni 1.83274227902208 6.552584364380101 4.981899192308123 1.2579988678356593 -0.9363510341453164 -0.8386761105996459
Ni 6.037671057416754 5.810687531918623 9.361896499211998 -0.6462331527424547 -1.144576708758061 0.3662346191617821
Ni 8.70376584118435 2.2561364091179144 10.16842376069031 -0.08975129782321963 0.32146991335158187 -0.40142710790251507
Ni 2.34497932139622 5.206867808093499 7.091174901687074 0.23851969761059563 -0.8232494916319306 -0.8571821398236334
Ni 0.4736462142061161 8.987368238890069 9.11136910299553 0.6617240492892024 0.5503135213249941 -0.4776546602076871
Ni 1.434450603564668 1.066260100673315 11.382662241771708 -0.20804286917797715 -0.5777150532663985 -0.10735795516138931
Ni 4.090974339394593 6.679176215491249 1.4888785676424472 0.48131693955062266 1.4308811299521034 0.44767971111215155
Ni 5.574704499734075 7.930289086570235 8.193984611773933 -0.378419077043116 0.9075086559923274 -0.3294593593149616
Ni 5.623131280673685 2.765842340236499 4.909507595982587 -0.4333681795854859 0.11753720968723629 -0.7682502525779156
Ni 1.041248366868425 7.401549924576548 6.96857930329303 -0.7915341628065207 0.6942150799383722 0.9212530021616134
Ni 5.103972238701021 4.415074517189186 7.316991757265978 -0.592648020427147 1.3215416255843113 -0.7166052747081143
Ni 8.305583030727178 6.943246417737435 9.243099382117956 -0.29827187796856375 0.4161153060423092 0.13809266524108477
Ni 4.606595268859492 0.24259295211572038 10.663145331734345 -0.38663812251879864 0.23376212832095225 -0.9874082578324479
Ni 8.3632814808538 7.307209329786176 4.651199073874045 -0.4120154249413227 -0.17883873681019524 1.2282692019817105
Ni 6.847445217527192 6.132528760958259 7.224498238646328 1.2240690478574339 0.06014658758290932 -1.7026392779008548
Ni 2.5206420713650566 5.141022627115664 2.613132868359701 -1.258936292048264 0.17659416375039264 1.3080708447913858
Ni 2.2402874794997993 5.028882604786231 11.250586316273523 1.57970660822966 2.1153010781769246 2.4110077665214735
Ni 1.1869732417715617 3.059832273381681 3.613078761345818 -0.09440010944914065 1.2913797572889503 0.12426347266747631
Ni 3.539010644016604 2.5743215885661934 2.1888632822202787 0.3260145952994708 0.7310893272569022 1.8875021094179427
Ni 1.0664596865070863 3.227910761667207 8.122430368741902 -0.4150889216603239 1.2235270593110348 0.3560041996830256
Ni 3.59777959997891 2.683540400055882 7.16769520314667 0.21904616226701631 -0.41296441911815335 -0.2330836141966889
Ni 4.051837371808705 6.912673496837007 6.106949114735457 0.6397783982560465 0.5960452190341541 -0.7416082245103551
Ni 0.5647489824477141 7.291650706835365 11.412311624586774 1.1649817547769743 -0.4684020312611675 0.025629527642646182
P 0.22804042320878382 5.576546132654784 7.953030077911809 -0.2926414191556638 -1.0173502968075188 -0.2535387967272472
P 8.581256427582161 1.5899461122392469 7.788742813259602 -0.7376034742263361 -0.5141121317037727 1.2702455464134963
P 1.8767509553686599 3.2740150892683864 10.317866375351604 -1.97501680460116 -2.714453475381493 -0.917119182498898
P 4.147420842018469 6.232085803676744 3.9577072493521293 -0.18054440664739227 -0.9565758458326236 -1.2751854069172748
P 6.92848613812171 3.9468552232449805 10.463711001755005 -0.010570833537310828 -0.11585236578564563 0.2579037585641623
P 6.408211229896597 7.696809949391183 10.385118636457529 -0.5780207574322755 1.1420436579235622 0.03904682948981662
P 2.479618110441694 8.562831026291725 5.67531118249653 1.6959716360726922 0.2464168409704853 2.2749442158952755
P 6.920838371854925 4.365559086247188 1.6168112726732042 0.6198320370411068 -1.646616739788648 -0.38472085089142777
Ni 5.347485100068759 3.0203142782949555 0.18246409085876342 0.028457998230376796 0.0022962522333444327 0.06581818404638987
Ni 1.5940466939149125 1.2161037014188238 7.04518034629447 0.04021025367029849 -1.4663816368515585 -0.8040299812806863
Ni 6.722495413502982 0.7393330617058509 9.417743337126224 0.29967030097798714 -0.23731153623510742 -2.1887464397512693
Ni 2.709223468028912 1.4275921085496164 9.249194007714664 0.4311194927606253 0.6918707480759118 0.4574352478370186
Ni 6.234707635765831 2.296879135457327 2.414521376340501 -0.28344329759616343 -0.0444029515954074 0.8095516824298639
Ni 4.158189404958768 7.000228173279152 10.419256886115782 -0.597206843442423 -0.6335123627416767 -0.4901839030229494
Ni 7.82381911633658 7.780291260407722 -0.04868170648183538 -0.5242847013614003 -1.1703769576506167 0.23916118784933652
Ni 7.490964378106107 4.058750299323875 8.302040382177736 1.6973003821864447 -0.5179800992996111 0.3211133013431115
Ni 2.767212224822839 8.356667932089286 12.510487314496798 0.9056217233822595 -0.18254858156161466 -0.11577343291859415
Ni 0.045208005765878766 4.76961153463391 10.476603339408298 -0.9495760174760226 -0.5677841673059318 -1.279802593974312
Ni 8.847676299416838 2.4279435236616234 5.726922264693128 0.2328820397088441 0.37528747339266977 0.5403898344533791
Ni 3.6530195155168044 2.6627834733436626 11.380749846600844 0.46174287407343706 -0.15520284255881012 -0.1479217355163646
Ni 0.845009224646098 3.252695693388266 12.447563344358707 0.3274772958879263 -0.73025731827391 0.16788583734311732
Ni 3.0839549430179525 8.440258108106065 8.149184849758951 0.3446944310971612 -0.7038397475123298 -0.7945955753406638
Ni 5.806015408991703 8.147447545796805 3.6594851893226603 -0.6851647968106458 0.3042646052168889 0.2514358914516315
Ni 3.2893196938853064 8.259714577293183 3.645198472457974 0.24416301193930207 0.02653866972047688 0.033133035108542944
Ni 3.474852870542472 4.230285251366987 9.270650392053417 0.028172862889790186 1.0256513604740465 -0.5730395021676001
Ni 7.27327973804505 6.067726869566046 11.536300694983877 0.41541288065864584 0.6438412554715106 -0.6545244462169696
Ni 0.4938470222087815 8.912632416226055 13.985357678233504 0.80961570289858 0.8490047462191637 -1.342801820514668
Ni 4.398390955902574 0.39141866510899537 1.6582915593892356 0.2755440973537448 -1.2094181307134784 -0.7054631420483658
Ni 5.950842147642868 5.6067652423044345 0.15614416263433586 -0.33129615541338425 0.8226059445106607 1.3131102069875062
Ni 8.118035851565592 8.91927318124063 11.053993362800421 -0.37371241559606605 0.5140709940531921 0.8344579587532402
Ni -0.11573166012898115 4.893191454071781 5.856807282061503 0.03915481582259063 0.4319815836506044 -0.2322456916764258
Ni 8.005179134651254 -0.2014710126921421 2.520413454864555 -0.6138269684976074 0.8097483718217022 0.8382971299936723
P 8.377270633384502 1.731760919217136 3.6958397489441097 0.419903826550464 -1.6413092115328056 -0.9060464696245041
P 1.6725565032538745 3.3774368394953522 1.210827377740578 0.3973046010937093 -0.7759375939198443 1.4196258687532584
P 4.805809147213347 1.0764299061123 8.187545247009801 -1.2058327273550653 -1.4205118709026374 0.9108420912409345
P 8.43652948184788 1.3917301630542482 12.56426299578148 0.2543155269922717 0.38929124387092956 0.06571225459614488
P 6.245113315372 7.79052457043018 1.592539820869939 -0.19076557015476822 0.29277485940973447 -1.9770903993007372
P 2.002245084394066 3.2142119158038103 5.814211129093022 -1.8563346826762028 0.8887833116686823 0.627664645711648
P 6.881365737184967 4.0392816084478165 6.201196267067288 0.6003862696116692 0.40012612970290445 -1.8162416713100593
P 2.298639119627856 8.230402675978855 10.22700583173554 -0.4970950283204859 1.2389356805566212 0.569645903105019
