# total energy = -381161.42978344805 ev
CRYSTAL
PRIMVEC
9.29685077940472 0.00000000000000 0.00000000000000
0.00000000000000 9.29685077940472 0.00000000000000
0.00000000000000 0.00000000000000 13.60688085574641
PRIMCOORD
 96 1
Ni 3.3260692482564056 1.2370389732113085 12.321520835655207 -0.6638845472756308 -0.3636156934816963 1.1768543378448442
Ni 4.693691788412897 3.849658590900985 1.6385002347526982 0.33047314529145666 -0.890880560517343 -1.7659830322648231
Ni 2.142589432753427 6.578191344905095 5.362961854087116 -2.6657202718418476 -0.5620642341030191 2.831012123205544
Ni 0.8179657574323453 7.245073049597667 1.3004583709240565 1.213550150603981 0.7888121358896674 0.128995588035823
Ni 9.096624566701161 4.968841385971606 7.1581986268923234 0.7011804555126118 -3.658916597110982 -0.5542485947133422
Ni 1.7637334640375542 1.3847566362607184 2.84911755786731 -1.2021799610938264 -1.4904047392390332 -0.23384286096021664
Ni 8.539389920854632 4.27307436570886 11.767067807580995 0.5796629210213888 0.5139334400340633 -1.263047228892844
Ni 3.2118574356462983 7.766022086602745 1.751042332951347 -0.1270752310846586 0.09861723285428178 0.25185652392881785
Ni 4.771348383507095 2.1755467689929735 8.559421845366717 -1.2253476574595414 1.5203915154091103 -0.6271074876565974
Ni 6.363759480204067 5.134641423911262 11.356003828803546 -0.6343813956101912 4.517007364791815 0.13842896553458092
Ni 1.0802661774405111 1.3877502222322653 11.48901108476358 -0.07272056759317798 1.533229290603727 1.4072200388897378
Ni 0.4893983142981246 5.804014684629841 13.156153057594361 0.311932663285108 -0.6138367386896202 0.6543524394154795
Ni 5.7627273700346855 4.055016729178939 5.008869906962578 0.7854563320435569 -1.7089356524325279 -0.25853547861089027
Ni 1.6072767611954297 2.8097593398221417 7.358410958228503 -0.5145242795405268 0.7422921379512571 0.7237930507058051
Ni 6.597556685211718 3.541914234285618 2.6191887724955616 0.5317655831194776 0.100075305457047 0.3914152321924678
Ni 8.622178377614338 1.565459526102205 6.7667017300847965 0.27950282489117667 2.8925756457406377 0.3615449269955967
Ni 4.56029127566219 3.70748185095419 11.341960935604723 -1.6807147099136215 -0.3264344564457088 -1.5730029709572393
Ni 8.506135085388097 2.4500920712468677 2.0579183636979486 0.6998342258973624 -2.6789989912286245 -0.17793036606331294
Ni 4.79781651785801 1.1952124412672407 10.651371331576616 0.8686834555950136 0.17795504865366127 0.4907444035121097
Ni 1.0599060740936543 1.3407081569650985 0.22259635911162637 0.23924269181954924 2.3170329175352093 1.8224406010319194
Ni 8.369880439428494 1.1021323706239847 12.833560700497138 -2.1464404798942063 0.759295614487789 0.2118499016288932
Ni 3.184729224885509 3.4589305436582007 13.32787147078087 -0.2799707656665308 -0.21928450353006748 0.061575863830268154
Ni 8.422853895533693 4.892384084636196 2.6268354323141874 1.1512356088354754 0.7124747974795085 -0.33152369804315807
Ni 3.3240425347725635 6.420981597144662 9.906190619396572 1.7262216932064853 -0.013335283656325421 0.6588999495768458
P 6.076356633233869 1.8170137162205846 0.8666449981330198 0.06533044577669395 2.601033887407056 0.8383832619495755
Ni 6.2387075395106555 1.7433547669890108 6.309306895129695 0.9741508786019095 1.6628774246218847 -0.004772481687978877
P 1.8447648159878756 8.321267206368807 8.336146816143529 -0.46108749987762526 -0.13766740477820807 -0.39777331320001175
Ni 2.2575449934309995 8.9397309118694 6.095651317474084 0.8504661612560386 -0.9543199599189114 0.5492609116907637
P 7.992660716461043 3.3924673569793513 8.083425871244314 -0.14443146297491902 -0.5923268896423024 0.41919368785731675
P 3.7590421857312073 4.152503507121926 9.057365824960018 -0.14846269562149914 0.42915337017318994 -0.6073184779551283
P 1.1210607589409711 3.5660953433290765 12.683476988908104 -0.6969479054885028 -1.0655582239713133 0.6140969343295424
Ni 1.270377480335431 3.7149472221813706 1.7488650104838428 0.7449002649980655 0.44012169625923553 -0.7274026224339344
Ni 3.6788010661025674 0.2453838702136723 8.525867651303031 -0.9422499161282546 -1.2217095464863217 -1.048100176395866
Ni 2.0750571082275973 8.967798104565365 10.540121495645188 1.78166059090108 -0.09234708357485387 -1.4578944253161539
Ni 7.052572456036016 7.727468046155524 8.432061496608913 2.620012485392088 0.4004459749361684 -0.25987373780633954
Ni 1.0995664397912301 6.8031751353132845 9.795049556620011 -1.055394138954118 0.761214685887373 0.20429857164419654
Ni 7.071900608939265 9.094811680786716 6.617516094287227 0.48081506021353965 -1.6039184295891733 -0.3856053103789101
Ni 2.479618869525232 2.8251456279678253 10.485326786459783 1.6081054710873273 0.10793851025520766 -0.08474510285787985
Ni 6.730417980613512 0.47567616245339367 2.4772007586208864 -0.09081804852483714 1.8357249768456516 0.6590416173610327
Ni 5.230473362404138 6.811811909746723 0.09215038555892448 -0.054931104820240884 -0.7667536134277311 0.7441104221069185
Ni 8.447016410875467 5.889564306090013 9.042276106356235 -1.990964329069352 -0.3001312997748057 1.5323890540906189
Ni 8.742935173218138 2.645874453156209 10.28410760617727 -0.756393867459962 -1.2314226600090277 -1.0805462127397132
Ni 1.2800462052124773 4.550780597249481 5.451161078037631 -0.10846352952074223 -0.9323753373270199 -0.06204251905404153
Ni 9.253527518383764 9.043214158606325 5.575787222962419 0.4626401890767258 -2.316354660521262 0.6898303206071152
Ni 8.298610780863651 3.9840166792885534 0.3913574440448766 0.2412232125846878 -1.1139157893390945 0.4540041106682826
Ni 5.621517502575595 6.149290428099665 8.866175157682187 -1.4512884899638618 -2.0520755945583753 -0.03239101473619583
Ni 5.579941985604297 3.897602450699953 7.25248078034962 -0.8156675655196147 -0.6238447577449255 1.7904990151283164
Ni 3.227336692300415 4.085900867680427 6.5158317881884855 1.306853170334201 -0.70368830953613 1.6274051998572037
Ni 6.732165788572056 8.013281131631514 12.055342699160294 -0.019603118942908174 0.005858258552989911 -0.6428997174938476
Ni 6.757350957506592 8.18450123361282 4.327287092031474 1.9261041380608575 1.9301235436328952 1.467708326082782
Ni 4.128285210675093 1.80970639145774 5.948315754994334 -2.5031118808475856 0.7927796051778475 -0.34193280919162405
Ni 1.020227114694392 4.057006255259409 9.289689479109002 -0.549709312082092 1.4732837632880305 -0.8150191333023382
Ni 4.591454319688977 5.997342697916547 6.008757371381968 -0.08755326173063632 2.1792192169871245 3.8440355105029345
Ni 5.414625383908494 8.457865835809613 9.71630615966223 -0.665638296741944 -0.3227212692601797 0.9345101242818359
Ni 1.207642330844751 8.201114706069822 3.7686839497408076 0.2972663195221848 0.8057341084559866 -0.578497697068694
Ni 3.6923744683338056 1.08865193690118 1.3481791063027853 0.3601387906766894 0.06257113786400191 -0.07312911588550632
P 7.92702494950725 4.054979541775566 4.532738198817862 -0.529696616405591 -0.1339426476284532 0.6152133073221727
Ni 6.874835261613546 5.515533402961821 6.635776039028579 1.0540599935237267 1.9012261438722549 -0.07042611513204645
P 3.950640984761057 5.656324912132961 12.034456394055708 0.7073508459893817 1.0649303605793272 0.17568193634876839
Ni 4.948992609421132 8.923052361456497 5.709555891006523 -1.0401014744611055 0.7043652809984966 -2.0638903278051166
P 3.193914513518703 5.080087503162697 2.172147840324658 -1.8047095023007436 0.2655427631666588 2.7916477624753084
P 2.095612445442163 8.924288842618656 13.869493915006222 1.7934411284757756 -1.6577861261419062 -0.4189628027934333
P 6.90466885596974 0.9003358559041039 11.27727437712203 -1.1868466731708656 0.6484774686919412 -0.6516149858796585
Ni 8.453738034035183 7.2232626375192535 2.7907035846486012 -1.3565708492743023 0.7998215996262935 1.014675321078517
Ni 4.129326457969545 8.106519248739104 12.11615154115624 0.297916551511674 -0.145875137399981 -1.5351717590420786
Ni 8.685833915338506 6.037365640797012 5.066726069130687 -0.13976182541339155 0.6704981959374066 -1.371885882364818
Ni 8.974203634796408 9.16530040388072 8.119157387775505 0.39946818440393134 -1.3244562281279448 0.8469879728994509
Ni 3.298931740644773 2.9596152785655137 3.3427477986693104 0.09377790248410946 -0.30002537032456067 0.18487440148131384
Ni 9.043437283026565 8.117647579198552 13.061979677291932 0.32729474756347504 0.1004357741202593 -1.4478666087665064
Ni 1.8351146848125162 5.17988919696567 11.39306851374567 0.740326272474138 -0.7661013245557128 -0.20303975953643097
Ni 5.558996180654312 1.991906074285 3.848569929667233 -1.2382695077275319 -1.5013676660084403 0.6000255438381408
Ni 2.7328093053920344 5.777369910112904 0.32494631973075017 0.23415782109747416 0.7088608548760049 -1.5068312602261726
Ni 5.964738642009047 6.195802572868763 4.324212623457591 0.789059218903467 -0.37891761394608936 -1.802869106657895
Ni 2.2740840910812548 5.9324041947760024 7.749962706456005 0.3070902475911421 -0.1843252138460632 0.3234190666581527
Ni 3.661871500716893 4.845862643016254 4.516899154036109 -1.564358407908364 0.5076116115810935 -3.9047379705893137
Ni 6.8609736570061655 1.5323534402491652 8.915799888113627 1.5575077035351177 -1.4521971178210602 0.1255143143554419
Ni 0.23711804012888218 7.022562221513799 7.052187566411102 0.46488630479842513 2.988453111066253 0.34250359409342945
Ni 5.552469791362306 0.15870003295061627 13.4125750788143 -0.9408998298582635 0.15141123672686183 -0.31547050123503734
Ni 1.2871489992567686 1.2940658562841942 9.005836169790783 -0.0396276416939511 0.029978548639961272 0.16269169473668757
Ni 1.1990892280689025 5.919648915418976 3.2409417038245203 1.243332009852104 -1.1314787379235223 -0.06821445219270833
Ni 0.4758732556912719 3.0428592810165433 3.977631602129365 -0.4856829298288023 0.797732835418065 -0.5028144473027663
Ni 8.820024660410894 0.07543557742773094 10.596099693942948 -0.704903927110786 -0.48302029539497465 -1.0769965477152421
Ni 7.24679296700368 8.253809256649724 0.9559421801681313 0.3194289716621531 -1.782004347393744 -1.2320723777778846
Ni 3.597174715698274 7.411533163947197 4.25508960775247 2.819914984851118 2.123904760685536 -2.5918496498046264
Ni 8.294092511353801 1.1984012611064971 4.313449659236286 -1.2753949518249195 0.739594793624752 -0.7602857463152003
Ni 7.591929257710855 5.954716636799954 13.193612858697325 -1.5082245410292734 1.991672667990286 0.12883797941203617
Ni 5.485234966063461 7.8755947706420395 2.557849080316463 -0.8522013987795903 -1.2355299973091818 -1.218470984944366
Ni 6.57270620290754 3.8310184049601412 9.668300940647697 -0.21844169591379797 -0.7914706565584368 -1.2835029256440347
P 8.837893207731744 0.16013453703573954 1.9334288824805577 0.9415325783462559 0.06623521697915045 0.31697356814312505
Ni 1.9235835174374885 7.542311964760089 12.149107947710704 -0.6205370335279313 -1.0553943960644339 1.2445288583736824
P 3.395739848476198 0.43721044208918364 4.054510050807979 -0.11972007627116801 0.3590450433918784 0.2949716099507371
Ni 1.5301779771518298 1.7009425334418142 5.520991584091929 0.13866447858415473 -0.06488127405441729 -1.759612095741473
P 8.269074685734445 7.343303575608118 10.773451998740505 0.43825173293003233 -1.8280846866915743 -0.8017620111821159
P 5.085805066431336 7.844190008493326 7.376180958930412 0.44210247413469017 -1.0686787718781658 2.3665377091335564
P 6.65182240358414 5.709558680061775 1.5209229621373113 -0.2849715613152318 0.30743066164969635 0.5162800858893689
Ni 6.401579069434667 3.252568345489168 12.403025397313453 1.418623652740989 -3.245624362339765 2.2423986778590863
