# total energy = -340888.8677921545 ev
CRYSTAL
PRIMVEC
9.11749728008085 0.00000000000000 0.00000000000000

0.00000000000000 9.11749728008085 0.00000000000000

0.00000000000000 0.00000000000000 13.34437888015134

PRIMCOORD
 96 1
Ni 6.535732089127315 2.2773502509061267 11.352396524548753 0.6179376482318711 0.4971845027104986 1.8149990571522097
Ni 4.56412799406312 0.7367794896491027 5.892143451553001 -0.22645711001910673 -0.8264679985692281 1.5917008044770586
Ni 2.6486785651237676 1.947424492115164 5.162192967412505 -0.36017092946620555 0.385679101039639 0.3658504963494861
Ni 3.5873887388882384 4.757847460072947 5.228768021248677 0.49993661153433894 -0.19826393541434242 -0.14156673983261425
Ni 3.4913176694033448 3.278086759083214 3.3256864774527486 0.4696441311983847 -0.2033485490261014 -0.6977292637392177
Ni 5.249727324136774 4.769545209161788 2.3876701452359472 0.2624965201411673 -0.06242612764570539 0.41299655790766937
Ni 5.662868481161449 3.2722697957794877 0.5174972963435754 0.07595398692881113 -0.2989699324768529 -0.3641414840781793
Ni 5.756550766342932 8.549167261993228 12.799981577421166 -0.42448784637672055 -0.727442217422618 -0.0014637290297200597
Ni 2.4864691699253476 5.426980589948278 11.629852909640213 0.34235498433070716 1.4206836205938114 0.8769909470194445
Ni 0.9341058376071332 7.798788113309896 11.50284161292774 -1.095101999066701 -0.24935921142826087 0.37270171494336457
Ni 0.8540733576952558 0.06250044427436163 4.901656833886962 -0.38477895782287275 2.388780836802473 0.2794750569770348
Ni 8.89251397687053 2.713768378643048 1.1971720766448761 0.4966458565982092 -0.2814841169872636 2.17408780929783
Ni 1.5209809064695852 1.4989712678877751 2.925661752103215 -0.5484607843869715 0.8303213108770474 -0.18315124814262004
Ni 1.9248404512008541 7.031067484683481 0.4589830219068142 0.12672941770946564 -0.17255573201496088 0.716494717272179
Ni 7.79196822529863 4.051979933409664 4.326113902469967 0.030645749910314962 -0.2916356035989687 -1.9725094647982737
Ni 7.869257250260522 4.030252937245433 12.851704228088419 -0.35329399984071413 1.1415330368357306 -0.9854570476433481
Ni 7.819949824638968 0.055521911809358504 7.059403754670393 1.3670660923786715 -0.44489649194005965 -0.08843155057053158
Ni 7.302650377987699 0.7620294867859979 0.6961510097466982 0.022768404044767238 0.9405445034013737 0.1594292219353319
Ni 2.0684227993310724 6.885233114709971 9.472347602536322 -0.6053762666270929 -1.386276346758535 -1.1892807365336548
Ni -0.006914709983614276 5.480691766785663 1.5817089092608054 1.485451508998816 -0.20914201577942693 -0.6728211876436284
Ni 6.537245593685965 2.084241657218165 7.098182294362257 -0.77410156915237 0.5038917395273451 0.9151589734487335
Ni 3.465624561895664 4.527931529618304 0.5855831194891951 0.05853913388647339 0.4929799777108478 -0.06594185410844772
Ni 6.090469988969368 5.861265223307344 4.977173417365712 0.21661569844865275 -0.49846851162924477 -0.10712784142845422
Ni 5.442671802872593 3.2005059742064024 9.486732278091635 0.36511850327946793 -1.4606110529163685 -1.1781951681434546
P 0.45517464326736845 5.969371389282705 12.62374217731401 -0.13805487002461386 -0.6799703970939 1.1694071375381796
P 4.053703140407163 6.638577459136768 13.151859534560689 -0.41189792552685195 -0.702712575886422 -1.650787583336886
P 2.3033807058154343 9.03394459562821 1.6676066752123175 1.8080717339047572 -0.17959541247056166 -1.4489752684496529
P 6.485713498713143 8.108363618035158 5.76184894404794 -0.16903614889747662 -0.2926866705713024 1.4891600681986548
P 4.744818556372281 1.5448596320063546 12.783848165875801 2.028752860672035 -0.5680453913871185 -0.5177337876167599
P 4.048360286965182 6.559975514557736 8.318111644370926 -0.2282926205659488 0.44362868097122954 -0.021616035607878902
P 4.760938291671635 1.4867538214504818 3.837122461563852 -1.4705625077021254 -0.6558287668506899 0.3328398457514203
P 0.5278338030793659 6.202496678801474 3.9124247838550814 0.08831687936953822 -1.4592491395718354 -0.43205460298038495
Ni 0.9289726866040017 8.112512079325432 2.9227924756899197 -0.14722548078028838 -1.6965143959500397 -0.8855691756067587
Ni 2.3356019414194593 6.829078448585128 5.137145378716586 -1.4461565680539352 1.0171698053655966 -1.8925584408949276
Ni 6.0221890513806455 6.009251322653392 9.314096112933747 1.0714627623812063 0.9056970567048853 1.6808638338969761
Ni 8.77166154961208 2.5404174016936043 10.36819550954978 -0.02553491104631086 0.5811181654106766 -0.9665316714937549
Ni 2.4186988121877353 5.63668302879734 7.062018652907868 0.5693078030393098 -0.2226012266081263 2.733977918567666
Ni 0.8466772438520228 0.14763689919787829 9.360708406341221 -1.1836289375645164 0.2851921619664701 -0.25898516455379916
Ni 1.6206898573936435 1.5155833480435572 11.45237261814491 1.0153201537513674 0.10231525053115927 -0.7169510880833071
Ni 4.148570700243011 7.383978454271769 1.7658613853104441 0.15480277890691405 0.5290643821382308 0.712607980623263
Ni 5.669196024316286 8.164882984053651 8.066756830668036 -0.14090956586458958 0.20646138362347025 -0.23487181644536326
Ni 6.7337641313795595 1.0461325274392383 4.9230346299030225 1.265780311553291 -0.6189342078171857 0.04856711027542603
Ni 0.7764907493189761 7.55954498307514 6.987143941241944 1.2879578760915948 2.0490311513050967 1.4094720681487078
Ni 5.26023979857125 4.9825390645510454 7.4140434017545855 -0.6465743381319574 -0.6579753808800475 -1.2757484785095965
Ni 8.169888490094005 7.486933234249317 9.32230277229062 0.10261221294628779 0.5417484053638025 0.6865364803471918
Ni 4.882875701113694 0.779866958584446 10.627143375038475 -1.0152731025635162 -1.1307205196012593 -0.2690363781422141
Ni 8.544380575889063 7.547455181600625 5.25401528313637 -2.3728384545406036 -0.6081615426817139 -1.8094719566863933
Ni 7.4771410421048 6.541293762505486 7.213784866651605 -0.9414353906467592 -0.7826895679316973 -0.26897210056318194
Ni 2.413191843793612 5.536582025487608 2.9107163504614157 -0.40142762212314737 -0.028858833213221267 -1.0365628651802277
Ni 3.954586826810287 4.787816673833681 9.808905428893324 -1.482424549247034 1.172131478447878 -1.0122669687473405
Ni 1.1009925089416213 3.856591965386386 4.206281723164006 0.48260943310980103 -0.49527443017197925 -0.15408132735985722
Ni 0.8896498323208661 0.4270061352315347 -0.04962927327769988 -0.42433872239336595 -0.6620958308063243 1.8482025404873716
Ni 0.8719710049761562 3.9659563459948424 8.476509925680698 0.29655926615283124 -0.7233423363216317 -0.0007762160443922115
Ni 5.3421878646745276 3.079462079503788 5.207163199548819 -0.3731226045308671 0.8817395174480234 0.03211539247730598
Ni 4.432981912306386 7.332993409139424 5.929280841723436 -0.07057703888761394 0.05440351445154502 1.2858814531785403
Ni 8.295281431028402 7.714505967887256 0.12951769673158522 0.6947804655235389 -0.21297141682784612 1.643122096371828
P 0.2646335368307063 6.039712881270554 8.269978552406927 -0.11913232208849805 -1.1452346540570342 1.1970251563657641
P 8.575288891875948 1.9771475334476831 8.128754900838894 0.038802060468862205 -0.4591062077815383 0.9549061714396846
P 2.0025215285484195 3.667914475406278 10.47230821168967 -0.1894620208519963 -0.6483797667718124 -0.1042057826856528
P 4.309567468295041 6.218744059063605 3.676736565833685 -0.6529205920649594 0.5977981971695189 1.3881889904002156
P 7.003277352787309 4.496339401330825 10.671540116592023 0.06243898316151183 -0.8402341991153851 -0.0033920564006844805
P 6.381217861684922 8.11010506002734 10.695679602552753 -0.2727809327863108 -0.5036413140794359 -1.2590823307078252
P 2.381809417944983 8.897245957990645 6.244155435903441 2.3913491117502814 -0.4465250286824181 -0.39563158426666056
P 7.362716450471942 4.288761339362278 1.8449538512464372 -1.0281437878785968 -0.9644673327655582 0.3741209638883944
Ni 3.0096585198590735 1.9424554560641751 0.45766280829179923 -1.559955907965294 -0.2282926205659488 0.5366558213322435
Ni 1.57130949179336 1.4120997532202157 7.393266448813314 -0.8432889267813091 0.7076439517497685 -0.3836039636781652
Ni 7.108757679528388 0.6833153969896673 9.241449717618027 -0.5384622784133629 0.7223794581877301 1.0069833517508981
Ni 2.7749923732896327 1.9370578976381474 9.346630078696577 0.7453244970196776 0.18158621764834534 0.8500735538033101
Ni 6.448568814544835 2.1503161604503016 2.8629160471503736 2.305093485785146 1.9420902290764683 -1.490016759771995
Ni 4.188414163624332 7.202494669693919 10.601855996162481 0.7516902913367055 0.7731708298079846 0.7528233764998842
Ni 7.644775348221272 6.464779724817602 11.620632384578993 -1.2407236256949794 0.02374336636352685 -0.49945093014717207
Ni 7.394481811208905 4.065856764363067 8.353700883492815 1.2545862426096845 0.23932779533418785 0.28896936962071523
Ni 3.3133258863071973 8.815033484464472 12.73426083308587 -0.1405776364464676 -0.07469774592420683 -0.1104453358374614
Ni 0.16859346683677254 5.077297214418797 10.669431239456989 0.34305843815563497 -0.5886458412462895 -1.323719092851604
Ni 8.859070996622775 2.5186630530373493 6.0147117918110755 0.2686165169959761 0.4611258093147284 -0.11627454092472878
Ni 3.921700013900349 3.190148497226727 11.553069905780761 -0.08970398952505196 -0.35216631399417414 0.7715194102474906
Ni 1.3268329180847191 3.5911816177822042 12.730790713597786 -0.15153284990639065 0.601743812080828 0.5222314183767973
Ni 3.2242479372830526 8.80959945604908 8.37239722354081 0.06530422052444883 -0.6845515887066792 -0.6176239736461944
Ni 5.705583956205269 7.959812233853951 3.8327725035823352 -0.9604322434642362 1.06919119273821 -1.8146619855277648
Ni 3.2277490562620983 8.932913607589668 3.869256169193401 0.5563550995333838 -0.13655848798474546 -0.5787090417485518
Ni 3.750108713937769 3.1017817129952006 7.456398735653425 1.0098889554334674 -0.42876847602994544 -0.350508466675777
Ni 5.333863589601954 5.374299690310457 11.918945956588326 -0.28919999757428255 -0.7402100586112478 -0.22408552446313668
Ni 7.89002690920392 -0.11543389858853542 2.9547255983779612 -0.42253020842971745 0.738279160137122 0.042680826697978104
Ni 4.836613519604122 0.8065055505664157 1.7353432982097667 -0.262815851153799 -1.0355529358584747 -0.4707689888314473
Ni 6.631803158612209 5.931196427914836 0.5697232328640671 -0.45045804518823707 0.095884407304151 0.31852651445254176
Ni 7.96182720076637 9.211225213931739 11.674530470111872 0.7984987670498118 0.7269904745971802 -0.6044995204490945
Ni 0.2894741583369788 5.422850363652686 6.01253635694545 -0.718512519033156 -1.9582033325882469 -0.15031543255952176
Ni 7.607229494169948 6.543326964412588 3.0799097486232436 -0.17930899157839442 -0.7066319655454861 -0.2153820831518678
P 8.648237988103396 1.7924908597950724 3.89098043010843 -0.2308722083676669 0.5057825287921548 -0.08006800909718469
P 1.9641733347310653 3.319325199557749 1.7522899905179732 -0.8034658812471002 1.9699432467329943 0.19401518744031748
P 4.790032225687607 1.1706866586182396 8.372170197857013 1.0183720532038139 1.5702745162824825 -0.30033647380707634
P 8.768278958098474 2.0793090911565413 12.495289404271885 -0.8327566597914174 -1.3831380582398694 -0.2354487719947558
P 6.469785230857956 7.837728944454432 1.5859658687694413 0.24898023082228732 1.4205499232294243 0.17325378652325
P 1.904207554717575 3.551748441781239 6.568743811750828 -0.8335231056437967 -0.09202723834158989 -2.083589348895941
P 6.952802887506075 4.3221769671180095 6.196222017131216 0.44837056653158913 -0.32574540079848413 1.1942378234286142
P 2.542751481012967 8.700745655291733 10.528781990221457 1.0611328412101082 1.7135492399451393 0.5943377494247442
