# total energy = -381167.88134378236 ev
CRYSTAL
PRIMVEC
9.26773887901550 0.00000000000000 0.00000000000000

0.00000000000000 9.26773887901550 0.00000000000000

0.00000000000000 0.00000000000000 13.56427264683762

PRIMCOORD
 96 1
Ni 0.4087452738858824 5.15037895676704 10.311818032884783 -1.566224514582825 -0.00949662663652558 -1.8828478984753834
Ni 3.116518095171401 3.588987413504669 10.255891863769797 -0.43951902967823014 -0.06469769728870149 -0.02478286337163474
Ni 7.102516898608603 5.470690541314596 4.478393759950473 -0.2328786972747344 0.5204283037297875 0.8965279886111076
Ni 8.448164752944333 8.979465676471394 5.023473957359408 0.018330937098703915 0.4873016963791479 -0.16180852080078584
Ni 5.1807586041875275 4.0132922938744615 5.119414515035316 -0.0397202014077574 -1.0163696780618046 0.46636134668205487
Ni 0.39872777513761976 1.3058892553626087 12.969845339986591 0.231308267463821 -0.20500151124849209 -0.9073384489630502
Ni 3.7086339199715677 5.000185983583263 6.7423929622035335 -0.6184066174484899 0.3514312356003625 -0.005443025392442238
Ni 9.005248525502449 4.751838389950925 5.836313027083477 0.1862471134591244 0.1980801015383105 -0.687660823759622
Ni 0.7211904018347474 0.9625566079131335 1.9319453927873358 0.38813476166898314 -2.004097266906884 -1.783122263048271
Ni 6.590743100497945 0.7267093402236736 9.097611736044644 1.3352566611775585 -1.516733349831233 0.18887272400742955
Ni 5.609243234705776 0.16298708644307608 1.7781000037864712 -0.037152697790897304 0.021634033330007903 0.63777782288625
Ni 8.231457219194102 9.164375598781819 0.5628344044142513 -0.5518713527304173 0.07856674196130985 1.3080525899589408
Ni 4.78890007696573 2.051645652138627 8.986317315683708 -0.8950485758521036 1.287802581460653 -0.05678589864079253
Ni 5.9422145503016495 4.403566037780547 11.390353903065828 -0.8534758946166398 0.6245497542317502 -0.38110485140539524
Ni 6.46395116750231 7.862128564723739 -0.1494348721590679 1.0819268951373238 -0.8294677046275004 0.9429965644862921
Ni 1.7343090117100386 3.5557254993520973 1.5894208921514867 -0.5199858168757302 -1.0506494251802807 -0.9925460932796454
Ni 1.1757516687004717 0.23067123563200354 10.50055089740416 1.0436120587175253 1.1819008991298163 0.4700781334120098
Ni 3.1702895150413424 3.267406148756806 4.019636061006652 -0.4165274538790633 0.5209605220841739 -1.213234676246091
Ni 0.4862819560744195 4.544074224034974 3.1812829066734913 -0.8373926159015319 -0.2278802156188785 0.8133875112361864
Ni 1.1749639109119598 8.342595941545074 -0.0010352064114912914 -2.6175665949547566 1.288465926076265 -0.679652608743165
Ni 6.330226965967772 8.965721619996538 11.432267251283996 -1.3201367748169843 1.136394687167901 -1.2793979023367257
Ni 5.164095210025833 6.455628738160151 5.160784773766345 -0.8829605343393181 -0.939315516090279 1.226103047568327
Ni 6.908394844041937 1.558740969997496 6.738595042889038 0.8175516699162048 -2.4881730001495668 0.46418233675286513
Ni 2.5604815770850715 8.317406227790075 1.8905881088904701 -0.733036423680944 0.12334121796352306 -0.32093460967340215
P 6.526999593799313 3.153616853140959 9.42961086585211 0.08689814464514067 0.6805519806289828 0.8722966268675688
Ni 0.9330759311454183 7.182738444695162 11.431995706540427 0.29895424874756904 -0.011431638875709344 0.8652546324191227
P 3.158389738565471 6.187744751372722 2.6077451908480374 -0.7373517632268463 1.519790391490002 1.7347618694670124
Ni 3.6617947686405294 3.083043023028997 12.71421330374519 -0.3429599649045577 2.357512622816811 -0.8914696002515937
P 4.151502080934172 5.533646290224715 12.416503880310842 0.18362355979334827 -2.220950278177323 0.7822205987150787
P 2.084332966492519 6.240302097474487 7.771148100793848 -0.7214700589995834 -1.3452065733014187 -0.8958433038392571
P 3.5097945864125197 1.1965392065784928 2.5479942259763573 -0.829388514650133 -2.1354271595028385 1.776766496033572
Ni 4.514232105458412 8.837141013434046 13.161670848906278 -1.3903937113610185 0.7404890233042474 -0.19291578372855162
Ni 8.878641947280581 5.7550432997512635 8.026237974321978 0.6665957755592068 0.15507917249675227 -1.745230373098504
Ni 5.026497093719555 7.0016190275082835 1.476077374766551 -1.2785340116745336 0.09181357966888705 0.24378146023016728
Ni 8.20206921981327 2.2937745931110665 1.106694967411796 0.10637090865777164 0.11011494908123616 -0.5678880398736477
Ni 0.8671702610107896 1.9467626534023068 3.7449597485345154 -0.16783338683862709 1.902360257476698 2.714214877008126
Ni 3.8552680814990095 9.22532024839656 9.452982249276447 0.2395512241989036 -0.26785521334991935 1.3536876141892364
Ni 7.796939290789722 1.9517950355100937 11.557153737205299 -0.39678960913050376 -0.16319923050072538 -0.03909542333956493
Ni 6.2169381282410985 5.976153009378473 7.706961596185913 -0.006571739680246746 1.737381823588363 -1.406746955908061
Ni 6.065568152243897 0.6696580676319167 4.743072962699462 -1.3073123693588067 0.4726062991505022 0.15985885327358273
Ni 6.284926259259003 5.507696621897271 13.517855069594921 -0.6708620070347284 0.03253782472670525 -0.1507869728793016
Ni 1.93045143331077 5.825385436396016 4.873357906406744 1.0074718613515423 -0.3323600779015244 -0.5679926837723122
Ni 2.5206303007250668 5.991370636304782 10.054937632242062 1.3985410230585011 -0.3774127472657887 -0.31800123807669106
Ni 0.7530306448725224 2.7751872792786143 11.071932010436829 2.2886265984783747 -0.26903612103189795 0.34878248512360577
Ni 8.311122700959357 4.394576331252825 12.081331476776478 -0.8139187011493079 0.378229072519497 0.0025417925852472354
Ni 3.593278376517386 4.973077847919771 1.03325462572352 0.18347417869967755 -0.7270768636633995 -2.0581200009802427
Ni 3.989668827957798 2.6149851483113946 1.2360633317627983 0.8893013889556813 0.7690056426867015 0.30148524269953886
Ni 8.506848074319112 7.580102008697853 9.338011316977834 -4.118220522725624 -0.04087462672717476 1.9281029136584407
Ni 8.97493375225278 2.6423064419647186 6.90638467152043 -0.2519994772645853 -0.25611427076390725 -0.053288684120811454
Ni 1.698906249920453 4.967433795058552 12.094501860226524 1.5224566254682554 -0.6896657700047929 1.8463019810305492
Ni 5.478234480606932 2.3602520827227678 3.1057702986144946 0.027062660544746944 0.528964880445889 0.10148581265132843
Ni 1.3102914312395861 4.0574623364632485 8.29779476595161 0.9325018356025553 0.623833444891016 0.3604830613899856
Ni 6.444461113040661 3.6811643424992293 7.1165093304803095 0.3152290746481926 1.4107429644413316 1.287212513285138
Ni 7.346758884001991 5.3346216018919 9.594389406183648 -0.5837445472899302 -1.3438382321989824 1.0225580662607037
Ni 1.2906808961749883 7.725985483391536 9.16570459250973 2.0170132036376036 -0.4496494332440127 -0.8082213936542145
Ni 0.7412532025473376 6.233054725820179 0.9648568606555877 1.1471133591369858 -1.2348332283524732 1.6123164238448813
P 3.0584557122887426 8.61909892531269 11.562959048719696 -0.7186359319848978 -0.8201528549844779 -0.22257217314240377
Ni 5.0014371283061925 4.92915803427557 3.0252392100557444 -0.07043382844153032 0.5752480797831447 -0.43066749282487116
P 4.917564093176416 2.2298364638999795 6.442107107413815 -1.1513713630823912 0.24284403601756238 -0.45460214926359765
Ni 7.293339638202208 6.716960433694899 11.546654316045242 0.5644059948623183 -0.44441492431795077 -0.3501318000626486
P 0.8404235671561444 0.8510592240749215 6.216248608482683 0.444055484096003 0.21194734643870594 -0.27447631821086277
P 6.058913915865646 7.683492901505344 9.30865853500402 0.4480196109500736 0.3334602529442386 -0.3394496377584541
P 8.078854633951348 6.7877010831032525 5.897135342547534 -0.13323713692099634 0.7577241562356112 1.729343269554602
Ni 8.669265194832853 2.9201717833195255 9.38560856933358 -1.7238665627107472 0.6829215093024238 -1.2688730915460018
Ni 8.884480622654257 9.142503735477257 7.778133195443274 -0.8075001992174737 0.9171425795376658 -0.8393006315575223
Ni 5.401432730096383 2.1555555383126674 11.421632521139086 -0.007689141114141597 -1.1068308574678551 -0.4384077988919224
Ni 3.475411275878655 7.7737792118074776 5.755307430303882 -1.0577299861761462 0.09857918052749473 0.27374689624400594
Ni 1.665032665014449 8.880977417430053 4.426428622350895 -2.264059964882604 -3.1889130256906495 -1.893770716035474
Ni 6.335982231693253 7.7907484413458885 3.901071099644687 0.7421422426369542 1.1023882483154692 0.47896515148899443
Ni 7.276917205246411 7.023166519958751 2.133877370746694 1.9398186594334723 -0.6457783245932233 -1.8612979402187493
Ni 4.052976750938075 8.134831775629122 3.53217710211881 0.5365041262457276 0.5159589551045243 0.8204973828080901
Ni 2.7987551387631475 1.1987078574315724 5.051240102469774 2.6981290271898564 2.271782530337842 1.801511564188736
Ni 4.673627943159744 6.893890832994633 10.89372451674584 0.20285515432945064 0.9857157006213735 -0.23201146417843269
Ni 6.548982669968135 8.344671915011268 6.4454027152914 0.5681420648659827 -1.3209016780074672 0.6998599369289753
Ni 3.8487991998945246 7.355702251836272 8.11809516633179 2.191933065009367 -1.857538216066001 0.6365156683443747
Ni 3.1125144320580236 1.452792181312013 11.298035177669334 -0.42910991852976427 -0.2932960220205271 -0.07883747912419327
Ni 9.136488973068502 6.692243374613008 3.9682279145022465 0.41676708069369517 0.23467358439162808 0.06328101944683294
Ni 2.4971458508887285 0.8373633598412435 0.26780521100857746 1.7304534718996456 1.5419982950456088 0.07066651327762669
Ni 0.8730719570075456 7.614577996618602 6.3591617729267425 -0.3245225841349766 -1.742127051582832 -0.15554942726495147
Ni 1.1027033523587138 1.5820678682761313 8.521279797004647 -0.3568953440387273 -0.3612502785733133 1.1196624620148845
Ni 8.591508867237403 8.87734446386421 11.439293123983651 -0.8769927467916574 -0.05504294780775681 0.9367914641168447
Ni 8.217444398297282 4.578299983011136 0.9913570326611222 -0.0031210621274849475 0.47310509316379173 1.0386264325774757
Ni 7.584439310404012 1.1900610572353199 3.036986068843257 1.2295614384305729 -1.1843167076601604 -0.351706086528304
Ni 2.9658524673145172 2.325720488369889 7.628954112872007 1.2654540385621238 0.2341796754743451 -1.0232622914165797
Ni 1.7521030699917153 3.534242881072448 6.015781860009956 0.23397475855239058 -0.13057347404590416 -1.2786232289542303
Ni 7.38648041202036 2.866150134504998 4.669622426498629 0.6207054407849955 0.24445637481000482 0.6899341931748312
Ni 4.592794726319752 0.15564147675867143 7.075978728874446 0.20909522170189151 1.3786993057422257 0.032181469828551024
Ni 4.471591239753207 5.068776517615913 8.994075339739746 0.8174573104301858 -0.710140492919377 0.6218963757693031
P 8.603844227431626 7.0596721426522535 13.320807189924336 -1.282501480962714 0.08338961727124994 -1.1495582211330524
Ni 6.173240740325419 3.0611711597244358 0.06937921859503095 -0.3755404699437403 0.43393022273654297 -0.19696629964884144
P 7.026910686388854 4.148592010986022 2.985224821494824 0.9164602087586603 -2.0471329058411194 -3.057819674585534
Ni 2.339872325347035 8.92006873921761 7.591746922359794 -0.7402853919338734 2.5734210107857938 -1.304434019369747
P 6.294870542871629 0.9696371602710506 13.41176911837685 0.4680893851167552 -0.19762578760971125 -0.912652662087112
P -0.2382439049142733 8.459378716757264 2.856161365746669 -0.3235069983862686 1.4725322298339865 -0.3944416777236175
P 0.5948609289996627 3.373938804979656 13.168290794651384 0.10647632388738436 0.634080833650637 1.7335891893151498
Ni 2.7721103900340744 6.968894642199637 13.346986698171252 2.06260169090068 -1.0092022137790877 -0.89384941333768
