# total energy = -340896.84148056613 ev
CRYSTAL
PRIMVEC
9.01621212889801 0.00000000000000 0.00000000000000
0.00000000000000 9.01621212889801 0.00000000000000
0.00000000000000 0.00000000000000 13.19613782333760
PRIMCOORD
 96 1
Ni 6.189187945708305 2.1719153795998163 11.277841691200331 0.7088554555593662 -0.46926515059241114 0.6906471600814558
Ni 4.781008860930862 0.3093191951842372 6.127204191047942 -0.4381519741273745 -0.01902102118719305 -1.0654450954322165
Ni 2.653606521428536 1.6017391303137822 4.660638820315604 0.5824543677235969 0.29797722954628036 0.8048990141492008
Ni 3.317244827358398 4.260052114559999 4.900716209942481 -0.4356088959905466 -0.43550296654030163 -0.6628463358191036
Ni 5.175026354408763 4.425670918195969 2.8391096796585926 -1.0749149825958648 0.2203985625298527 0.03997216951756341
Ni 7.21340261371611 6.090857134425496 2.626255841433451 0.07845798429758746 -0.33756064826585735 -0.7706058972942857
Ni 5.1001016302422375 4.586393918556077 11.303495520041611 -0.7045686552585544 -0.36260756393215615 0.3816352699875686
Ni 5.565275071147602 7.760280970433396 12.571538321990765 -0.5904967784120992 0.31008121189866594 -0.8106456868249909
Ni 1.934752931407722 6.38754461618527 0.31450892698089816 -0.2531652154379124 0.47874455083775613 0.02182249519173016
Ni 2.563002604082035 1.4927691885235732 0.4469958552986099 0.538650226054453 -0.3888767820413303 -0.3188260479708315
Ni 0.6745731682005195 9.061654004371286 4.72793853374475 -0.3313902577890873 -0.33043380741308903 0.0902727175443284
Ni 8.537812070066213 2.463211166407533 1.2780156343679996 -0.11833785121166071 0.1668640809468223 0.3246115443043571
Ni 6.947992372405638 0.4973532042053345 4.881198815188777 -0.11320695774299859 1.1016631972239865 -0.8221734849589324
Ni 0.5756454836638218 7.326835580592052 2.435426806601087 0.7851940795211058 -0.41228590499388995 0.13936433286465674
Ni 7.464774612484191 3.8303935338823045 3.71406636285986 1.303109901241685 0.11532760363042718 0.7700466823567061
Ni 7.6817858261982845 3.8529791456797957 12.65206121237089 -0.9541590088610148 0.19911985565673448 -0.8084471365117754
Ni 8.109307564562204 8.72173378465983 6.9674682925827875 -1.0932528616731043 0.7593992299451889 -0.0417724559510958
Ni 6.934071340623072 0.5080455303652723 0.586612804298739 -0.9618877449638402 0.44923651407631016 -0.9633663863918958
Ni 1.871134537458383 6.626429160925595 9.012883508828379 -0.22411586348043985 -0.5888785260823859 0.7952362942484562
Ni 0.18075882732073992 4.965462532049851 1.2882769855802647 -0.529914645953668 -0.9460885731480546 0.026506016710328546
Ni 6.444094299695793 1.935438163542097 6.860183480870403 0.57054373232894 0.534253382538338 0.6160345176718874
Ni 3.6286648000072317 4.318116521735983 0.8848447632245434 -0.751183526903616 0.552740642709248 -1.066361179488583
Ni 6.064403567553705 5.7086328466286815 4.759041761296768 -0.16550653847766333 0.0756508538660955 0.5825304723771709
Ni 5.5618849753249044 3.0791987903614517 8.974271579677579 -1.2537442063243636 -0.7553235172139185 -0.43418604750109097
P 0.09941636324305457 5.599058818614747 12.29133157468394 0.9505144701298921 -0.47784723583446737 0.09119188692448811
P 3.890621832008947 6.001632697560041 12.602259262141501 0.21933464004171258 0.28275912704494527 -0.5108805121403523
P 2.0869195463004373 8.479711598041051 1.2676623177903314 1.747212436525539 -0.8534347569660592 1.1298070066480543
P 6.346674125854721 7.698564997278177 5.766277098311746 0.26536587126916233 -0.9147915628069858 0.32301540346183083
P 4.805974752774077 0.8058275802975857 12.691095100257069 -0.11628096868263199 0.9350582834758219 -0.5583063097224837
P 4.139541421032948 6.104570793325291 8.132357511292856 -0.704648102346238 0.21874791430030713 -0.2810460010085805
P 4.788420187436865 1.0885723913652863 3.754235391873904 -0.7490389697567874 0.44295248083981137 1.3991228637039002
P 0.18339516779562468 5.4047864923071485 3.5800593011493107 -0.1751250354040339 1.2633521617277728 0.40795513882902
Ni 1.168978972606812 1.2196771343382655 2.5327216550912675 0.8998387981518954 -0.5086526512510982 0.36253274483016273
Ni 1.9131320543257329 6.524915626702861 4.791504633662782 -0.32060936512349947 -0.045807545252417876 0.09988041583742154
Ni 6.076016448988902 5.618975631573093 9.221303173847131 -0.7348372243351087 0.7435242105861453 -1.105649178454928
Ni 8.817666283472327 2.379802186471969 10.148213075531231 -0.9098581300611104 0.43165402510785655 0.31297447428606096
Ni 2.3547731811426944 5.231891605349592 6.976824416080694 -0.08791090218037118 0.02817646243421599 0.3409521904459096
Ni 0.5147427728575582 9.087530533656238 9.029365144902556 0.5521996826041135 -0.030773533737430872 0.8028058790655981
Ni 1.2718088738245295 0.9709649181970352 11.350843257284462 0.1433549420812886 0.3528656540540439 0.5055048496507358
Ni 4.008048980931309 6.7448300607757545 1.7069204596978809 0.3511517566867307 1.0026883239199698 -0.03699406072584597
Ni 5.683171063109274 7.884118646297083 7.918316237908541 -0.356748791158534 -0.25515884882917345 0.4156651058787679
Ni 5.361797192087414 2.998819257756809 4.7997256160328226 -0.29064984264693167 -1.142443207354826 0.000356354898154225
Ni 0.9537259202901281 7.485196333331023 6.830439898132383 0.3428033847220354 -0.6468782425256214 -0.11092356102546057
Ni 4.816072910543813 4.489541766089552 6.759734761319639 0.8949467601669168 0.371482754934599 0.9830222129496102
Ni 8.228997782770463 7.1640298351919345 9.121606406401721 -0.5735961460020186 0.012044846979676031 0.26749243069386186
Ni 4.6541597701608435 0.3216885368309348 10.492803693211192 0.32906932296539454 -0.8371853849867325 -0.1261966851344472
Ni 8.217339820273795 7.15184893238219 4.636607909687321 0.22715824985118943 -0.0791884347057088 0.6655333957329634
Ni 7.23729557629629 6.0814171601532525 7.047846021944972 0.11601048863006472 -0.33647230029768505 -0.7083738879372574
Ni 2.2170144734964428 5.360498857517019 2.6494942270010564 0.13219249770656588 -0.7559120427275369 -0.08256172205331587
Ni 2.189361750389495 5.264304888547986 11.21216489598418 0.33413465330344394 -0.4347789438900834 0.5887090903840572
Ni 1.0318153349719914 3.4349785274987705 3.822248287695537 -0.014030767061453255 -0.6603456808844369 -0.17223382989916788
Ni 3.5451476255241356 2.506029158593674 2.5652106744729353 0.04319838976434496 0.5853823400036693 0.5293520885819787
Ni 1.3813017559278138 3.203433179566092 8.306704910051042 -1.0600627480743807 0.24845418311548823 -0.4407433890036345
Ni 3.6870988718872866 2.3569010072441747 6.856832154760572 -0.07108046088659371 0.5460017813235177 0.5100477318264119
Ni 4.1377742434232445 6.90900627044462 5.957541616197929 0.06275471462971773 0.0700615327037761 0.12586372727506065
Ni 0.7786959942612548 7.4165559091337 11.213048484789033 0.05890783007980178 -0.14904479337721427 0.19521434995474124
P 0.2631417622971999 5.638396552855246 7.918765245280802 0.153894922380664 -0.327202702070301 0.26812672184375114
P 8.50347833364911 1.7577917327053867 8.00026459145241 0.1687823810154577 -0.44097787361194374 -0.4078013868599751
P 1.9595384990050484 3.1346304635474684 10.42878948754213 0.033817462770077245 0.1281088145554955 0.741262154024846
P 3.9931271495840654 6.034226305004323 3.8622586313731992 -0.3938611226297991 0.775177061604736 -0.4997553487614684
P 6.95550287724688 3.976411091990234 10.312993371423822 0.8871630024564398 0.27734669778012233 0.8834017356417947
P 6.2391107131824395 7.743213280560083 10.073483101550266 0.3482569516374389 -0.3885489663882663 0.9948798836191446
P 2.6550851802448183 8.645781212291743 5.859956445671869 -0.9226771362026496 -0.38174788430603285 -1.3445386007001165
P 6.758976497865679 3.92716454043818 1.5732433913573072 1.5490657434153516 0.8490268577063507 -1.1312614797063936
Ni 5.2307916274496735 2.7078570708039855 0.5925725206253425 0.16443104602529746 -0.3957359710550088 -1.0732810465368678
Ni 1.4429636318092665 1.0442847565751567 7.028117647823579 0.05799071758217109 0.6776962563477426 -0.3635825262509158
Ni 6.985166215695481 0.6973174653343919 9.1445806169491 -0.7099450890791192 -0.04200051280150186 0.4823299541961693
Ni 2.957380746051712 1.4889012334492726 9.252538038098647 -0.3091692416073579 0.5837067520734592 0.0330553877930721
Ni 6.372938352268329 2.0062605111146676 2.5665171236343953 0.7077108004319618 -0.8605258594848858 0.7934411500212464
Ni 3.973489839206846 6.728709073193354 10.307252749055975 0.6514506923876522 0.7562434579250266 0.45482506390768124
Ni 8.233821456347972 7.168673184523555 0.2553806067541739 -1.1097279765099919 -0.19663694133388068 0.5775343047141602
Ni 7.743087053587961 3.891289031718733 8.203590096524822 0.6757861838092233 -0.23144170771789171 -0.8750759893849188
Ni 2.998593852449449 8.445017213132171 12.364767722200659 0.6905186049233915 -0.825833707419339 0.08256866403185135
Ni 0.016444669603769793 4.925673987194631 10.101775975730115 -0.04811202501587843 -0.20917646856178812 0.10689335682014493
Ni 8.703530052037422 2.211694908242742 5.719180011770679 -0.18114810166966222 0.7595288135445177 0.455374508653248
Ni 3.756154041850154 2.5368105073667815 11.787951934181024 -0.8616430038084645 0.5105280138969401 -0.9718692816565844
Ni 1.038820931924746 3.266438471079412 12.482108315484997 0.2542065122182332 0.16491569897119984 -0.06724231808742613
Ni 3.0287891474234194 8.385753649721032 7.977883647674003 1.5880230985151556 -0.10184833819706976 0.1743922710030674
Ni 5.353240806620022 8.024969914760316 3.619080566338277 -0.040049045502085864 -1.1335911562808347 0.626102700541167
Ni 2.782547373450857 8.4519055993251 3.552677064411195 0.7303239098457873 -0.2792302879560804 -0.9692881511929694
Ni 3.402357871417604 4.286487649007201 9.183865155537061 0.5879968948083809 0.09116180501750107 0.15000304352542554
Ni 7.1210225025476115 6.1319981111248785 11.355593899542386 0.4856075965061765 -0.31621046472485537 0.3862010349813801
Ni 0.34966494195925174 0.1956806586679843 0.4261440611253337 -0.6336074935586443 0.14618906909597404 -0.5032049978729657
Ni 4.63535195131471 0.4361800070302387 1.671092736903594 -0.685275097136265 -0.995310800508976 -0.533367637499275
Ni 5.903626469919831 5.621310830557344 0.3543082912908716 0.2575458610041113 -0.5945778904600083 0.801218222863504
Ni 7.809761943505104 8.636242059684259 11.425387497292164 -0.5317799812971808 0.6491999486802625 -0.3187064916738318
Ni 0.168622103951238 4.804667401991388 5.875791619324537 -0.8390887726570324 -0.07795481940892382 -0.4352286298329924
Ni 7.797508910997005 8.742407959450908 2.627878759646444 0.04864938557658718 0.32258397235136704 0.6272784660168229
P 8.406301597539986 1.6574142412317483 3.6437967091009362 -0.3318764533968865 0.1772528803803141 -0.6292219628964388
P 1.7731824070919404 3.2004938943581154 1.4703801301541009 -0.861686198341574 0.946533373994957 0.4711124882137951
P 4.90527931498468 1.024485154376638 8.255068160619743 -0.1596192264589509 0.37882762533544434 0.12809673037063746
P 8.20826951070562 1.5654398596164976 12.333374172612762 0.5859274138738619 1.1977813178054983 -0.6389386759635706
P 6.13805700578672 7.67539333168155 1.5652333883549558 0.516898179089342 -0.6801827702150222 -0.6882478066113437
P 1.7449075653366786 3.2094830580156395 6.097170286274041 0.5220337005436945 -0.40800321845813603 -0.7831382254333416
P 6.877494608475666 3.9872305467435227 6.0429071142013795 0.4138887307046356 0.3407884111745357 -0.12006794652889001
P 2.4031000790407187 8.524639383904084 10.199928266009495 0.45996444201677555 -0.46796185839995535 -0.32627247694654776
