# total energy = -340888.01487064734 ev
CRYSTAL
PRIMVEC
9.09412349060289 0.00000000000000 0.00000000000000

0.00000000000000 9.09412349060289 0.00000000000000

0.00000000000000 0.00000000000000 13.31016897658675

PRIMCOORD
 96 1
Ni 6.211386443211326 1.960383844502201 11.411925582982345 -0.6824749086833085 -1.5474300075841414 0.24025082136908943
Ni 4.536448949762794 0.25768744822595663 5.864088229425999 0.6642043925088947 -1.303272137851162 0.6191663784326499
Ni 2.894286677710891 1.7694709081039066 5.060619682545123 -0.9662465361531681 -0.9519306337511284 -1.6932568082446904
Ni 3.107889452451192 4.300483725129509 5.030152549714105 0.45496261792681 1.1292537052477454 -0.44329546600152686
Ni 5.220327043277381 4.885890648476863 2.528945722734966 0.0050964406863009005 -1.6092061603506738 0.42684349109309067
Ni 7.326598818313638 6.066053254215893 2.4139987288706535 0.007192403983381161 0.4735987449707585 -0.2833473954482475
Ni 5.335476836097616 4.633419589538671 11.52890875111711 0.08177239338280111 -0.7516442685901183 -0.7193612401866966
Ni 5.683472569161834 7.845964216194198 12.641732099953911 -0.41481638472522747 0.5215169088082761 0.06334683968776188
Ni 2.056481448414018 6.478353535142366 0.24198189679643944 -1.422574666968937 -0.7717747207914063 0.3041039112693085
Ni 2.7597391192860465 1.850390419754077 0.5194363320445146 0.3940261874527537 -1.206193967349226 -0.9652152666751765
Ni 0.5216070993440083 9.223260138862956 4.962962436438655 0.424518699614656 0.4065988819114417 -0.5016150276780265
Ni 8.862041550107646 2.245202701028575 1.3447526014235207 -0.5481465955806624 1.4638089910283758 0.5677301741395449
Ni 6.9322048667240015 0.5840164318513648 4.529224577987687 -0.8452175112625895 0.6241378635053122 -0.18038525536170869
Ni 0.47327637955699664 7.343013711382705 2.349244931303349 0.3833823345856623 0.17755087123670713 -0.49559581806714004
Ni 7.5784696650952865 3.802644117772208 4.0245161790874135 1.1065002136013136 -0.812133584224427 -1.3739072836702209
Ni 7.53590007259872 3.513341858318936 12.425189195058913 0.9915929853377569 1.1398535922507789 1.1473151907351464
Ni 7.8138801481899485 9.1168588929305 6.705251009150074 0.5902134428437255 -0.8259807745201646 1.1690320135869479
Ni 6.9581140248147335 0.8494875404528417 0.41971471988448517 -1.7714800508236523 -0.31350155043412464 -0.37530547111479884
Ni 1.8037466598918916 6.350408310439484 9.38088767353156 -0.40818705233416797 1.9797874865169256 -1.7750664826233302
Ni 0.0765525135051475 4.765984629022211 1.3264606812467223 -0.30548742188039646 0.7885583680076483 0.5533713343147115
Ni 6.377727057685732 1.9321647790211403 6.815711871850414 -0.7747998807709753 0.5532571773343504 0.13796411008302048
Ni 3.527510502862762 4.537567526963622 0.9290365676789075 -0.18921416650724834 -1.0823606402406327 -1.3189535531421608
Ni 6.4638847845202685 5.7684662481776225 4.587203253484934 -1.1431294347885732 0.49100279937981894 0.9993764859379174
Ni 5.221709350062144 2.9036718132495487 9.06785884564771 0.5049502626988466 -0.6465208591862027 0.3918726314448606
P 0.07791936027981829 5.534592671968651 12.289984131498949 0.47501773680547216 -0.025157987322866348 0.6479205677472067
P 4.013118513999623 5.9625166572123875 12.589423610511272 -0.023668290151217304 0.354797323859118 0.9569342576133067
P 2.3623532010372847 8.261820299442004 1.6926010096856785 0.21890989379946812 -0.5327572576087857 -0.8751474660528026
P 6.402335756103956 7.78229625698282 5.584108356058655 0.11365304414148167 -0.3390097220075581 1.2794601230332288
P 4.6814547503092045 0.8151035685942075 12.830909877572385 0.29902135454007855 0.8882791183387541 -0.7580679127282751
P 4.147229554492437 6.401417249621975 8.264855917894334 -0.6590734990402327 -0.16204069141624997 1.006885649830769
P 4.712647594202224 0.9786459212418255 3.838120293873277 1.3518564745177686 1.801936824651613 -0.3377642796362312
P -0.02278441722727988 5.6440222610545705 3.538176091002043 0.3826662823552442 -1.396873662658407 1.4482391616145769
Ni 1.4017045503681365 0.8892706934832795 2.5647365555120403 0.8353254489598582 1.2443509380349214 1.1038080114811313
Ni 1.541945030156547 6.680979702716814 4.5184562262519075 1.8281826457220194 0.873980956548527 2.058016385522843
Ni 6.089488810691784 5.565640009884327 9.135141718983716 0.56532105047742 0.6539937705244802 2.369222969275204
Ni 8.604532346703936 2.126669894235103 10.363044835889157 1.2951937317184017 -0.146552880193296 0.2582637130067423
Ni 2.3682189107489453 5.1119159960328675 7.4716500894779685 -0.15379644912958673 0.071216986464458 -1.5899532256583326
Ni 0.7268114509545124 -0.13177203190701683 9.30119950621466 -0.5183477670516751 0.015599397100153782 0.373652251782092
Ni 1.6060767896707075 1.0614024458559577 11.486862070726621 -0.4755934068032841 1.6891276165676652 0.6445094851831288
Ni 4.086162514626075 6.793301223102435 1.5813280417492899 1.2589720303822058 1.3909475269819593 -0.4506441930571143
Ni 5.763600892060199 8.176781149808296 7.918139728018379 -1.3464299041855585 -0.6887352877707235 -0.6897189918402314
Ni 5.278975046270408 3.0118827897752145 4.576422169976136 -1.1563868140191118 -0.01391532452951152 0.10452434236733611
Ni 0.8932330031288154 7.701167580490218 7.239600794459942 0.23837468739229917 -0.7625586015097771 -0.4221517420443762
Ni 5.183750478222652 4.642550089616978 7.417450931742221 -1.4982838848767939 -1.4057282848355597 -1.7929495335513381
Ni 7.791235780465862 7.289267441001439 8.763841384823214 1.4649497895010382 1.2165380295877113 1.6812155608094401
Ni 4.669013989246333 0.2685622012076686 10.400566280384261 0.21426133928386323 -0.3979396635745469 0.9085036729157451
Ni 8.51199054511345 7.179455898724994 5.301293844370188 -0.7815449128042926 -0.24231978808297622 -0.5844204903110323
Ni 7.2521543226552545 6.031277325630788 6.979467026989897 -1.163727313544583 -0.7239221200845017 -0.9976893280434818
Ni 2.338126455809587 5.633718619033931 2.6539017090157966 -0.4518047890241187 -1.318604140222542 0.15145571681155207
Ni 2.097841522473916 5.3837666323285 11.272860973373342 0.48989131148319504 -1.1877105638330576 2.7568501951801494
Ni 1.058210408477984 3.341899440513923 3.7686011755479725 -0.21554997618829974 0.3291012046445945 -0.30747334196217374
Ni 3.5292838569616363 2.72216220063708 2.805490745624644 -0.09551596822113874 0.3916890546791448 -0.1545479825836306
Ni 1.0721880764265468 3.358077886369806 8.564893790238482 1.5080111394668865 -1.0505524945911004 -0.8235474824883237
Ni 3.502810863208698 2.7902771862810196 7.0138600929721155 1.0946086043700503 0.44928973591174887 1.447899775997287
Ni 4.181305235561575 6.503835269424653 6.093408377956476 0.03236993169027328 0.9348482243475448 -0.7858941909119239
Ni 0.7427807319679647 7.551205482590544 11.378238220990244 -1.9403951007622326 -0.9481819653419735 1.4109324547443185
P 0.09205708480345894 5.742939043277418 8.021533547281615 0.7167271449979592 -0.9140971078431226 0.27804629495030825
P 8.787515207337007 1.4320698290150145 8.170087874850493 -0.206380908094522 0.5037958373794291 -0.2539918251042658
P 2.0758246492771235 3.202195514016967 10.526959138191359 -1.6399472981882723 0.0033956559451102813 0.5113137430230291
P 4.192172713244419 6.257993826579175 3.863263726758239 -1.532132972215755 -1.3459987301854108 0.03507678909847507
P 6.9898888926171265 3.4824036498862685 10.178445949495215 -0.31397669029833025 2.3931666245749943 -0.6699508080743688
P 6.374544114431343 7.9216455126600005 10.379083232241848 -0.6361752542858204 -0.5591712288259403 -0.8469668898535284
P 2.4374160970993777 8.482280043364618 5.807159925202701 -0.1197056780934648 -0.4383576623802773 0.13129184026916743
P 7.031358096160033 4.021666990168555 1.4674332379836423 -0.3750347339519154 -0.7549455650492095 -0.3218128985132974
Ni 5.123756544939197 2.7791914496321595 0.34906156434825936 0.7557958288646467 0.6556161366192514 -0.08378299605492669
Ni 1.689333491081958 0.9301196777977585 7.2119291952186355 -0.2562320272886942 1.1760961195225812 -0.2515207378559539
Ni 6.938143329424334 0.7968989520038151 9.211502346481241 -0.6258874992065673 -0.11170749037933664 -0.6242437929555572
Ni 2.9908026113075707 1.5664627873389314 9.296500572558822 -0.7336671152864074 1.5702400635001215 0.1272392674663486
Ni 6.104948820784535 2.2198937550943856 2.4893480898256417 1.1471084740409794 -0.2653550726358849 -0.010464132756117461
Ni 4.246082677850197 6.8094341983404 10.606354474728857 -0.12072460627628241 0.5750866145046161 -0.5070508539816171
Ni 8.290521353473014 7.150327420885536 0.2341755011119591 -0.19812046785794266 0.2221605395262819 -0.42410860866043093
Ni 8.043961474864405 3.680837426488506 7.800610912468578 -1.9740228161190068 0.6484905813180639 1.089979333128155
Ni 2.9125113013731685 8.52232146950484 12.797714507666175 1.7668314963080476 0.3524956723091349 -0.2714334176194809
Ni 9.078890926967425 4.621860958463445 10.211775003018108 -0.881814850770649 0.3877796923224096 0.0897214730265487
Ni 8.636607320584599 2.2305975385527184 6.022265958571432 0.662137482677537 0.0399747406207247 -1.0208642234980483
Ni 3.885437018880676 2.6607132075801907 11.482336834831237 -0.23691404368637262 -0.5330467638247465 0.4358163840156623
Ni 1.0129034847826426 3.487359947239532 12.853137734436327 0.41990305521951554 -0.32180955607918776 -2.088655707675254
Ni 3.2021318551518787 8.507434389197881 8.622606917327076 0.36978145597277606 -2.0803857543569784 -1.5228687733050095
Ni 5.610446756782551 7.827002968521619 3.5299504562203414 0.00029644819449626365 0.7731685158151395 -0.5042534937421379
Ni 3.183379772321732 8.62110183987393 3.6550919626222855 -0.9896134930138828 -1.4379115544363235 1.4743165754279188
Ni 3.5311299640491827 4.5136954525557 9.58400037671775 0.8637965598163576 -0.0697889957686798 -0.8923152360813407
Ni 7.309629183705949 6.114670438895799 11.234807522648577 0.2522074795103334 0.38446271213403466 0.21875665605105551
Ni 0.7241323221466746 9.047989095029092 0.4173838960099135 -0.08015105572929422 -0.07769925175469199 -0.9011197217468481
Ni 4.420989956740703 0.36018185866673863 1.8142421879201522 0.23966435273800016 -0.1658551800663337 -1.8831764854593953
Ni 6.27770079238564 5.6848275935758465 0.22083533122663265 -0.6367943759270581 -0.5651896671058783 0.16598142123155285
Ni 7.834769350062329 9.082437635165173 11.397884256168695 0.8675128323256801 -0.9029259217176514 0.308533664905888
Ni 0.059482843538034735 4.74637769857517 5.807839256234424 0.41631250965477984 0.46844214047048355 0.048648357135322666
Ni 8.262147687891026 9.270276757792086 2.2749477604470263 -1.2801468646876082 -0.7570356148090188 0.8969864163047648
P 8.559116293525586 1.746744693267564 3.7436450816088405 0.3684539954106042 0.1496826840715293 -0.27929739374859
P 1.7599857372058254 3.315008117076122 1.5869181995163564 0.10456110914254249 0.9068178005728899 1.2160798590043702
P 4.72809851017139 1.0684685798807028 7.946490658291409 -0.36529153852222246 -0.12052483156065047 1.12272438876966
P 8.687770859868017 1.4990389550873737 12.637379652406624 0.8628773904361978 1.0749399222965292 -0.9144022977883671
P 6.6149108948792685 7.984385871265813 1.559006515412434 -0.4291078616472352 -0.27767554187445076 -0.9265404758127979
P 1.5597695123811293 3.157070472793305 6.107344212936552 0.31180667923020494 0.20093274049575718 0.4867373392352456
P 6.5210777277398595 3.9857633902590393 5.9225598064214955 1.7624593353822808 0.28574109249140467 1.1840976496708189
P 2.394655528007548 8.390129289088245 10.619038958303777 2.42050233627547 0.036882989069278414 -1.1559206730159706
