# total energy = -340889.83685919514 ev
CRYSTAL
PRIMVEC
9.08070697901420 0.00000000000000 0.00000000000000

0.00000000000000 9.08070697901420 0.00000000000000

0.00000000000000 0.00000000000000 13.29053255571479

PRIMCOORD
 96 1
Ni 6.011954599165699 2.3996312627551224 11.06996369301903 -0.7888715283726929 -1.917064653566408 1.5769886950778647
Ni 4.489764794792748 0.2560041948819277 5.693464244479374 1.3803319562496421 1.0245774106835772 0.20938215681469102
Ni 2.6459454353840606 1.6595808986356542 4.653547147301036 0.7955743943141652 -1.3859922398592128 0.8477428487876045
Ni 3.559918577323328 4.3909757852432465 5.000762501886977 0.04883527633514815 0.17630002954874155 0.521588899696792
Ni 5.114608231423061 4.879490570309384 2.6069111090259867 -0.2375010265380942 0.21178690960144173 -0.003185853927149352
Ni 7.333987463701337 6.116210194223868 2.533494502416302 -0.00547207885816477 -0.42140329391412584 -0.09739827284551612
Ni 5.022411815028531 4.852756969416496 11.003404836203607 -0.23974997047327096 -0.9391149700436987 0.43507410653299905
Ni 5.623073329383789 8.156363515896528 12.380941705065878 -0.36426412569897265 -0.6475701263863234 0.01576497614374059
Ni 1.6807026227106738 6.353498144268726 0.16082204208332843 0.5812459492377925 0.6806836211108406 0.9217032023251546
Ni 2.7743647913036344 1.6669816746980533 0.22503626039652794 -1.1534408440169104 -0.4120367650975614 2.038704315457792
Ni 0.6645297577384239 8.968859759066085 4.788937761850186 0.32261328292740565 -0.6335051636528252 0.835085307924594
Ni 8.71587126692075 2.1434191196869015 1.6040741700969758 -0.33041452413937933 1.2910534842977828 -1.791595847736921
Ni 7.023699711490064 0.4908040312567279 4.772749585793204 -0.10703116794958986 0.6194944511960299 0.5863722147207644
Ni 0.794779784153924 7.463759844937841 2.3182408874823786 0.13927845801906982 -0.692169253152937 0.4095643922976688
Ni 7.792635804019953 3.744029908200811 3.821718987371672 0.9069373568698896 0.6463311117728997 -0.6435504637039691
Ni 7.480849735182548 3.948518345193661 12.527004874346485 -0.022772774920141427 -0.8458651721489173 0.3650452268393713
Ni 8.204000903900635 8.821870357689326 7.161257890758347 -0.5974176739016485 -0.31497093589079944 -0.7123215597310959
Ni 6.759024349660915 0.7141549124665303 0.45059829371822513 1.0366641666447824 1.338626863201372 -0.7313076139152954
Ni 1.929477666889195 6.209659748160251 9.572439812594908 0.1322112667596433 1.2092512661183108 -1.9450567679039596
Ni 9.113578983736588 4.660164258364436 1.3701206555982683 -0.5000901063930678 0.26176992638778784 0.23011810381046174
Ni 6.4275422277200205 1.8420667829914565 7.022491069411652 0.4671861565761954 -0.5579160162626005 -1.7040690683688458
Ni 3.431326687974078 4.309376553713527 0.5068959518213635 -0.17439792743002222 0.5715878573227382 0.31696096973763477
Ni 5.884879187856228 5.509510009829965 4.791104418498638 0.7523014425581431 0.7682173424574511 0.427012155460471
Ni 5.78378367877317 3.058808851890874 8.775738550876808 -1.5732148298577293 1.1419120174417041 1.0050851062869206
P 0.051461273648127394 5.342924443124789 12.483145968452272 0.5214780851505406 1.6277440712538611 -0.6197795865366165
P 4.209824764790723 6.124301104004969 12.523655001598732 -0.07768511068730492 0.40841536629489017 1.9466937892867509
P 2.4922635530772532 8.57045282782472 1.3150625139767464 -0.6872607601077261 -0.34571027395618525 -0.26235588079824496
P 6.396495291085242 8.047177097032367 6.106082481901911 0.02871099478144733 -1.2692194191418271 -0.4490945891818072
P 4.716464640679622 1.2782729383458202 12.602654426764444 0.6523091837332056 -0.4481980455094668 0.08024515810499729
P 3.8199355365512364 6.03069717805256 8.317188282191903 1.387299388706411 1.249209037458171 0.6218675794138968
P 4.675701347742061 1.046533300171055 3.5379133004742327 0.2730336722270652 0.860446669507518 0.07765400033905336
P 0.28748882158567163 5.596712037470728 3.4773876652733606 0.1953876423078119 -0.3855639156180134 0.8821262113634808
Ni 1.2459819448760137 0.8868499787235854 2.597913944703747 2.598952579397995 -0.14001687884699113 -0.8685333031703946
Ni 2.0446482715510506 6.430266439767529 4.817804420776273 -0.6379667989686044 0.6472042584064724 -0.3794616593750174
Ni 6.011536886651747 5.876007337288174 9.076623231170764 -0.013126767189945135 -0.8211545567761149 0.7603119715674455
Ni 8.390536783500401 2.473457409242616 10.442490483692188 0.8217083723970559 0.040122321942182515 -0.9281278749045757
Ni 2.374041830922188 5.25248060314749 6.953327865878811 -0.5961943430175087 0.09392676935714792 0.3759675301788299
Ni 0.3922565685087725 0.12190394877261497 9.40039310880516 0.39961730838728593 -0.8909695206867237 0.33536724015896435
Ni 1.3778156465617988 1.2523656817740096 11.462738769887512 -0.20056892939843524 -1.0965441308298662 -0.34817596188785843
Ni 3.9376850619514 6.713638976949415 1.5705954201744552 -0.0010919475125981193 0.6947318716737906 -1.06740736136491
Ni 5.505169431967601 7.978690406157992 8.10505843040579 0.6541565213545895 0.20739058030595897 -0.13329704362465433
Ni 5.766621142873863 2.9770098448110036 4.915011571196854 -2.681796351468104 -1.6663021340327175 -1.219336418268455
Ni 1.0580839592524933 7.421507316080977 6.964624265169149 -0.4647662342807931 -0.019896738923927022 0.46877895498461203
Ni 5.0944581429783184 4.679805827226975 7.014118657718975 0.3328341893244655 0.1724657434043159 -0.20270217369135413
Ni 8.23172430183745 7.095764200853501 9.15875822440316 0.3120961854461657 1.06523169386983 0.23062126869912541
Ni 4.563291277955016 0.4189438577968531 10.51944311753954 0.23818648264089304 -0.24170837975122242 -0.2180701715069922
Ni 8.119168940741206 7.139278947959045 4.5053046083824215 -0.13430363051229774 0.18597971873035066 1.206741869432896
Ni 7.376022055594402 6.09724059766638 7.10127800603766 -0.861027995932285 0.49452855314489025 -1.6032548278632452
Ni 2.450710238645916 5.123107773011289 2.698323860421516 -0.9980909343572748 0.6838422213444804 -0.3610548747330556
Ni 2.54432324530515 5.207086149729166 11.53634153098711 -1.3052151205101457 -0.8523422952328289 -0.04464386396161989
Ni 1.319680961467957 3.392760926088176 4.00430475950255 -1.1891652940017134 0.6590148778881554 -0.42089370126755904
Ni 3.738726775414993 3.169502668087989 3.0775559711311478 -0.9317114784907762 -2.0218049685992923 -0.2155422628788159
Ni 1.1656903351290986 3.4521759908443475 8.19579285300149 0.012806407736048912 -0.33794554240910185 0.6020173774571891
Ni 3.8271183756498353 2.644047567657629 7.207920918920129 -0.04966445710466286 -0.4517952759424219 -0.6847415932302982
Ni 4.147349501834517 7.0048481641213005 6.230575340190342 0.33895007241421626 -0.7078745797033358 -0.15875687845865563
Ni 0.5612103835539154 7.475319584726104 11.32916883705678 0.1026338102128426 -1.3698480259991828 0.40719537784486004
P 0.24015926954293287 5.643323305603606 7.9372651296928876 0.9444746916937152 -0.5578766783842328 0.211369619558365
P 8.598575776861837 1.5561879707258626 8.212672070847855 0.21376743036658025 1.7753701299066778 -1.0833602851497408
P 1.7418793445909007 3.357246281695484 10.313306532257947 -0.24817958929786293 -0.7818328763583566 1.3767861478799126
P 4.048796590662467 6.398338674570724 3.8693127879830196 -0.8241007838886323 -1.203886402261972 0.26718904052083015
P 6.891557265772227 4.109119726101141 10.345376864551906 1.2005303413055453 1.9316474364765897 -1.2347722932075509
P 6.529954439292709 7.8115599970433145 10.279084072446455 -1.579278776663622 1.0267988438149285 -0.6161885267512486
P 2.535778300182797 8.544291311461809 5.889247915909751 -0.26725511787207523 -0.21796758449085687 -0.6861605850650118
P 6.614341447817712 3.8796684260462833 1.549463707321928 2.290437169324552 -0.9574045123815058 0.2072599682653656
Ni 4.940567404414536 2.565753713412221 1.2073716875266687 0.4544198580494626 -0.8093125698358642 -0.922947873365533
Ni 1.6857605764122154 1.0276363492681677 7.103417420565637 -0.32270841374437326 0.18428690440896006 0.4164657474031924
Ni 6.7853947222808015 0.7163415466699975 9.087760718091662 0.320656416311351 -0.5359991615848511 1.8276383431827752
Ni 2.5954022211959433 1.4383930417915736 9.386677609216635 0.5047463742181566 0.839222212911103 -0.6133173758510405
Ni 6.661388589878192 1.8553064535423502 2.781960802562772 -1.4576375721103412 0.326652743104102 -0.01645017513622328
Ni 4.014444276743379 7.058587787111829 10.619268235737776 0.4159834084501352 0.37494834488569617 -1.205808301875033
Ni 8.16151227666632 7.128990507126287 0.25481099000511875 0.8239825131432131 0.17408785238877114 0.8928705943641783
Ni 7.961264529760759 3.685023475251766 8.15177503473784 -0.9857766357662957 0.5469368915432774 -0.48702941655436766
Ni 3.039212686562459 8.537044907415435 12.47182232704146 0.36692830279469707 -0.7236441838327667 0.06003962969139983
Ni 9.067158410447034 5.026988491268346 10.072522510085452 -0.567532456306442 -1.5208309169393746 1.3588843278988274
Ni 8.882947191794477 2.2697589937435434 6.013354844158118 -0.35140886700285934 -0.10856405965434851 -0.4668403432010024
Ni 3.5240497853644595 2.987443576952963 11.786376069202262 0.22357824580941493 -0.11713380360123053 -1.6565234573793985
Ni 0.8640928193493779 3.2053805407536826 12.465828152466258 0.5907960548200728 2.24614940315077 1.2333957245749985
Ni 3.1922316772710393 8.30508733227687 8.425918849573447 -0.7406913691230405 -0.10484444471091621 -0.5083677730208277
Ni 5.620648780661506 7.849145042592114 3.661182987553332 0.7580442585791912 0.46095097429976095 -0.2161338737162278
Ni 3.208231882696742 8.421311298930428 3.388088902426698 -0.4587408540223196 0.33410791383056654 0.7433681446242553
Ni 3.4061912914823953 4.065831996666223 9.176262194879088 0.8391985587620193 0.20156754586627867 0.21408599004826356
Ni 7.145426586479591 6.364640171543037 11.677393966241665 0.4222566430533567 -1.8059433747078446 -1.8399899227695924
Ni 0.5761136395951546 8.872903930045993 0.15424579420064174 0.3960738140104017 1.283301865376822 0.3909732595590428
Ni 4.736451276401512 0.004519467786817421 1.3478057266464398 -1.607386590643432 0.6955129728141892 0.6489657211822695
Ni 6.11097970709265 5.603967522223926 0.4061064625583083 -1.1496716067824653 1.1748740741900217 -0.32652470216666996
Ni 7.957704892685347 0.04482600117107799 11.436928676878729 -0.5600752286974483 -0.2340305514909905 -0.2448970618918492
Ni 0.04991482927582479 4.757809098853984 5.862785828150931 0.6480177554467034 0.5103608921914565 -0.4828763136179426
Ni 7.884142086695778 8.868599675010929 2.4840400649765058 0.7761864767058568 -1.128702717840282 -0.05991133164365166
P 8.697510077720539 1.418124904158107 3.715594582848912 -1.2474100365762195 2.1472501202796956 1.3808464339922155
P 1.702868628070572 3.2453810543179396 1.566807857357735 1.0184049633242784 -0.8583033979122702 0.12891794072035218
P 4.699638090932841 1.078551872436111 8.37970713254087 -0.19175518776154715 -0.4015952580492632 -0.034596764138263
P 8.314603913029499 1.8206181534707357 12.513328421797306 -0.07113214006013556 -0.9569219163181327 1.2155147305295195
P 6.413112984575047 7.766719466741317 1.3477793925966473 -0.5938471829415708 -0.9003116240232559 0.11626682761524491
P 1.9765883738974506 3.1826606122774574 6.256690544948446 -0.1409249924835573 -0.45625716836851743 -2.3668223302535107
P 7.081480249017729 4.011483966318419 5.984727007821528 1.0186399621532198 0.7776383786610349 1.7279150217485082
P 2.2196425727762032 8.49154148551521 10.422089767739076 0.6293242928022581 0.1723554430786967 -0.2732995242939422
