# total energy = -381170.78689453367 ev
CRYSTAL
PRIMVEC
9.26223248067592 0.00000000000000 0.00000000000000

0.00000000000000 9.26223248067592 0.00000000000000

0.00000000000000 0.00000000000000 13.55621347627421

PRIMCOORD
 96 1
Ni 8.075462736543788 6.46886365652879 3.378371553977241 -0.0873318897484496 -1.5604649863912285 -2.046932616904855
Ni 2.49169802722516 3.4779776033524823 11.639324391675324 -0.6255393718385291 -0.43167716503630815 0.20476471264733767
Ni 8.913426182054991 6.474180178040916 11.080021697483508 0.1280753902143988 -0.09746794974118697 0.48527772397058355
Ni 2.4198972001136787 1.8471022116941422 4.99362063301693 -0.08018139474659738 1.0077724233110967 1.714308486708667
Ni 3.298281028689189 1.259154210741791 9.974662227940453 -0.36831104207483667 0.8492006642800536 0.2557838840076821
Ni 2.6073925746257682 1.8850866275847753 7.685790422626108 -0.3382211646679917 -0.22343220714985393 0.0012654969759849173
Ni 2.429946722484158 7.2473265198206755 9.477175674117836 -0.10883813925134159 -0.29675569843435345 -0.6675152020496826
Ni 4.366133087320486 0.664344747879715 12.261866831386882 0.3650508832663261 0.8660881840640117 -1.0760822634310885
Ni 8.911110623905111 3.7818992416405433 8.658529540916192 1.6811332855082788 0.3246688799048537 0.9257274929931993
Ni 6.266715430044259 6.690518144867911 6.72994191170451 0.7599664153025686 -0.5015605202910072 0.26866948172109856
Ni 2.086679120113335 5.546308240686169 10.862662106400785 -0.9637610507271531 -0.6209108719275822 0.11185969968648478
Ni 8.970129570029254 8.125506579278996 9.172337074802423 0.4542092847005532 -0.8033928619173195 1.349576163124024
Ni 4.472963678123354 3.2401512568945994 4.173660189009414 -0.6246487417034596 1.0512353795907379 0.07397629437715002
Ni 4.437415229406395 4.5260733198490035 10.523824629882313 -0.09576536522778346 -1.0507862078684613 0.45356445202770274
Ni 8.355886090726866 8.175179932710224 7.0789326475985765 -1.2984047824565317 1.1467770588434893 -0.11074461224543508
Ni 4.606052698345862 7.765594744926836 13.102378317086215 -0.11636684352821895 0.6462231254401257 1.0009816256415085
Ni 7.1803883648239415 4.101955689116968 7.273640522635913 -0.7642974385777547 0.45049712595628866 -0.6415393468112113
Ni 1.9117062840757966 3.4623429547244924 0.6065780556030266 0.31459992570462597 -0.9578194884317376 -0.12066161424883091
Ni 1.8052091336465117 6.317139024316048 4.525538889028011 -0.8952275246321292 -0.7673524233539946 1.5701565026473796
Ni 9.25232201063884 7.360159037348032 0.6598905402226056 -0.4385998602980704 -1.0426648643129075 1.4333751000185508
Ni 3.2944742510907856 3.8392880348271707 6.4939689379897905 0.027945063149700262 -0.792462588158061 -0.7677316610702842
Ni 0.8661456406417641 0.471556933660259 3.926855960492816 -1.6289550608428272 1.5694216813638842 -1.3011458355367786
Ni 0.9403574268989008 4.9104189237987 2.606453384240177 -0.2654178075530203 -0.023695286734410806 0.4255342853633639
Ni 9.02815745726525 8.858112128970657 12.77011609949014 -1.5828965759218676 2.7472000736848945 -2.731511459305044
P 8.55314385839885 2.1018413948787495 4.128409551644458 0.8033172714843778 1.6251847951671172 0.5347470343453048
Ni 5.590201960975294 5.619516927152776 0.0385262564977048 -0.07299567563143557 -2.246758754599995 0.7101435782431705
P 4.448353926106429 6.663481687909911 1.5202482117129295 -0.5787630349149387 0.38038802784402875 0.665190410571248
Ni 6.018080058142735 2.6047065271719076 12.317812568734505 -0.7397295194304034 -0.0018866754997515897 -0.031516068330410235
P 2.9617378071856177 8.426455040902612 11.394242012198976 1.990310754645753 0.8549607066922824 -0.6837820575305062
P 0.1621372341011232 0.44063404390350047 10.647470803969608 -0.8520576741128745 -0.12979931488404098 -0.33926220433799636
P 0.8876682905332695 5.8413937090742865 8.507445855199336 -0.33826975851774 -0.43155040965045677 1.0620404406260417
Ni 3.576249891233393 8.611421825915032 6.721793925686712 -1.2626559069916965 0.6499987904324741 -0.4708065269376021
Ni 9.390885010327665 2.555440711975059 13.107828214747773 -0.8976297063157185 0.7561658106095557 -1.888046411957187
Ni 7.802171301462341 0.7941123314920345 5.661779568281128 0.4159175882092062 -0.6579393854357894 0.1762126120412578
Ni 6.661425472272819 7.195272772611371 1.5052545095808259 0.5879156479484843 -1.119151583816737 0.930773797167855
Ni 6.721092774678928 3.5619582663323337 9.617605013675462 -0.5629615491063079 0.27230425026020844 0.1916762548944957
Ni 6.780899010574031 1.2759373762121218 3.260106737030266 -1.0339786493928191 0.6494022944990557 0.35472944673566004
Ni 6.225257676928807 3.9239170540889883 2.114538989549432 0.8486216518481321 -1.3232681213571147 -0.8382948160008272
Ni 9.272143188401813 2.7714822873588703 6.368926019226486 -0.6068183983902581 -1.1146174433918095 -0.3424920241292037
Ni 6.716369036053172 1.7549893084919128 7.772319125794088 -0.5267663301326735 0.01009312256994391 -0.28101334799843214
Ni 1.0727795663742428 7.700759116730193 2.7599091277257695 -1.603414236259245 0.08162404073039492 0.4758839414605095
Ni 4.476094312741992 7.20321050594916 4.798520039317374 -0.22926938265692126 0.4621185122453009 -0.02733545459015937
Ni 7.476714972380396 4.108031713702253 13.408409891960446 1.032328515383906 0.23894932894884655 0.602699234015562
Ni 1.1512677254225783 4.741623996905041 6.643019563651051 2.281685648384167 -0.4843680676721206 -0.1664323927260424
Ni 6.469873239882138 8.58772903492546 8.558173250700388 1.591691805615994 0.4507413807566108 -1.2529070551350487
Ni 4.3791187374250145 0.7367411365473456 4.33111536453148 0.6770421677035113 -0.8502615014444003 -0.38644400423012154
Ni 8.906905570304929 7.584027199278438 4.99421712079634 1.0160652594475081 1.193861413925802 0.09212931113709294
Ni 8.927606660164857 4.144941710611342 11.253812672641349 0.08617155089176128 0.08792530035807437 -0.3826829945257926
Ni 2.471348902204014 2.3924439426887 2.672647781959169 0.09406869425165089 0.36810946758699187 0.2590936651072054
Ni 0.9503884248041814 0.32516827364810025 6.444067733636614 0.2286877991218384 0.7066057402932412 -0.18098252262607542
Ni 7.097093107056456 7.117145840634417 12.780283252214634 1.1417662358924594 2.0953174359661464 0.11671419956530868
Ni 4.752664578163669 2.0392842759015894 6.393476492954775 -0.7828908853092258 -1.5458541784565896 -0.010928473987045694
Ni 1.6888106565683398 -0.013356139408508312 8.720481836104604 0.23434268341477058 0.6849475385935172 -0.17096010539306686
Ni 2.443599253335851 4.0974727685387995 9.011194604482489 -0.06400838453116074 -0.04652025504872633 -0.7269799330742189
Ni 4.3043076847186885 8.59099860303309 9.006748732834719 -1.3160320086199917 0.5323029436801865 0.3604727769773405
Ni 3.319519328039889 5.647359198346935 13.035953289775495 -0.3784828404015159 -0.5911812060736334 -1.23550222939504
P 8.388563247337974 5.55243983866705 1.2854070828218713 -0.4975765959425946 -1.3787013626247546 0.8084749044259173
Ni 1.1140983860007032 2.2662738102180344 10.101521470516523 -1.029225708088866 1.2142458911194252 -1.4770892530770496
P 4.600662078972941 2.608633713794104 8.46277781226489 -0.2989467925484013 -0.8377811095892024 0.9408733474957022
Ni 8.594295957838519 5.91701057601677 6.725535867656918 -1.1056836312372893 0.8638554380787509 0.518193757972314
P 2.2979506457083936 4.0895813463640085 4.500147404579686 -0.5621354536605866 -0.6358371542201113 -0.05300020634611517
P 2.092940389350611 8.37856003613049 4.835135497229798 1.7067566425033378 -0.006038492884596053 1.3667022812813494
P 5.285113281379695 6.717035916800339 8.692840555357854 0.03327933087842011 0.18017185379932196 1.1714372805943307
Ni 5.316984623754643 8.929505417847759 1.9326009545970546 0.39708117222899353 1.0225830059613679 -0.029521149387568515
Ni 7.789972941128773 2.0610690469756614 11.038445387790782 1.5058218451250518 -1.236712447653057 -0.47183008310610997
Ni 7.602329370895091 5.994915214411336 9.149793726878451 -0.48601048837155003 -0.501882165296484 -0.847775758908069
Ni 6.538895397213763 5.402826995486999 11.512424395275815 0.8761627946911942 -1.5926323151523927 -1.8943003632866988
Ni 8.878813218830585 4.716004661534767 4.779324062254869 0.02411694765286169 -1.146094430954168 -0.6831660212130621
Ni 4.68621732149471 6.762031842768808 10.969890973205432 -0.4723787565207284 0.8154695905761955 -1.0196712316312115
Ni 1.8692482098395953 8.911768242419678 0.4197819796522003 0.1447543935319765 -0.25803694170791686 0.7962102281259513
Ni 6.643012153864972 8.232142663197273 4.113076851799212 -1.0001406177974517 -0.6171058963591953 0.37079524194927105
Ni 5.831381235634205 5.478425337964284 3.665681378098062 -0.09901241141017142 1.1177842711555654 0.7662962141753383
Ni 3.6433269797191197 1.0227357236390346 0.9419505309060182 0.14295719242223767 1.0234417544172374 0.2431368846676329
Ni 1.8879764441558253 1.2073783305104724 11.912793661622679 0.1039720694082919 -1.7426662119157537 1.8251950238486048
Ni 7.075854807705756 7.86495071402189 10.554949436309741 -0.8068566520962038 0.261778153917904 1.5466303945009816
Ni 3.840529173995507 5.9815868617006265 6.825119687673921 -1.4022302989846303 3.040264953531222 -1.1947065355349167
Ni 4.9070752578302725 4.665099431167804 8.120009444231181 1.5667685600117534 -1.0202836684042298 1.2144734337491987
Ni 8.168437027377774 8.782430426399975 2.5471315631100295 1.2280725125898722 0.7075035695171621 -1.1562317764984862
Ni 3.343489986007447 5.539407877399525 3.104739268736132 1.3523025609162518 0.055217268602092 0.4578754206982308
Ni 1.4121014576576703 7.292090889974157 6.818341585857592 0.4997556058717845 -0.5028350161280566 0.7769966313119779
Ni 5.81484815044406 8.843227721183228 6.236969770050901 -0.09357452822405175 1.5577450163569042 -0.1626616128297005
Ni 0.8694596674658724 5.239191132151273 13.360651968230798 -1.8398210012918959 -0.35052877839075114 -1.3078080780483026
Ni 9.04109679620678 2.9291625351331043 2.088687172140911 -0.4279842895657533 -0.8114213886487509 0.12700581129930386
Ni 8.816024544038436 1.2100736401969328 8.465584268742544 0.34884599137168953 -0.04404659669725317 -0.149382122111975
Ni 1.4839485959321492 7.273742407194508 12.214649822041048 0.053167842272231015 0.129387424157603 1.1902019627963436
Ni 2.1466057650322314 6.409715039148253 1.3163596117229484 1.2673517698054688 0.6359711086948144 -0.9666280878623029
Ni 6.523733122448349 2.8736261884663805 5.355937869175187 1.8392885258271934 0.21331697309272296 -1.0863394223827225
Ni 3.8716502755298947 4.086737840955956 1.442014764061081 1.537439729140649 -0.5106964211540044 -0.01355434164566698
P 4.878195616584969 2.105101700753781 2.42623719832805 -0.24524981724557762 -0.670357299484168 -0.5495547887820987
Ni 5.573066830666182 1.34317192265204 9.916329613251934 1.2240150546910469 -0.2701704917466573 0.6091478178543832
P 4.149934053982483 3.53633893096206 12.90920241532084 0.48082123086112677 -0.03934507745652578 0.027078858494663044
Ni 7.29454538161303 1.285162559881244 0.8409986791340663 0.4787404370726981 1.053377365634405 0.42357047676877374
P 6.403074018374397 0.07719793004722209 13.012460563010071 -1.0369811836645688 -1.2501875993213565 -1.0101018427752217
P 0.2696013616137979 1.0482068632877155 0.8951049370874243 0.4419998871185549 -1.264204996646371 1.4680585103333492
P 5.748299009216507 4.878343812306561 5.746993960643234 -0.9359553413687944 -0.4019397858728755 -0.4486024800367371
Ni 3.279867710281342 8.192305800786738 2.8496379322568828 0.4548659444479457 0.150905757845353 -0.05352522561164975
