# total energy = -340890.29609388363 ev
CRYSTAL
PRIMVEC
9.08234364411890 0.00000000000000 0.00000000000000
0.00000000000000 9.08234364411890 0.00000000000000
0.00000000000000 0.00000000000000 13.29292798052929
PRIMCOORD
 96 1
Ni 6.604916385135298 2.1928955256349156 11.738572128297719 0.8198780040565364 0.24770264966144434 -1.2661027278897161
Ni 4.438168926638802 0.3576572403857906 6.115265445644729 0.3432034483739315 0.0792838226329925 -0.46210154296443634
Ni 2.717609760712349 1.5440892303587221 4.766857123973289 0.10482798965068398 -0.6206427058678602 -0.811053720896687
Ni 3.4691373617667742 4.270853993389768 5.120941370398588 1.1464315025786127 -0.14842592884629277 -1.5263973552835584
Ni 5.272972535887799 4.85453080292452 2.554621655940127 -1.3541511840892164 -0.5237517116760657 -0.6135917125583498
Ni 7.240398882394103 6.267371086351216 2.62831760813692 0.6909580064536551 -0.39041687283494053 -0.6654102398915379
Ni 5.305296596653911 4.518393267393808 11.562254776101968 0.9652965135350731 0.5185408568990876 -0.48448633841753974
Ni 5.722121672461705 8.050198799794517 12.271804693409582 -0.20368176399580407 0.38191886266625835 2.1340752734606343
Ni 1.8023638344626631 6.614307528386818 0.43316057895304033 0.26084201525687983 -0.47662904715665005 -1.2599050837194365
Ni 2.9301093532228073 1.7237289038324306 0.3108114204853892 -0.5290134742956373 0.6928673076612261 1.0155104153853027
Ni 0.23626536093043168 -0.20469967585242604 4.415352263121908 0.9839467816464087 -0.43345302598980834 1.0098056516910414
Ni 8.416816680346603 2.3083593594420475 1.5882521259685054 0.34859350904125125 0.9761653379287768 -0.7208414242766488
Ni 7.074954911920516 0.4188695113454323 5.052881012387065 -1.2985487642335636 0.14340456437230142 0.1860077437548087
Ni 0.8594694379167706 7.4381396666030914 2.3250390834086008 -0.8582656026957993 0.4980964730018067 1.2057517376054847
Ni 7.5054579971449344 3.6875495599413908 3.830955223742044 -0.6358950040412403 0.8649435289366072 -0.2248907939732514
Ni 7.807518579600498 4.121948970557398 12.702349557414424 -0.175707133159749 -0.7687179362429536 0.19162946081696028
Ni 7.882257184839143 8.721402154314664 7.463327730026148 -0.5361179465509024 0.2751561178867068 -1.1958473340075793
Ni 7.14695973174455 0.5693385137405798 0.3048043584481016 -0.8157338999811757 0.5625668847710505 -0.20049102497264826
Ni 1.457625319571033 6.802293875601481 9.35138892547918 1.3471891509490863 -0.9153510348548817 -0.22213945648035935
Ni 0.3081602843972666 4.9277617391305215 1.4094362210566085 -1.850974446805554 -0.440768328704299 -0.4928079709093577
Ni 6.404841438628785 1.907927913778347 7.180919522587644 0.28751078279731773 0.21480821292626873 -0.27971802622577635
Ni 3.151491477744858 4.2578117480230535 0.5379444849560496 0.23730767958036553 1.1949561896518777 -0.28313836476123494
Ni 5.937164321171801 5.491884262958773 4.746519032016685 -0.742371842149257 0.2111114808009719 0.9094917478606271
Ni 5.439433728841242 2.8196044790049695 9.352970161494742 -0.33787920794754067 0.2472478215122129 -0.0008613195590307747
P 0.18179218889983048 5.633405340468623 12.307576411794917 0.4960429329068877 0.07356183254755072 0.8710532413787707
P 4.0815779533881456 5.855405064353443 12.672852830201695 -0.3400121951301434 1.3770000636629318 0.31324701122115733
P 2.4336502889920655 8.758367292645115 1.3546024799862728 -0.4294431334994669 -0.5174306545540444 0.5561872064969519
P 6.085142944960018 7.809135236755982 6.052442875170103 0.9382505651608745 -0.2801407155854917 0.16189850941143083
P 4.939441632961716 1.3087566261129433 12.670433293874611 -0.2971300510546367 -1.1903716556049886 1.2637884779342428
P 3.7902072893146315 6.109056755580184 8.3586460862486 1.1670460935051707 1.041514038537916 0.6998136570720722
P 4.7322188820655064 0.9440187906798752 3.764278106656252 -0.6319077372587182 -0.33799876424454045 0.5818535009148044
P 0.0762117613657203 5.726081574258285 3.607395153231874 0.6238146758379386 -0.351760079694691 0.4083307770008838
Ni 1.2382958046958326 1.1157386605604254 2.68776336327217 0.8958579591272765 -0.7177414451950864 -1.4823335321951243
Ni 2.0101224436295104 6.140290935117881 4.8087966618771025 -0.4761747332280509 1.303100388159988 0.246960115068465
Ni 6.01545412274637 5.350544832320326 9.13458066917905 -0.356988675083482 0.16425081169369132 0.557407194946982
Ni 8.836666176563252 2.4126155812836316 9.96421914963971 -0.09398101963385104 -0.9550673796078971 1.0542960207939327
Ni 2.4506342714682186 5.204854959111783 7.04785683164466 -1.186357906459905 0.1365425471451455 -0.3054087461236611
Ni 0.6938501782122802 0.05630326425998347 9.153151337076906 -0.8166864937024322 0.4088403696474507 0.05963673782602632
Ni 1.67271337999898 1.270701606554076 11.498940850840196 -0.5555835114746819 0.198395061675568 -1.1102085156908366
Ni 3.955188060266141 6.954141577750575 1.3638410398658145 1.0100550486976863 -0.14494671204844067 0.5046756688812212
Ni 5.657400892180921 7.479046542042981 8.210669278929098 -1.22460126621182 1.2677263795360683 -0.1997425768423979
Ni 5.325159682041797 2.5977046608994216 5.031413076890335 0.036893273481923554 0.41257875364396046 -0.15831464871491444
Ni 0.5959661286195027 7.282168580473156 6.51833349564684 -1.7528020147981749 -0.6960251365639174 1.4640663584548206
Ni 4.959359212411023 4.7196398362208685 7.014798009283724 0.31875097175852196 -0.271205617879391 -0.03543520087915833
Ni 8.175607799810948 7.179074898608548 9.20100620534795 -0.06499131726972032 -0.12953269148621563 0.37022908503315594
Ni 4.551498409706952 0.29354951829598974 10.71202571453345 -0.10739960703260214 1.3541668678185002 -1.7726887264197728
Ni 7.718003001373244 7.02423002308131 4.90229848069729 1.3459853604489722 0.40758387153253034 -0.298256451349596
Ni 7.300333267613427 6.075461166714255 7.200101432207769 0.2686028901492213 -0.3067755445642007 -1.2599613908786689
Ni 2.1833590648862735 5.220294943181013 2.6878033255838787 1.5388749189252788 -0.17980187205441292 -0.009708742647331667
Ni 2.2391428190940452 5.384194915247678 11.505454707648695 0.5657277989975354 -0.760925179671412 -0.38219217093230307
Ni 0.7555610698339223 3.09396391357162 3.7507454147367496 1.1831913358064656 1.8856442302735978 1.0952907180387395
Ni 3.953444250300675 2.82970404505496 2.9039730931310284 -1.495640790826992 0.486380213006143 -0.5485371461508618
Ni 1.5551606071707171 3.329460000001662 8.257859319650807 -1.391916832873764 0.5274193903356401 -1.114694576486648
Ni 3.697894349267775 2.529559837092695 7.02556512758612 0.3693687939153896 0.725224383835693 0.30213213225491836
Ni 4.057173696215192 7.087860922133679 6.1075690677033965 -0.31401191441163984 -1.489372441319777 -0.8231217078048146
Ni 0.9793309424805616 7.493977914872284 11.656821045588574 -0.6235951036279647 1.2130351586407755 -1.0204045102528103
P 0.42923246535895676 5.585032778614082 7.929271028095592 -1.2382890481115576 -0.623685606459242 0.07957050063547587
P 8.706143817116837 1.608074340810326 7.939108114416405 -0.3368859907963359 -0.3695585413286926 0.6866943460812948
P 2.038441190881193 3.280869461901437 10.349887245830155 -1.2523290711443915 -0.5318365455667292 1.617002773576957
P 4.034413343228432 6.1524249461275815 3.77374281689069 -0.8163170261781554 0.49416242805472305 0.22111821430469658
P 7.095163126364068 4.049517280585568 10.356333893296238 1.1300456050214216 -1.0164390978471591 0.2592489597381471
P 6.339884517415177 7.862076217426302 10.243662880136924 0.6864650036793081 1.432673960186468 -0.9360101058661299
P 2.0458796302651336 8.308255427652774 5.602264709069701 2.461431984610296 1.6154529125913342 -0.6468977829096472
P 6.975230779520429 4.0845842091098605 1.6148779243787144 0.9449858270021789 -0.13934247848778586 -0.8464801800250971
Ni 5.2043100184975755 3.335181876450847 0.43406881331005387 1.424751620015598 -0.7696497040286034 0.04802743572187213
Ni 1.5912629228620054 1.070572165986142 6.885218397099889 -0.6842535978502862 -0.30052133612437276 0.04857122404048409
Ni 6.900019892416138 0.9987489930335111 9.461852929150952 -0.2726102115364015 -1.4824921692601758 -0.5440832241445662
Ni 2.7270372333381494 1.5631076577945857 9.091392309034342 1.502644990058967 -1.5764140535213174 1.126751507651182
Ni 6.098902695468773 1.8802540129201444 2.427846671450749 1.9075785684528437 0.7601690182316779 0.20715506725638516
Ni 4.37829811782447 6.968755068554923 10.656700618675972 -1.2581053115065366 -1.6817557495836262 -0.9918123004374145
Ni 8.102249710794963 7.359068783481493 0.24651206094625844 1.510621066285908 -0.3193878340115725 -0.160637126200504
Ni 8.098889243674012 3.837925922432123 7.928460883049135 -0.5652685999729297 -0.37670260857264154 0.9267376794252684
Ni 3.044156341432998 8.656172762793952 12.539298784471567 0.693627068645386 -1.1656839230503213 -0.13846650364073573
Ni 9.314851565530883 4.665736127132115 10.092748842906838 -0.3795295364984754 1.5832506168271765 0.5298277426668165
Ni 8.460103129801869 2.2620212425472164 5.913983455677745 0.9150034217074757 0.5895220732036557 -0.8957944528791928
Ni 3.8531297655685295 2.766917803954614 11.518455174234987 -0.9416786170058169 -0.20647886712496696 -0.29638623091007665
Ni 1.1726849547451745 3.348224121817561 12.825362635197052 -0.3999466667022467 0.4577435231060568 -0.30138908344130677
Ni 2.964976470188557 8.235996302208777 7.940902785505864 0.3760639465473782 0.34277201726346773 0.1984361993261486
Ni 5.699234166664965 8.017338880757768 3.5333531637450593 -1.1288981216805396 -0.47349255841019744 -0.03709844751419417
Ni 3.147195529236184 8.411158380302409 3.5503153485966443 -0.37318353967578954 -0.6092390920166088 0.17847903947793134
Ni 3.6785398751198164 4.344039517877919 9.603116976337768 0.1763645642380898 0.8865230548795958 -0.7550111281798223
Ni 7.255248514131274 6.292620001476192 11.28392817386388 0.8822257130558226 -1.5927004493861667 0.6338180669075536
Ni 0.5867457334271013 9.115766594473513 0.19310243134772012 0.23578275829540682 0.44050736173342847 0.5808345727319867
Ni 4.5234248857316635 0.4139223588027795 1.490616024355193 0.6801434323366544 -1.1528152946177694 -0.30900957610104196
Ni 6.297951337151861 5.8889189121272425 0.2534818514019804 -1.620666081361157 -1.3737887558144857 0.1587465940460105
Ni 8.00082718014726 8.987587479668193 11.316814431696983 0.7862883410265491 0.005544326856996903 0.13139365595435437
Ni -0.07357424879295298 4.783425135113929 5.785787084419641 0.6642306177611399 0.2628654734448118 -0.7879986388494364
Ni 7.777737575034024 8.817902054747353 2.5566424773844822 0.2698521891752901 0.2417299770177772 -0.411132251005421
P 8.253970260134075 1.6452120436686097 3.6865940973978124 -0.13076810655521348 -1.1913926406703352 -0.23155406492603994
P 1.878573779359669 3.189128709499499 1.8116668789815524 -0.7429243722186173 -0.9156063453987973 0.3432139898968928
P 4.796885168284871 0.9173348652708172 8.243410219265078 -0.43433465726381326 0.1672389477877378 0.6903275719585079
P 8.777331226019559 1.8034718803782195 12.512500421533526 -0.9126472627704734 -0.40520303000517954 -0.14586870964207782
P 6.182887126461816 7.816827981759888 1.1748156725467285 0.18493533662623632 0.3775037643176983 1.7412482485223044
P 1.8398466663766118 3.146005742228496 5.89457630393708 -1.1913818420370579 0.13808598037286543 0.2593111804346502
P 6.838114638642095 3.9154255601160886 6.066440583080396 0.10254176471966855 0.4260194525298986 0.2604247252138031
P 2.503402687610705 8.506731881690943 10.15896094400184 0.3475506695990337 1.0079385165753156 1.5763443766256466
