# total energy = -381164.8608800372 ev
CRYSTAL
PRIMVEC
9.31038608082720 0.00000000000000 0.00000000000000

0.00000000000000 9.31038608082720 0.00000000000000

0.00000000000000 0.00000000000000 13.62669113753812

PRIMCOORD
 96 1
Ni 2.525823965750288 6.072289701487083 7.54312308967213 2.2872086350849257 -0.8643681160491113 0.4166194993722373
Ni 7.699884854192616 4.210128680422067 13.12262615637956 1.0717417270742058 0.8366919902900816 1.0229607010157609
Ni 3.5448736597072066 3.1815265302876137 11.290177370596579 -0.3032585325498778 0.7780469269533633 0.22423619110838802
Ni 0.47884805569253136 0.9719018985543451 6.615949217163105 0.7471839188259196 1.6285771086781178 -0.884390067696993
Ni 0.40693090900855905 5.927159402368737 7.760264570374442 -0.6034733931774252 -0.07121030159623865 0.9991312026963309
Ni 5.455551102937075 0.7239765571255183 4.4500685036603755 0.40549639287588224 1.110075589657398 0.7079452850402711
Ni 7.893066056168918 3.071198454552919 2.570974683326271 0.7398362202115968 -0.5242898435677229 -0.16015504435776287
Ni 6.9325414494751465 0.3347670370919311 2.853251625449674 1.4641581468376785 0.24950987807351224 -0.3139530361492464
Ni 5.480456385856088 5.952269513782785 4.256229057384122 1.7546763490027522 1.0282096081195258 -1.4417460976910654
Ni 5.568886433394327 5.405284328178288 11.708434364341954 0.11794935752399043 -0.5232480325667698 -0.2878964482715106
Ni 7.735068803407925 2.349839046970778 7.155389265841407 0.6721753265295133 1.2432469063374654 0.31681338841617696
Ni 5.787177746784676 7.1655059314189025 6.101991695344368 0.4386697943040574 0.3390709142627967 -0.3408904839700387
Ni 2.6942302302135075 4.277861739575646 13.575904167582829 0.6173876892656721 0.09015161858543184 -0.7969257661357372
Ni 1.379436120584643 2.320399606002584 12.722614726348723 -0.32343500749775267 0.9018715123112081 -0.39692716314963256
Ni 8.412222497607084 1.5195760527330497 11.829507556718454 0.6140815077105748 0.058278166915602864 1.7216127336795641
Ni 3.8395753121317022 2.500937303603551 1.0978807333869314 -0.3059700179437698 -0.25569646650019834 -1.242214865528525
Ni 7.180802895843552 3.375936703234124 10.897142212898908 -0.40360868893486623 0.8356702338937866 -0.599829882887567
Ni 4.131390744853434 5.9683485506430225 2.370485759270294 -1.234352174950997 0.86328568161821 -0.45095066855393945
Ni 5.674866558802598 1.5259909087820964 7.211299065638404 -1.8907401567392663 -0.07205182366092752 -0.09082293362084358
Ni 3.4574584442580045 9.036902855532764 8.835151443116482 0.9728560710498859 0.9406560892785736 1.4668593478189254
Ni 7.149473446489355 4.974390347327876 7.133913929175614 -0.5143676993580045 -1.2955727123243752 -0.276012295239415
Ni 4.6777521345866875 4.7338751422262435 6.020285608674956 0.019560695740746956 -1.1436009751083531 0.9390805172613376
Ni 3.7615822074541043 -0.012089536400126614 5.8639335011445395 0.8586898347174114 0.13524182605585097 0.02260411055276107
Ni 0.967358430119026 -0.012650952684244932 12.99277792506804 -0.0678329004835735 1.0318302355912488 0.7647265556953733
P 6.94808979432552 1.894495992122113 0.3058945986395379 1.2913725582000986 0.9059469679321623 1.134047269981647
Ni 8.758922656612025 2.191888346140476 4.919276585545674 -1.2588864126469352 0.9206333662997436 -0.9941874855378102
P 0.5257854363683868 7.9599611805700805 0.9800857279696021 -0.011767167838257153 1.847062770455974 0.18469108182591418
Ni 8.933185153956014 8.510828797194101 7.588050357980802 -1.0377496863994773 -1.497104262746396 0.9283937269714527
P 2.3162844153296107 4.847908751643842 4.459266234126055 1.666481339923059 0.5179394758696628 -0.24809679977606952
P 6.146456237461984 3.0440214374162466 4.9489003721594 0.10233736201834634 -0.2606594669324285 -0.04763457115882763
P 4.5839499942468525 9.058475020214392 10.897973630381026 -0.6588058472011428 0.887009507597711 0.7384354832093283
Ni 8.155218598655145 6.672623399662028 6.199680921896797 -0.005760299522544919 1.5894531460934627 -1.7668782903855829
Ni 2.427506288133548 0.8887396674929581 10.866059488777367 -1.626037887196032 -0.5810757422085153 -1.5957019552166518
Ni 7.761361333861493 6.646181903030253 8.671576338020243 -0.7698721044520548 1.6961711536780077 0.8373532780231643
Ni 3.3247016483169918 6.926480388099341 5.375838369939798 1.3838718510821004 -0.7969509629467177 0.3544576811315121
Ni 4.089382282599009 6.404381864641582 13.309066638791986 0.047945931751659364 -1.9899366591357857 1.474320946303293
Ni 6.281773389590934 7.537995860025962 2.125150567265045 -0.7212384026047514 -0.7502520162282821 -0.23072539837715747
Ni 4.426874469713517 4.010700209347203 3.8311037917847823 -1.7267467124720197 -0.0266656822166444 -1.0215165123700665
Ni 4.87111023389961 5.939504974387656 8.035632274944874 1.3044355620316437 0.01145606435574156 0.9211015641854137
Ni 5.752468627262402 7.496024639316087 10.000233612608513 -0.2355595865410072 -0.9840910205337567 0.12328722479713607
Ni 3.3320940949105227 8.31592517378228 12.73283473721235 -1.0868024780620702 0.5010982359426079 -0.5094651198500645
Ni 3.5472571185585213 1.167690008649272 12.628222307527743 2.001591469765895 2.0049161632637533 2.2779284953345798
Ni 6.411159825750008 8.701198262556742 7.875178011282077 0.16543994690578603 -0.4927251813875643 0.254532013878452
Ni 7.271048468678692 0.3789774056679813 5.986218905796202 1.056991565348225 -0.9730522462210919 -1.076350686601127
Ni 1.6459459237834297 3.2552927196585824 9.040519009508744 -0.2043541074724803 -0.9061444286549492 -0.6425677880757257
Ni 2.201543216565529 3.7039602276463386 6.269790922631393 2.259263057714593 0.22122722907873513 0.9209624675043881
Ni 2.114621451581638 7.425451912390435 9.522918046474288 -1.4698112313583978 -0.42599965503555665 -0.08065602039017077
Ni 5.218601775726275 0.5441920697631117 0.8543554804468992 -0.40074113757908403 -0.11537671170080774 0.2110171213149527
Ni 2.2246888365044697 3.6500624022937527 2.334497392692666 1.1245236467619277 0.43053868055649075 0.9993726292831756
Ni 0.12052946582604473 3.874396156287631 6.3490846882524625 -1.7546771203337006 0.7599885267897556 1.1512474359100173
Ni 9.881950742957557 4.256159229488087 1.0056064274123337 -2.0027572079392217 -0.33464990237696557 0.2617663268433621
Ni 3.2063014678006954 1.7781720277145796 7.657491872990694 -0.8914135502026778 0.8284374635907733 -0.5522518759982876
Ni 0.3784597481987114 5.603940037203704 12.71452027664039 0.5230235752607896 -1.3556853613455555 0.288033230959691
Ni 8.170236251495655 7.176883223279476 -0.1465249949618118 -0.14046193680420974 -1.800329628065493 -0.7176792244985833
Ni 9.04382047243326 1.1080290542772957 1.2181448532080443 1.4365514408640034 1.5127797645001237 0.8386231458745234
Ni 2.0367866234683856 8.360177439095951 7.040447893775359 -0.8858951914876099 -0.18824717460828871 -0.3588774074657625
P 3.4815816547414298 4.215295944728629 8.458591013689912 0.11688903458027611 -0.6422348302163391 -0.43566854558388846
Ni 1.2258613012391766 0.4684865269596081 8.767276866093606 -0.6828513181861208 0.6167189453334216 1.1750093142163054
P 2.396484081521902 5.891360967668324 11.909768671459256 0.7485175500356787 -0.25806290984984587 1.0361748857131896
Ni 7.482552510574476 9.116394932378572 0.5284658965375023 -0.7820856157991112 0.18136330300426184 -0.17576652564277473
P 4.398189170022497 7.93449727448279 7.473558677565217 -0.27344093496781297 -0.9936971761649533 -1.0103800361372728
P 6.229337294862005 6.104978467217422 0.0263511858862367 1.329887169335529 -1.0888143662857763 1.2973485732778753
P 4.100759574459582 8.053837803999018 1.4730455359314227 -0.6122228572352811 -0.5051970886023299 -0.7788869063561553
Ni 5.763948333370493 3.200892133454547 12.742496124907701 -3.0348085584023408 0.17829957647727357 0.3367978019579038
Ni 1.7471777522613479 6.891175403864239 3.572264815725052 0.1239971063799671 -0.29426995589802224 -1.598223950307557
Ni 1.015288297957187 7.589510226527232 11.63031277633565 0.1636085501240021 -0.6415540020992306 0.031036043370198163
Ni 7.459527925655328 5.371133831824292 2.1774358337385378 -0.0904156708800959 -0.06871041799252037 -0.5363323765545537
Ni 1.0610860873697574 5.230574932299677 10.333624574629257 0.1490666477540852 0.04943357204077938 -0.09951557629883506
Ni 5.215082449766131 4.348462397659712 1.1445415955944898 0.7264456578373037 0.6557855723175803 -0.0307593926700438
Ni 8.549578624300244 4.485827834739009 9.05683080602243 -0.5586258978454315 -2.224774794129736 0.3536318427961071
Ni 3.684622555637819 5.713290522393914 10.208476226240174 0.028442057390776824 -0.5063954797858052 -0.4027923636811579
Ni 1.1624855027981584 1.6605818507922854 3.3211515980825914 -1.4032877937148671 1.5720637469724217 -0.4053912347565857
Ni 5.6744010394957005 3.6455934169475377 8.404942706685823 -0.5339160538035773 -1.2548055577093422 0.25995806999002974
Ni 8.740720851712336 7.462767940031334 2.7165220877435985 -0.16551168068398592 -0.5564800551470223 0.3085259515964041
Ni 6.535900379226248 0.47715170333819706 9.885360206361273 0.03133120601311378 0.2788003995075134 -0.5900092972527193
Ni 1.8091756135539494 6.356759239545974 0.9096992087667087 1.2357431417612526 -0.3736393962662855 0.5440618839883276
Ni 0.44192865050110886 4.673581081596886 3.613744448046842 -0.19481634318537416 -0.15267930480600803 -1.2635992447415723
Ni 2.3047116053601404 9.052981892393003 2.718579683080085 -2.734030369072156 -0.008586199007114244 -1.9139086244359296
Ni 6.1123057411079875 1.1369471136217648 11.98229006220358 -1.053955092514746 -0.5931319020421011 0.4881439897747851
Ni 7.90503921274232 4.587906908355481 4.770418407817693 -2.6358216845102023 -0.1577250947600316 0.1211606653724365
Ni 4.068713225372762 8.342227014621985 3.5999269039795116 2.3405322862087306 -1.200599503980584 1.078790406390871
Ni 7.935000035334239 8.591605707326947 11.48674196689541 0.42346249043599976 -0.6253233991729811 -0.3143099052680329
Ni 3.8293245769938205 2.230312309731791 5.34960728803474 0.28651628009453234 0.8434812452977732 1.1630022624531002
Ni 7.930819671958301 5.905456892281179 11.103423128171304 0.3425578443701326 0.6474387430147818 0.3456663080921273
Ni 1.1033366196637693 6.492150874764026 5.709038469044712 -0.9522733618025278 -0.5473642088886831 -0.6102220247551684
Ni 5.925204221279767 8.097028685292964 12.666636029694306 -1.2759773066909508 -0.8525978628870606 -0.4057283063810303
Ni 3.4174610254093762 1.746972923766313 3.2188695580483127 0.747358496730571 -0.6255841090335356 -0.34096915972677405
Ni 8.275443614854478 1.8897104536472074 9.45535629842565 0.7608123082426317 -0.5910922459042529 -1.8985611954455819
P 7.153718982568259 7.644041158137199 4.344420759037228 -0.041356965680232 0.5782123046177913 -0.2790839921862032
Ni 4.347279978620192 1.6744636365239673 9.623510251424529 1.3832915530985983 1.081947463962614 0.5642931234335379
P 1.8478230264125752 0.44681381010769067 4.9718886465726095 -0.17138819406942096 -0.047415513169486084 -0.03232802270874432
Ni -0.2971251459362038 9.309464409721219 4.2240151213468184 0.36136649243620345 -1.0813607382212085 0.36153669946548056
P -0.0097973193329636 8.21882715674961 9.902952180968926 -0.5442950830450561 0.13039426815556251 -2.055603405205976
P 0.3166723016328275 2.9135177549206173 10.716711584738528 0.6352098050487576 0.8666882795418557 0.7610527063882119
P 6.3923062938206625 5.176779521194609 9.699042621045868 0.20110191908376976 0.520007157031969 -0.0807956312918286
Ni 5.629916014528581 2.4674943965960385 2.686815438693245 0.9958193647142785 -0.7846279226049906 -0.34421157792347173
