# total energy = -381165.36153235676 ev
CRYSTAL
PRIMVEC
9.32430295633875 0.00000000000000 0.00000000000000

0.00000000000000 9.32430295633875 0.00000000000000

0.00000000000000 0.00000000000000 13.64705989158450

PRIMCOORD
 96 1
Ni 8.553061897847403 5.784079590856945 2.9273621199369697 -1.0528127513801868 0.5572763257960724 -0.8713782288183574
Ni 2.1674155766197853 6.104201560400717 1.3162018234082937 -1.2358336445925298 2.4048386615962842 -1.0246278043055388
Ni 5.919729550455068 8.471082626140866 8.696288786038423 0.37900785966705053 -1.5127352844154334 1.7732088605893008
Ni 3.2993393355841945 7.165568318796044 10.366374947612211 0.035868688872151125 -0.9071988380613923 -2.2052367240968085
Ni 6.243329485006408 7.789056485447661 2.066970455312745 -1.9258272302503865 -0.6449733121934247 0.19431652073082017
Ni 2.5813680069441394 -0.010114071430855425 4.349918807874278 0.32585518690347104 -0.16173575858132144 -1.3233287993917209
Ni 2.8769950325874243 4.255994171633706 0.47070666520790466 0.9392936617134082 -2.106140237613263 -0.7470329950703521
Ni -0.08163334006637424 -0.012540255063480648 4.092548464883945 2.132878682049372 1.8614403793338845 -0.8255714548968879
Ni 5.557144705188872 1.0827473851040497 7.790642549382747 -0.5183354257565009 2.047760255012473 -1.504426764549738
Ni 6.756184796926672 1.3734698273854558 12.083693365877249 0.07129052001487078 -0.06200986604389321 1.5771679009682062
Ni 7.494110133921139 -0.01765650010276374 5.569665379216117 -0.8918226127156383 -1.2930345192835537 0.4468793266980433
Ni 0.9245922878590995 9.66948866527675 0.9188308010543373 0.2868620934697253 -2.0370914624447174 3.936360996811233
Ni 0.2388774529112187 4.3218796964151425 4.141309907262168 0.3130037848620997 -1.2517659995520698 1.2582531499383103
Ni 1.1768202777618355 2.4941391526658574 0.45377559587615646 1.4144476669864285 -0.26902352262640766 -1.682443262568954
Ni 8.018107987889778 2.4412983277385436 4.671457139039095 1.8961150478979347 -0.42284928233203306 0.6038302622962116
Ni 4.110227343313835 4.905002955512438 11.400849483813632 -0.1519982195785834 -1.2353253374975435 -0.3884548640125633
Ni 3.076385927284034 6.721321228124268 5.413256723917326 -0.5070811929989203 2.1793418586079176 0.21852037167053337
Ni 3.4867857981770647 8.854889584965306 1.7213446522872042 -0.02664202806756057 -1.1929389021115324 -0.14436615695462235
Ni 1.7759999865723541 3.935144906458325 9.876035962502337 -0.40401106657960745 -0.4834255012531933 -0.43494195183050893
Ni 2.0954133090904543 4.713090151797248 5.499969944241403 0.06260816174952442 -1.1458776869576717 0.7462449519514182
Ni 3.3525251597213748 5.270702117970399 8.951747646920039 0.14127234852064702 1.2630724257038246 -0.15944927653998991
Ni 2.8651158706044706 9.118282495243545 11.275910351036401 -3.899882956489858 1.2264614593490104 -0.5860019758655391
Ni 3.609363085012158 0.41931390453173084 9.019246276115172 0.6999589244006849 -0.05260528490054166 0.5992385291604713
Ni 9.168335353583023 7.59758192397203 6.911294576821832 -1.6891129612796458 -0.7945845195970702 0.11377388599006212
P 4.754993569341513 9.101554695716528 5.925948860535627 0.07812914020325898 0.9624449030188909 -0.6722218634967326
Ni 4.519181947246617 6.438132822642097 0.8062668831780307 0.7543876356632104 0.23939901489175547 0.3796359801693526
P 1.2857374607468288 7.800329567737608 2.444584212104943 0.6690745761170025 0.8120780483961433 1.0767324954205781
Ni 1.7910867087767648 6.3492535667382395 7.448647629933473 -0.2970223218321788 -1.3572269948010625 -0.033022734782923766
P 4.238669616716651 2.821627321555416 13.04848645355841 -0.2961926268420318 0.10698154565857705 0.646171446266584
P 9.131028817402647 3.8733434263774646 10.554718408150732 -0.01803114647009798 1.493091542042577 2.3703442273638404
P 6.408080594171877 0.9739887152695352 9.812522540396303 0.9526533708497659 0.2645767997089637 0.47789840078737694
Ni 5.849480251883977 4.360976498765632 9.42231258272281 -0.13493252234554826 -0.5001785523418161 -0.07474119756763258
Ni 1.0051691843990462 6.249716632540414 10.116524654966659 -0.19037656224646568 -0.09377250316747077 -0.44702845068139785
Ni 3.619703737005169 7.36586367088068 12.531603975185684 -0.30622224316389196 -0.7123045904502314 1.336729646178659
Ni 3.0765724133434214 1.7828626735577966 1.839569354496204 -0.1402274521959004 0.9525633822391208 0.28669651442613847
Ni 7.010598403445424 7.345620609134218 13.477727011031313 -0.4643438020313938 0.8864214963047251 -0.890054465071622
Ni 0.5051991267521292 8.729291223968145 10.587402887349201 -0.2519897070725725 -0.7804228833847076 0.8010253901264075
Ni 1.5192366557053256 8.844670148910899 6.247787434256055 0.39398839223628274 0.7667273881754859 0.41862984493404676
Ni 8.125943551730327 7.024631479414298 9.128081405234036 0.19821405601301345 0.6741833580984776 0.6637228248867859
Ni 3.916431030398837 2.9963927321099684 3.8317393189585154 -1.078666222108181 -0.5840119420187039 1.3317831008066614
Ni 7.259818373210248 5.342387359198772 0.8627218079362655 -0.16865922517403212 -0.9252376978409743 0.4857608342545892
Ni 6.50767347418752 3.0908665697954363 0.21047282877568363 -1.1054797427565994 -0.36735613436073505 0.06415699429388305
Ni 6.320152417170894 0.6391604550825034 0.9122291945520367 1.7819012461569765 0.4119645170987292 0.9227378142372559
Ni 5.333072380532389 2.0753007875855634 2.3819855041202023 -0.1203062877919412 -0.5335681835458553 -0.8277980302345613
Ni 8.74631740119018 3.1821514958653863 12.762785148426 -0.26706948422383037 0.7731453758866879 -0.09626081680696325
Ni 6.234937612333993 6.547161897262723 10.666227747361207 -0.040924506128503714 0.2333173274740498 -1.7527377372191428
Ni 4.705406926150502 4.392324805348592 1.9113525009057555 1.0110297539061297 -0.14416741068025493 0.7172033133034293
Ni 1.7338354885449472 8.352831815883553 8.58158494063065 -0.4301643279362075 -0.6346163944391329 0.29487827890598245
Ni 8.729197980938451 1.4905550997716008 11.124209536306838 1.958752006002865 -0.5315149005612523 -0.05306654080767635
Ni 8.541136114349603 7.845496491321145 1.5721278318686742 1.179826790209607 0.6110684319158637 -0.8302608899527573
Ni 1.384780206887279 3.2409412260871466 7.453355470502698 -0.2059703029196646 -0.23430463108798355 -0.18396268830032186
Ni 4.449771835942766 5.40335897631536 6.846852454140051 0.24043439813480524 -0.5972891187435843 0.3068074262434006
Ni 6.664582844555764 3.678791844921948 3.4057464162098383 -0.08009449145974593 0.5128846870545748 -0.49776840023842656
Ni 5.40149411572149 7.212833210547686 4.998890294541134 0.2841416092147687 1.3086722258208108 -0.47072399452612484
Ni 8.36091598655798 2.295251770329593 1.6772779964540496 0.9165311712059119 0.3478422326975235 -0.756795987994387
Ni 4.9164438752558315 9.01198544139294 10.958056984405076 2.468942434054729 -0.2055743530328266 -1.6506487437661765
P 9.327752961450022 6.050269792025988 14.211911437674477 0.09022720901837364 -0.15387538199663822 -1.1546526049368244
Ni 3.462859636757709 7.000015319575209 3.120863784878137 0.7983992653574702 1.3186025975606452 0.2663585741997348
P 5.329006984437752 6.273437659294443 8.653573221705527 0.09765332627911569 0.6989711065661188 -0.1408666284417961
Ni 2.6785085952788417 4.946561373846837 3.1315904630140787 -1.7407908492699116 -2.0701085408006863 0.36730368385624484
P 1.0997549137201466 0.5942797876001245 12.562063675695665 0.10509666993103836 0.48275624310031057 -2.9181938605293745
P 1.1270937700262846 1.849139819063946 2.7775448144072135 -0.47692061025513993 0.3057373331076735 0.14636133300778018
P 6.227263710990216 5.705736797308456 3.2700125378849907 0.09262964781227917 1.8325080125702504 -0.7685724118040247
Ni 7.7722447671939205 7.797858627450728 3.7327301403087545 -1.608369266271675 -1.1627865468978684 1.513175971497278
Ni 0.609480266300761 4.197334981653516 1.6908980058013812 -0.26282073624980545 1.3510226657625637 0.4917993271391853
Ni 5.0219670119599815 2.1985214513255418 11.130541670453324 -1.8941227000582541 1.5093224020791427 -1.5025202915556446
Ni 3.0787076787234025 1.4506191101538688 6.834993805623629 0.7138727062682996 0.2815967313057279 -0.363329015479213
Ni 3.71973485926037 3.0663995988038586 8.99349441617442 0.34316616737809286 -2.0136376022971514 -0.38660109863327613
Ni 6.69728317506928 5.399349526038539 5.470150823345418 2.1053501376118 -0.34723288124829876 -1.0796409273166243
Ni 4.858922250237903 -0.09193576241721058 3.680502854516824 0.913142457239337 0.5526928201904482 0.11299072796713443
Ni 1.481454580073514 1.2260805703489188 9.155525626163728 -0.599262183309555 1.6579933570567058 0.2937405657571135
Ni 0.8268129847709965 6.979613744678269 4.61831513912587 -0.36149299071173874 -0.09696787017631688 -0.5419381527771053
Ni 1.3178037386584283 7.0479049396257984 12.387313184025864 -0.4071257009491891 0.5496550618053888 0.7366238839218862
Ni 1.8149382757723656 4.739058335566892 12.121400847085306 -0.9954907777302662 -0.10396255632659517 -0.218343736883353
Ni 6.477322868022281 3.9301191071578443 7.098954565952701 -0.2645426040369186 -1.5539420976710463 0.7132666972531845
Ni 7.277198873945118 8.500584720735894 11.284644425627793 0.779923832261102 0.5828696008841445 -0.9504753893618404
Ni 3.1296836430568464 0.6371865001438917 13.411689500111477 0.5166097013146458 1.4523513840107374 -0.5535667381549692
Ni 8.695248193827043 4.851817131375258 8.262571630709935 0.2752021406332938 0.07309800553725475 -0.2771014145385357
Ni 4.460215055268439 5.096925083530597 4.581631466383848 0.8472371127957796 -0.9250628628260068 -1.0901649667764
Ni 7.666954738064005 1.7810817316906504 6.879851162348585 0.3151635115175798 1.5857415015698304 1.0016082034819136
Ni 2.4819243157760074 2.1562077644506252 11.319771872204232 -0.08852025362959594 0.4573408883509995 0.6717798908633077
Ni 6.8874523341292 4.311828097814181 11.639236478388662 -0.28495742024784476 -0.13049788361296236 0.2161901808754599
Ni 1.4830676844872117 2.2141210101932667 4.911726710383637 -0.3502037909511646 -0.09645339243374355 0.2878915631755042
Ni 8.428694344842196 6.308786091851254 11.828152451129503 0.2590201315567926 -0.38749018610644875 -0.3218054423141296
Ni 8.536492611470868 9.7119142437873 8.653423100427721 -1.3347144155208432 -1.7031185315301187 1.6518921292549742
Ni 8.033325250335759 2.752179913039687 9.32380784886369 -2.318100182457459 -0.8053397012310453 -2.036738707090989
Ni 3.872457617595376 7.850167967108789 7.401837764166735 -0.10932999128609558 -0.1361244857711204 0.6110992851537992
Ni 5.838552168803896 1.8033201942725534 5.366378790738913 -0.21437189671979853 -0.9358075029370205 -1.0075510513289099
P 7.181195850572677 1.3663926814317182 3.0662075181626895 -0.6647787769551261 -2.083504245381302 1.1698845913952305
Ni 8.411780059255792 0.0747669233597439 13.218706266415404 -0.5453749463727963 -0.0361607661912732 -0.45015131258109564
P 0.33224636069481855 1.202098463111747 7.14643298424234 2.517281230369433 0.5928454811499337 -1.178983725483021
Ni 5.195454993007733 8.884093301865315 13.088950198724207 0.3369728940831874 -0.5530499464195507 1.1212480613344495
P 5.422016906557032 6.156426981332054 12.46856795739168 0.4211227865592295 -0.6421772375055262 2.251652849467503
P 9.311211647982395 5.3487185609149615 6.200746325775678 0.38399785668247416 0.3681688600700176 -0.23763755211595847
P 4.485539862133198 3.1912520155634736 6.031373159628301 -1.3064484786966144 1.4717483004801104 1.115828175870459
Ni 6.733554713620056 7.071803128136246 7.100756021286379 0.22923441565392777 -0.31041365553742023 -0.47621818487147666
