# total energy = -381169.8977356266 ev
CRYSTAL
PRIMVEC
9.26260682067233 0.00000000000000 0.00000000000000

0.00000000000000 9.26260682067233 0.00000000000000

0.00000000000000 0.00000000000000 13.55676136069968

PRIMCOORD
 96 1
Ni 2.9846341902607647 4.215838401734278 0.33444679364225965 1.7604456473863614 0.8993184068720512 -0.27763440422387026
Ni 3.248637007216709 8.485770426758945 1.3333031466521075 1.0153103835593549 1.3278020046717263 -0.6682834476742748
Ni 4.864489488275848 0.5076362354567697 13.282440034834465 0.27808563282867593 0.1041330204661884 1.1951955593561934
Ni 6.800448395241257 2.4997459906668147 6.0586247476246795 0.6365035841595168 -0.6204377889459056 -0.7103873188228603
Ni 3.2924398744325067 0.41256947130592636 7.2917620651222865 2.008420062651954 0.17059192342037072 -1.3823330458400709
Ni 4.5644273433285525 6.665834931666043 0.3629181942021917 -2.2015114527264212 0.35430212939025435 -0.1355148772115795
Ni 0.07074408514429593 3.5867036275681956 6.164774220725343 1.235948315793523 -0.2145449319625531 -1.2125047400586022
Ni 8.984061618288031 6.445412679364429 1.5029162960090112 0.5718879050616603 -0.9768885892480467 0.2493018758277642
Ni 0.3088736627274583 9.181160626849028 3.9166024813071023 0.0730362990613839 0.4356934852845529 -0.4232940831789355
Ni 6.5489315721543955 7.039534800099402 11.81455491747002 -0.031859053492125776 -0.8278121713019485 -0.8456787671697242
Ni 6.734368958845084 3.262280826926768 3.586468357357309 0.5609301204985758 0.1503743108219152 0.6654642330579249
Ni 3.7328490365195286 1.923926780825988 8.868223458550082 0.21243611314966637 2.2219015863469993 1.6667631328295363
Ni 8.109013898105411 9.172518614771985 5.903251003590432 0.7676858954340134 0.6060097864460336 0.7253976761887636
Ni 7.278547104103724 1.4735973669334852 1.2562697515396308 -0.7261031868962204 -0.15207560978373807 0.2158878191436927
Ni 6.336956817188541 2.7577188506429575 12.934193809689122 0.624225538123112 -1.5740830913952955 0.3306047857733145
Ni 5.696132633331966 0.7746466208172332 8.485597216013137 0.775001198148504 -0.6304992869469658 -0.29611163709245136
Ni 1.923880467792349 2.9317910188786276 4.710472716127225 0.3175811198201369 -0.6995249221870598 1.069232844609423
Ni 6.17699159899932 3.091922963988949 8.38956065693789 0.04065428318625257 -0.4590732976610739 -0.5839360944754459
Ni 8.605415517862024 2.610971372254317 13.219211628789113 -0.48022704892055357 -0.08872671321344719 -0.8880099238377674
Ni 5.94663056967877 4.611388759438532 1.7560475914485292 0.6318172344274409 -1.20319117596716 -0.6764502997557833
Ni 5.937164185602952 8.584815480499383 1.8460514147619536 -1.777759713184777 -0.43827024487279354 0.39308619213698753
Ni -0.0013662344923514784 7.538187233290873 13.038852003106609 0.0033151804161620324 0.28448999369312294 -0.9013441790528283
Ni 1.5681130059840238 0.6797095331605791 8.689490346608979 -1.50738996094312 -0.8007155721954726 0.19201204096735963
Ni 2.767778041549356 8.338689494528104 5.3310201275959574 -0.5739270469788761 -1.4593051896207512 0.8577444400850067
P 5.320728445260692 6.732331185364966 2.964362049176287 1.7015427024025664 1.8254683321146494 0.24434993113912756
Ni 2.026204484314429 0.06846363136790995 12.763649768356073 -0.25039408045067846 -0.5290574401596954 0.46309887388069915
P 7.853301114170853 5.374803543337627 12.825414682538433 0.5622328984703994 0.46185703105379816 0.07633759552047498
Ni 7.4186625560752555 4.507184433750707 6.911060592263379 0.10360285899433125 0.5672730319974681 -0.1641590233108334
P 3.6027557250274844 5.506249195411931 11.952819700617335 0.20604795023513547 -0.16662805367661626 -0.19343900322187332
P 8.497469099056165 5.4929480921508 5.389192076628602 -0.3026887760893368 1.1303623649308918 -0.23024357364473252
P 3.777587427014834 6.063070798854027 6.145225489226307 0.4860032892826984 0.5870381304395373 1.5175347626866058
Ni 1.3075095656971842 0.7362234755889456 6.222485818203615 -1.0701404440253568 0.4630327965294541 -1.3293140704408783
Ni 0.5951956568547259 4.557211772687591 0.13249417915589162 -1.0941152096733995 1.113397454941779 -1.275737679876319
Ni 0.12134107439493967 8.80332963581507 10.812018530807215 -0.27300898963671694 -0.2042427787055966 -0.12590692180817026
Ni 6.158234820375512 2.308658413872164 10.486005340590623 -0.09693316028363952 -0.7097247455381971 1.1971853360927123
Ni 2.2335849863432915 6.550543265725034 0.04537751035952469 -0.26907365913805276 0.7217382250593054 -0.23834614814720884
Ni 5.965424398729489 0.0923639355076694 10.985559025416709 0.39211740046581495 -0.9441767008373223 -0.27230733558400194
Ni 2.719140093621643 7.412289882646524 7.864236547673702 0.9035812959134634 -0.9566138981594106 -1.3119889488988694
Ni 4.167218979020021 8.87359577045221 3.6163337802297764 0.8595953772508164 -1.0309450047728181 -0.856625753099531
Ni 4.079011175151118 3.251119385819761 3.9379953978056443 1.043619772027009 -0.8613678957702068 0.22040627583933656
Ni 0.04741528383964216 3.9970741560369407 11.25681631596187 4.605460769739216 -1.3317342498465967 0.20385248524571342
Ni 4.017488941265026 5.22423987097713 2.6473511864384505 -2.1587653200081465 -0.20847532872970545 -0.1990733186895152
Ni 4.412798471194358 2.6829510891361026 6.5843017622051985 0.22341215254519586 -0.6650312592855643 -0.8652782865682066
Ni 0.7137440553212318 7.07134259160269 4.912767120801849 -0.678616968389799 -0.8053335305834582 -0.13295842933831292
Ni 7.353463067318224 4.367902616384679 10.8983349103823 -4.083303399133464 0.6529100505419981 -0.9887568014405423
Ni 5.3106322039273826 7.553368645717747 5.394872833334766 -1.2074944313282043 -0.42197125060245394 -1.0625675167741053
Ni 3.580849660116222 4.40637022212526 8.105044871122546 0.7560038311103948 1.0390401230761268 0.14398871901054558
Ni 8.918491625261888 1.8209729070464171 7.503802584595908 -0.42511673820997103 0.17556340849303312 -0.06705925554234257
Ni 9.265015005555862 2.4385572106229243 3.467887539767256 -0.5770727916967093 -1.3126044709956812 1.2856024884855406
Ni 8.17544531355724 8.965202950990218 8.2815132757187 -1.0397898567579575 -0.1581614109665018 1.4633845018964473
Ni 1.74773347564965 5.317773673714521 1.9592099023735488 0.30275485344058184 -0.5573771130399949 1.6991952852163124
Ni 3.235428530022857 1.8651555411380547 1.1097825524000415 -0.08426302101513874 -0.4232861127591355 -0.8399940580801212
Ni 2.064866604796294 6.919898971603052 11.23623665633403 -0.8340967187590798 0.030158268750935156 -0.5070138300960946
Ni 1.5729573493026667 2.578700450414639 13.013243674286242 0.8680357947086857 -1.091429178200804 -0.8368814805930683
Ni 4.224174747789304 6.630609238280194 9.559672419477483 0.1373845834304666 -1.3875207606885975 1.4187486083546277
Ni 5.657979956220131 1.263262093358452 3.0899518812772713 -0.27389884844083795 0.11995533221042566 1.5369031399108886
P 1.5386671791963267 3.100398249144892 1.8640004940790973 -0.3218792329748586 0.05772717950813929 0.12286145011362713
Ni 4.113153143549813 2.734738323351269 12.289041209708643 -0.1396201576292047 0.30349713092324504 0.47562734536501305
P 7.852384116104801 1.0229993374458757 11.903324035306628 -0.1211758348810881 -0.046050514501159406 -0.8191971759394279
Ni 0.2533656393897315 1.247747227089376 1.4653638358131378 2.116774834508974 -0.9657827091428721 -0.5652688570832458
P 1.1573627106394389 8.263088098415746 1.3062850490877682 -1.1864378677682212 0.09401392975431551 -0.007434087680542036
P 5.266366206375195 2.355073336185203 1.3394998305530101 0.4848676330163585 1.583959212858427 -1.0873732629638757
P 6.41990346043605 7.215783680916107 9.486669184552275 0.3558684454361097 0.9445186575577733 0.1722024624406002
Ni 8.688760453198828 6.3992756352532245 10.788510961192715 0.7030977271399826 0.25803308505317496 1.0788336009239807
Ni 6.145128231855665 5.3452928783028355 8.439314748976305 -1.9230015878761333 1.8953012937473874 1.048332604121646
Ni 1.5488282587767304 5.392597010861743 6.853091494318074 0.11756369204979752 0.19621296642258465 -0.7727010892604176
Ni 0.5248470850177072 4.6482539342152025 3.8411594757697896 -0.1413440822988469 0.31269550959306147 0.357252727378146
Ni 7.078724889164751 8.72519954806602 13.324208833612838 0.4807574675027269 1.5483098390859336 -0.7538515606540824
Ni 5.765611446397244 0.3837257139555365 5.962209347934268 -0.8607109789124983 0.9357748499268723 -0.05333187865392105
Ni 5.4980795762780055 4.778513972628348 12.844679052010925 -0.027451411342733368 1.1275176963932452 -0.5670652868620364
Ni 1.4512374342925598 5.285836205717044 9.156141399816551 -0.1302456583928402 -0.8157976633395756 1.1301237665575246
Ni 2.4040632631685726 7.337531383746397 3.0874028119057786 -1.067375222575394 -0.4151246599942657 0.5466592124018586
Ni 3.6837850086823365 8.970176970803049 9.696541327790918 -0.3665495792990397 0.18859607330727518 -0.3279141263150288
Ni 8.173259338369478 8.496913342652498 2.026356391064765 1.0695434338713063 0.852868342939628 -0.8748438187694547
Ni 2.3426243927430312 1.1022409380022615 3.1002954342102127 -0.7248813986739774 -0.20966754926559375 0.35580262519518074
Ni 6.6221246905175235 6.6719019390727565 0.7500479161301972 3.3679114280071607 -1.21100861512905 0.28090459033470977
Ni 2.848761012170569 3.580173489825092 10.564499448784076 -2.497147435734035 0.4485775403360726 -0.164987946970032
Ni 4.878383398367558 7.903032049692447 7.7037655911571425 2.2333278259060694 -0.01378728359207948 -0.20857303064983435
Ni 4.9085794963002085 4.197526228233404 10.270480228466 0.8046192781252531 1.444294575144532 0.18465740037450132
Ni 8.389874659305963 3.866082371692299 1.9180515093785402 -0.09330481950243286 -0.2493502125671964 -1.5571613759392922
Ni 8.440365128579238 1.8633122823992214 9.733266637205997 -0.1557826263216801 -0.09232162965355713 1.1508311743082051
Ni 7.097259365227092 7.210559570721624 6.753964929638433 0.9986082403133254 -0.8140464849764238 0.27604777646304074
Ni 1.3639929415233492 1.488686153293082 10.824165513270062 1.0935835055396457 1.049821787072663 0.8011017518902978
Ni 5.51149183081987 5.362725104164567 4.736380227144901 0.0037345273417677626 -1.6805239340590543 -0.17663581562160546
Ni 4.242060841380699 7.880746217905345 11.750051976738922 -0.393950854130128 -0.7455217006321483 0.9593868329188574
Ni 8.51066831364329 6.216793020108705 8.527989388224288 -0.13845647633840671 -0.06449792257306956 -0.6949506725528161
Ni 0.5669965769325913 7.857886104501118 7.116391279423378 -0.27636865013756917 -0.11174451426485917 -0.2401022116063671
Ni 2.1339841761991867 2.760673622189128 7.28524118998591 -0.9784993853785923 0.01862687107256792 -0.024411596075145054
P 7.532953860489661 1.0691085937368972 4.242832416521124 0.009167782542197115 0.6563938953255405 -0.2938971459396358
Ni 2.566705374702129 5.294496743007543 4.664772867053573 0.9061030338940523 0.04415741124350459 -1.106339005433101
P 1.2537493962489945 7.485103234133812 9.239150102529136 -2.4449090472546087 0.6406026939295548 1.802171052149606
Ni 7.504249042240189 7.738379952498957 4.060927788036421 -0.8554751844348558 0.06002703128590953 0.903682854488334
P 3.6756802277955063 0.8461502397132092 11.550049140968756 -0.8454275703908665 -0.6576491078888803 -1.2333311898856503
P 3.503043763602646 1.1448396663434441 4.990840706649858 0.3136969542743823 1.2815907962229864 0.8809645869552118
P 8.762425964505073 3.927826908139858 8.857567755770413 -0.009275511764654994 0.03279750614599513 -0.10537769150656691
Ni 7.757535023212061 5.555609626664412 3.2932216384403334 -2.007084888780298 0.5853769406870305 0.5751609193859771
