# total energy = -340870.9937664949 ev
CRYSTAL
PRIMVEC
9.22272830798164 0.00000000000000 0.00000000000000

0.00000000000000 9.22272830798164 0.00000000000000

0.00000000000000 0.00000000000000 13.49839512639398

PRIMCOORD
 96 1
Ni 0.5541411837631331 7.445739256038124 8.367561110872538 -1.360958693929353 -0.2818232454942372 1.1551555127151718
Ni 1.6673217423758664 6.672063010770697 10.62677358688165 0.7495408490938704 1.5830917226518089 0.18644560262317567
Ni 7.038242221648271 2.7426826583821704 7.515798790531133 -0.9613899793918153 0.48933132521466693 0.17186127705109758
Ni 4.335217295655118 2.170486139107879 0.2206768352879599 0.7694640703803588 0.24301861392221374 0.7287851046037577
Ni 0.991323414255436 2.9509318670668274 3.26310185779479 -0.5345230912599569 -0.5332408821134236 -0.2998029699011095
Ni 3.404145966445602 1.6463492578519996 9.089238690795192 -0.647259280014124 2.493132401037371 -0.8456278593271308
Ni 0.8681345079081448 0.2249561812945888 3.206827535534774 -0.22719681639860873 0.6196425467381199 -0.3913620103570292
Ni 8.15015281055171 4.33576143663441 1.5875460634475487 2.20241545259793 -0.546650213540794 -1.1587200901379786
Ni 0.6933223012645074 0.7134186265844307 9.32613553863026 0.5567299663742992 -0.3512646281155112 -0.2857444349255144
Ni 0.5332111237901942 5.096544307511175 5.048440400396142 -0.7374566642358268 0.20335060590863044 0.40054599084914244
Ni 8.950971545684459 0.5688265342940712 7.147036293411195 -1.1764131365423676 -0.5054837666048133 -0.3951962965014549
Ni 8.044847696966173 2.0114125185856038 9.893905148242522 -1.1152067402363761 -0.3755430410469016 -0.3380782113322242
Ni 0.5365645078591819 0.27939425831770914 0.31876608612438767 -1.7416025465379297 -0.728639580164829 0.3054252011838933
Ni 4.163702214436847 4.634909857046082 3.068711643170826 -0.35328422964870126 3.1222546051311517 1.3056180123755192
Ni 5.436696978667399 7.757541259900432 1.3785369019375764 0.7746597556486852 1.4181143172047386 -1.587292648107034
Ni 2.347046052795172 1.2036951825628583 1.8063691303145333 -0.23370427849982328 -0.12381635782772869 -1.1103303859806815
Ni 4.6656307655548765 4.551702400856844 0.7921087903727049 0.12803270990192145 1.8594837698281461 -1.672937637071364
Ni 0.2285844026717608 5.0304450126199916 12.774328333940215 0.5344212755747699 0.025717202260446027 0.9351369592325572
Ni 7.5581827614536845 3.316207250555071 3.5063024405340197 1.0514726924125246 0.09041361399756687 0.858646897294618
Ni 2.7600859469910253 8.52636634999655 0.42113468296744444 1.7459281704964769 -0.6947503836165518 -0.8880317782146383
Ni 6.63266351477863 3.3046696172484054 13.349386665856438 -1.085044357720383 1.1375267438898151 -0.9632316605862443
Ni 7.60193538528008 4.086784659059077 5.797695782967552 0.2953824722359107 0.9920863800344075 -0.3596587657164773
Ni 3.5193286222145432 2.55436376590511 3.1026466725488238 -0.7801133225640887 -0.21782257427256035 2.4010745665681617
Ni 8.56314659110525 2.644728059381296 12.076663049842686 0.7449300897947364 0.30468960856944943 1.5247917013593353
P 6.067577719148974 4.6925795781224835 4.271135011478697 0.58606368234141 1.018910185095471 -1.6944572563106945
P 4.161848446015872 9.069631170083785 9.491302615847749 1.1969341393138546 -0.2380558706002997 -0.4356975990496109
P 6.493317310437776 1.9658983536228587 11.55327689868366 -0.5780125299021593 0.49442185236369685 -0.09707482806782636
P 2.72115681015055 5.90335781614459 8.722271858906915 -0.563557530819094 0.059592514851652206 -0.8149281162504288
P 0.48313908642125086 3.123332330217505 0.7272278179114252 -1.1934001580186673 -0.9390049268283958 -0.6100559314909494
P 2.574847445820461 4.280627965885213 4.82270674309216 -0.7716009142177034 0.48794010129409515 -0.4612121983809477
P 5.658411370907397 7.838876502211769 5.82335618036894 -0.2228601366964678 0.7757843561714316 -0.8382626772113111
P 8.81179135045593 6.447821590931957 2.872755409253918 0.6942184223724818 -0.501526324618962 -0.20641047578087676
Ni 2.419924053106339 3.6134650116319165 1.1963880148019703 0.8865114849153699 0.5523359510716617 -0.5594699910132817
Ni 2.3327692691351256 3.750717656611769 7.885991732835613 0.05508768500276318 -1.0111894194124456 -0.10433588050561385
Ni 3.997656211196875 6.98036037781723 10.132880799073051 -1.2533670254906029 -1.4165274323335928 2.361037091030301
Ni 2.288463281600976 5.837147848511855 6.5892143187186525 -0.2998428220001094 -0.5718927901576667 0.33482396606098463
Ni 1.994700934611441 1.1246748450956245 7.12080869820936 -0.29570925944771004 -0.40678580111126716 1.0213910425357957
Ni 7.473066200472696 6.439392017117174 4.58992692124278 -0.47869801387053684 -0.2651378144187563 -0.003942015366883533
Ni 5.685397074388854 7.631254439062565 8.999542122859696 3.686106013041581 -0.4979018404924973 -2.2643435575612934
Ni 3.195583184993218 2.325667768218952 5.649834233437214 0.15332053793443273 0.7321653339299004 -1.1586853802453012
Ni 4.228648668270211 1.9830987422055375 11.359182733643344 -0.01689857552755154 0.05892377091940174 -0.4467582277391467
Ni 6.724116090213398 5.40639109293942 7.612338622985851 -1.396667460184872 0.10587108620321767 0.48423694141089507
Ni 3.4102514126878183 7.088229409915359 5.053853219730821 0.10027122351793699 0.5694651545527805 1.236932019863031
Ni 2.7304809886262 8.17351398174738 8.055721293823535 0.2194595956553511 -0.3631621508840455 1.2641618021132615
Ni 6.595643482729905 0.6390133424398629 8.073552517033052 0.3394822907686025 -0.4832419244874774 0.5622287847053414
Ni 8.294156492766158 4.276791310844787 9.000351878418709 0.4428241827920632 0.44252362083250885 0.25774383594753025
Ni 2.4528584164461495 9.171735996892812 10.789348155128314 0.7316745103364108 -0.5334697102947781 1.0163488521261979
Ni 8.029298176778292 0.01751949498748338 11.836081721986822 -0.4807592672749398 0.15721293101030345 0.7892484520961375
Ni 5.15645515160398 7.255889390636279 3.6701193103045906 1.6525094511239993 -0.23830758159978957 0.07242617628121076
Ni 5.557404048785415 2.6704871399772325 4.90873174282671 -0.9497639651171127 1.0456062063294185 0.5085099550256468
Ni 1.5833580224526989 5.215434500122066 2.7358412384086415 0.5054709110890069 -0.6731387188840472 0.49563387039392703
Ni 6.288969315892783 7.185529195195391 11.699693246663912 -1.2579466744414851 -1.1650087513601677 -0.00738035162447116
Ni 3.042301437945432 8.52283404499539 3.1464352650162235 0.2277909983391819 2.2078800752569268 0.1059065674268434
Ni 6.864329231029733 5.945579467046199 2.0460733766936055 -1.9980340914319397 1.4580702887723855 0.55388015563033
Ni 6.1226097398850845 9.14344066596967 10.56848778754395 -0.5096011312072966 2.785766363993867 -0.2746249279735851
Ni 7.452029156849592 8.36654568846881 2.957646935660419 0.02942473301902029 -1.148317920968048 -2.154293914500354
P 6.448199722798921 5.7353012580997795 13.297242281401957 -0.35734451576100396 -1.8834492795048081 0.974953577008863
P 2.2330807971832893 0.32994587756670574 5.089043462452574 0.4595805763147956 -0.6421924070141779 -0.5164783179431041
P 8.585484039441576 1.5213259508135046 4.1685478359710775 0.18392360753227033 -0.01904441822596075 0.40552004702496613
P 7.305507669764864 9.27769592419919 0.7323648776650724 0.42922561817202204 -0.6433100655583888 0.5621043433123352
P 3.642922406341341 6.947232337179705 2.0510942300686246 -1.066337268229183 -3.085986881048369 -0.8631370718554876
P 3.220235538173647 3.7945440622658655 12.525457617742202 -0.5065368904596761 -0.057420961121630136 -0.26167890933587834
P 8.800770189943167 5.798080370744441 7.268845479580486 1.1679048419610403 -1.205458374734782 -1.1312293409168774
P 4.264045500109526 7.906912570080091 12.234743382509544 -1.365709578350777 -0.29038373346973856 0.24002790672500593
Ni 2.225315259817812 1.6651728466440892 13.002140794239658 -0.7445277121499951 0.551762852177011 -1.109363908302354
Ni 5.555863853132167 0.2775709249006606 12.91639893226891 0.021557671566117712 0.29638365980691533 0.10212370334564348
Ni 4.59657097482721 0.19124526421823101 7.206253588323615 -0.8231271071214534 0.5692054731334907 -0.6713093789847923
Ni 5.553060143679548 3.2757194726044223 9.6791188696236 0.6349130997439453 -0.2978067654066871 -1.2215995032710187
Ni 5.025141943754019 4.763013555391072 6.093756433889957 -1.3030415098975947 0.761346840589863 -0.4493879520525099
Ni 4.562926461395782 6.724143758398785 7.273003085571409 -0.8699666931828115 -0.29766612606376475 -0.1636635717316536
Ni 3.0256082994281948 4.444202277897218 10.267905232856348 0.23633914501950906 0.024871052210066844 0.11910686816720134
Ni 7.638890858229567 7.520784597537994 6.732513384478561 -0.12984019542430542 1.631836753265996 0.9309645730224225
Ni 4.654111577705136 0.487257034679785 4.762800510363587 -1.0508049769215386 -1.4625427227214425 -0.3354991377511383
Ni 6.478994413135417 1.1161807121816045 3.39346973597734 -0.17796276196314512 -0.2322354072637807 -0.9332081176409606
Ni 1.3197355520788177 7.179792658091677 4.032118780642932 -1.0283726160599513 0.2734087961782969 0.07487618048360008
Ni 6.911402037102651 1.007887434574198 5.6982803037782075 0.7708049006789692 -1.1701658700810749 0.6505202101535829
Ni 8.697374181149382 8.644592506158137 4.820830840122874 -0.4237319420473025 -0.09174801653827425 1.5822666556473524
Ni 5.026008880229498 4.587016228139995 11.52495666639367 0.4056881971717142 0.9561834954902112 1.500677581919951
Ni 7.734650447856352 2.0532099239779362 1.3835319316728998 1.5132775300721486 -1.1964242895569717 0.29284556474666984
Ni 1.2021826550949983 7.13178835644404 1.5071229489811588 -0.3419929730055981 0.6755943795133913 -0.06459279627972102
Ni 8.334146243379827 7.014595145870261 10.63167362251381 0.631765298143583 0.8197049688137817 -0.43834480686447086
Ni 7.5019794542028295 4.853894321661161 11.383156294008929 -0.9056312364639565 -0.1264792493718725 0.11135396369465983
Ni 7.993412540330463 7.308929302024475 13.4037039251367 1.1663776066832365 -0.06078936337323079 0.8000995358780285
Ni 5.632366385729122 3.0371736009202475 2.223185731815806 1.1923210660218755 0.14145875349984025 -0.29774737292366144
Ni 0.5719687178812661 2.764033274773002 5.732404399089689 -0.14436975649904812 -0.48221631143644056 0.4258698143259117
Ni 2.6806874776568264 6.048837134913048 12.844235693413589 1.285509157440786 -0.6170806995482147 0.12291004396337543
Ni 1.259612585231374 8.014910720376696 6.263039614820289 -0.12040398971207004 0.3863257334847024 -0.6941952824440303
Ni 1.4996064252841705 2.8184750408875074 10.907418447178882 -0.10919140882570227 0.11818615612514485 -0.5169470300494065
P -0.0361466396633205 2.559611498400308 7.959207285008511 1.4248758042982879 0.021440943482595332 0.027847618339887525
P 4.5591359199976695 3.0244462356419115 7.145173302261758 0.3484402712928386 -1.4534767558644321 2.183715305085265
P 0.9489449769699622 7.29339822729352 12.839768203746324 -0.3862781680762186 0.5452132239839513 -0.441896014550839
P 7.822985741070774 8.589117794455825 9.14132958342459 1.7005291735363874 -0.5616454013980456 0.09782379041870894
P 0.3217892965144156 5.193844092791208 10.568717433482666 -0.7341913632209937 -2.790629605623439 -0.340609205284194
P 0.6629057427949768 0.8961799028899506 11.573051350780238 0.8860281175210483 0.5692286130619423 -0.2016048268621173
P 6.094821659027383 5.541042928492828 9.708100371544356 0.04657990464206817 -0.5113798203742741 0.49828339220163226
P 4.645709672075741 1.1233652176539406 2.0470989440986425 0.24446717344328217 -1.885238767305063 0.3385530940861137
