# total energy = -381171.09711342555 ev
CRYSTAL
PRIMVEC
9.24572139641867 0.00000000000000 0.00000000000000

0.00000000000000 9.24572139641867 0.00000000000000

0.00000000000000 0.00000000000000 13.53204783549587

PRIMCOORD
 96 1
Ni 1.930377149024019 5.491634799843147 4.451407951972393 0.17524613436293043 -1.0772297467719707 -1.5386630600247886
Ni 4.593348264023089 3.561451810964586 9.592286901613711 -0.5993238897854258 0.3263897192507024 0.9947986367592478
Ni 0.6203028327078476 3.729539022603569 7.618881090639931 -1.2963324733085353 -1.1715923181149563 -0.09142277198837159
Ni 7.95303070097241 6.417649253578789 9.984715991035584 -0.7292268201268667 0.550722840948271 2.0259678417277303
Ni 2.6727345965992226 7.267025924185964 12.009624167450166 -0.20178403275245893 -0.1560165967093571 1.258477607244291
Ni 3.2641741368266204 6.713697246795523 6.134605367247106 -0.1394995728909404 -0.026381832427638433 -1.7869089837842127
Ni 4.056819062075335 0.4506438484627796 12.528131609610973 1.2195637037879126 -0.383665670154036 -0.3159772656681268
Ni 3.7217541253428417 4.8905704638337815 12.09659496860546 -0.026591634445599362 0.023427120674688686 -0.8095216005228768
Ni 5.530235685904355 0.5884087928140171 10.830550625846339 1.1571635442841361 0.7140483126142155 -0.9582938569649947
Ni 3.8764257955028274 1.5537342039999682 3.813398638570936 2.6924229779440148 -2.807672420038339 -0.3287775027565886
Ni 8.317395328226572 0.7595295255827441 5.28599701607267 -0.5281932923871872 -1.0536684145122626 1.7145517130677244
Ni 7.235146677446073 5.106171436782596 7.565699702226981 0.4483260864468988 1.5012344828646855 -1.2522460245122822
Ni 5.002452936223404 1.5035854121446413 8.557910746126078 0.5091846124951682 -0.01931232717536674 0.6013355208988159
Ni 6.380749580220638 2.427621281540858 4.623711212484168 -0.07669806418368726 -0.05536973501955625 0.696895969204645
Ni 1.2326303062979949 6.518815935083396 2.258566042890951 -0.7491780664378129 1.342736000273739 -0.16419116210034948
Ni 2.244102961198604 1.367969173403134 1.959074943094769 0.6884339544802207 0.12354742043705817 1.3854034572352787
Ni 8.489495182871678 5.026038771035892 11.861800802992105 0.49083413501243844 -0.38201682169670337 0.7408754601093885
Ni 4.684945624073002 8.64308510364983 2.766965138050388 -0.8155456952297696 -0.5462912875394785 0.3692713491055769
Ni 7.559837914978405 7.5117971475594745 7.97995701485889 0.09970455238118958 1.1236499859077227 -0.49827413623025146
Ni 0.5253659181560651 0.563808702384543 0.20361019710862724 -0.1795488755033424 -0.9448762980075083 -0.48172343096042197
Ni 6.7131979778500614 7.911591378499037 4.8433091107130455 2.439273446235386 1.7031002766976733 0.15603587998306676
Ni 3.3007039813362806 1.559272391006115 10.472884523610462 -1.703859780571517 -0.5807396990253353 -1.4282956286131143
Ni 6.428392781627441 4.853153030087745 5.198106265656755 -0.8737914662455403 -1.0552092766368213 -0.04394041013669207
Ni 3.2134428645349207 0.12130848516552661 8.050810674796965 -0.940601067670922 0.27019131768226373 -0.5847493344053607
P 7.8252918167037535 6.2752743926311165 5.783529615091332 0.9684725972702094 0.5854142216828692 0.5630834193961528
Ni 0.6389385083832894 2.684199290902432 1.3307264837880084 -0.9738575157312067 0.5953469074155489 0.014264223228498015
P 3.61664876660181 5.979559245378024 10.272379964257036 0.08449801984408027 0.31108857011725777 -0.421537505499145
Ni 2.1186755072330135 4.423624559729536 1.6444412010971392 0.44832377245405375 -0.054021705632094054 -0.038856310745565344
P 2.6567857275080655 -0.14758390027866333 5.763975839299512 -0.8032902749011843 0.0023664433496475377 -0.18743290623710943
P 5.685471345058288 6.051648133670056 13.589423908691753 -2.5789812784823907 -1.6135808923796016 1.2797280319826347
P 3.4652038531449048 5.79955429909643 2.8795382658145665 -0.32587215618433557 -0.044563388432671644 -0.6614160311304802
Ni 1.0547981045012846 6.322815891104584 13.28460080147246 -0.3565780699086246 -1.8098763912136637 0.06786246816992829
Ni 6.461372269191591 5.229786729390582 1.8664078531005979 -1.4542074633828697 0.6257854264110642 0.14180250999250416
Ni -0.08994237595291665 7.909964131565679 11.849608470429493 1.0475574165185186 -0.8941630879233569 -0.5062378711620183
Ni 3.321451379736604 6.917990702701737 8.308622987940376 -0.4515659335404352 -0.23306433092297926 1.2619043735376527
Ni 0.0935306403553968 1.0320628760403243 11.171490293837106 0.47756595714862277 -0.514574673162488 0.9104592539802191
Ni 7.4018655223456395 0.7054522267843258 1.1653334753102795 -0.663456972819909 -0.21764619659569612 0.4092584310214758
Ni 0.4164929280210353 3.2026993364862686 4.922837106292466 -0.986992767561584 0.28775066672226574 0.33570508311435737
Ni 1.2711017522622308 5.681504930658227 10.651656090682339 -0.08880667452176318 0.6502055071266415 0.709848415600255
Ni 4.567266084483289 1.2387232365768779 1.254425244911668 0.6463123427198225 0.7742859172490343 -0.10244534835112035
Ni 1.266617577474282 8.044313706501105 7.1467751495271195 -0.006145707886421674 -0.25346886272126024 -0.3014117091491261
Ni 1.0638219284044554 0.8540013803575496 4.0880723734891555 1.8692398207736451 -1.2565256257242425 0.6427217971550866
Ni 7.768088539563468 6.132936514568292 3.5113363037056233 1.0024957482931895 -1.3396910427998283 0.04918443214445078
Ni 4.2570444006481525 3.531181319715629 5.185534858524438 -0.3457493547242368 1.1540437677082318 1.839115490584439
Ni 1.062583001762012 1.359148755366633 6.650527705756963 0.4753594364156072 -0.31832493996469696 -0.6315516394708801
Ni 0.10790866141259053 6.025778605718137 8.379097573308746 1.1490190608001307 -0.16758938914862104 1.2493134242465194
Ni 2.793650138613228 8.936350134781673 0.6378669292947878 -0.819605210011124 -2.539065416124059 0.36986167439140816
Ni 2.4244684906074756 2.424699633637782 13.062525974530814 -0.22035973887211724 -0.48745956211325076 -0.05760993720398466
Ni 4.689346587370039 8.625342564643493 5.2229911242995675 -1.2787672107312622 -0.37892866968968286 -0.07649880368868761
Ni 6.466198535664394 0.3560749136152454 6.899517751719631 0.514060709640547 -0.46050848744570366 0.03530973104488758
Ni 5.681403227724892 6.18093105338116 9.074171478032303 -0.5244664783549031 -1.456511686036014 0.3828202914346052
Ni 7.511334861498861 0.1152294234684622 12.434098002021628 -1.195209186202948 0.26376150289651995 -0.3215529599836914
Ni 6.8831713166163455 7.9098254457474955 2.3914510955863553 -0.17123495632100832 0.42358461783616086 -0.11610330545418714
Ni 0.27896190041646807 8.413948394846258 9.466695798382663 0.18377268377670286 -0.4244029999723981 0.04398797554517586
Ni 4.602150190617166 2.7518040044065155 11.761744532605091 0.9654039856472147 0.8183790509135066 0.8212206341273599
Ni -0.1958576598721428 7.701426889623035 4.673509591505551 2.0161516269682567 0.17865387449289877 0.053102279141618226
P 8.887782361253642 3.685825252711979 2.9026645882828057 -0.31817967263608427 0.6058089832891372 1.0545500457862678
Ni 6.337507342110873 2.966785514034108 1.5012721326973326 0.9944510236118422 -1.3595859819515423 0.963918916461256
P 8.769048809445732 0.06240676903854819 7.57245277700042 -0.8684029482401173 1.3146364138240454 0.21297630192385256
Ni 1.3122452116568113 3.1019024838301528 10.826625817191733 -0.25144874696743796 1.060219328256903 0.04710415257665436
P 5.9189350513892 1.613470808752414 12.997599746461924 1.4036366924138535 0.19533390625174102 0.5911418681952658
P 0.6700401899692285 8.916675240041972 2.2573483814072954 0.0838318470149911 -0.7692504117076558 -0.031147115026765718
P 5.9539393518988355 1.0451085886708305 3.1040761528871563 0.9804660221866597 0.04151406008338657 -1.2977190692434166
Ni 2.23531028032574 4.781517182135112 8.768008665809353 1.0505928609107325 0.9729910539658534 0.36689050757822617
Ni 6.383911616875232 4.7711804658198 10.67669073000879 -0.36499868987215206 -0.31346041278354403 0.6857813473487221
Ni 4.334042766903898 1.372675245500177 6.204809052983958 -0.46494929682587666 0.8077467680106413 0.6080512423560948
Ni 7.4124796102973205 0.8282825576613912 9.371064530167839 0.6385026168674165 -0.20233913392498054 -0.5467234899808907
Ni 6.972152137563186 6.876588363113212 12.393461208149482 2.2060445647100844 0.9963287002505292 -1.5158686878380925
Ni 5.143283761728628 8.116263908974954 0.5704924342488895 0.6523405511917734 -0.22596962885972693 -1.0706122414554529
Ni 4.374474305765133 4.685546595951799 7.709761907295893 0.34807388909235537 0.14950013574707802 -2.6609429050578624
Ni 0.8741394857299846 5.68918812498562 6.416437139527861 -0.4655563342822563 1.1935017165935382 -1.1935042876966993
Ni 8.545117441684667 7.509384014323072 0.7136920135286966 -0.04694577262191915 0.9321871325756139 0.5484227320601845
Ni 2.6404208009623553 2.601357628840535 8.154127911055543 1.994390581142081 -0.23760798442960368 -0.6135616306513626
Ni 3.386106708173975 6.23732995277598 0.3831001567186968 0.9898189241564694 0.07996722185326227 2.49169926813527
Ni 2.6138670896407294 7.727546052047685 3.7019081847607143 0.28499341569210274 1.410993389889241 0.9329880312103545
Ni 4.147954136064635 3.660390273657037 0.5855962444212461 0.6895274446547157 0.35143020715909795 -0.24019220021701213
Ni 6.968620272060101 3.302876725821163 8.672702846981199 -0.6151708841200115 -2.1871582693285427 2.431815961516076
Ni 0.8313743268347727 1.599565244049167 9.045050229930032 -1.005775704596042 -0.8653014264966582 -0.4523827730147757
Ni 5.2264305325905305 8.191450113873096 8.686031478680801 0.28381893576802736 3.5087878266409698 0.4883021126192042
Ni 8.340352453996628 1.5475765536725994 3.238475654717129 -1.053139024371354 1.1311732908679617 -1.8297836716605518
Ni 5.663253876985216 6.970081096011639 6.714994421481604 -0.5828171503796544 -0.825001955546663 -0.31806782964856833
Ni 5.221558037511666 6.602591414987731 3.9329411909849203 -1.2950932015847954 -1.9172770266875305 -1.0588383887489763
Ni 2.9511417537429545 8.37950808333057 10.225464401109639 0.06532504646005524 1.359583410848381 -2.032411797580861
Ni 7.655799255440506 2.78818591737678 11.125440130195177 -0.45332199699959347 -0.8024415537476438 -1.8281427936230192
Ni 4.575827622325846 3.8284497481323827 2.9158175512793743 -0.16097316938368406 0.5031543471406883 0.09361926541905813
Ni 8.681242195092848 5.098164642212774 1.2925518254746864 0.7796749494750894 -0.5920638657889029 -0.740624263330531
Ni 8.335285798772306 2.411311829322422 13.219281630252045 -0.18788079240780547 0.26139197422307886 0.10495423081590312
Ni 6.470238915834154 3.8817235937574552 12.886676979934135 -0.6159234460153199 1.2776760345496125 0.5443583321828238
P -0.49873454277625623 4.087616559433391 9.666496758351837 0.8441461325752818 0.7243239835086106 0.32764698869657116
Ni 5.078776364830653 7.669103848264956 11.284414759007351 -0.3698045959012276 -1.1902047910098212 -0.207302648577843
P 5.734732547677238 2.920825033887937 6.985269966819149 0.12077937077361779 0.3526985323485603 -1.5337990470642682
Ni 2.3853775813220177 2.931198733088099 3.9209106585435207 -2.023157883082761 2.8048683749306402 -0.9260008012592439
P 2.385867604546268 4.164577942804287 6.280344746143922 0.7708900041936078 -0.4104408813653512 0.1094804008210308
P 2.074601154214145 9.532338569845503 12.029841786025028 -2.265943297948246 -0.16094231614574864 -0.5959279767299995
P 0.8928139934345181 3.9872172727894024 12.911089382223 -0.007729764544089915 0.4733452341990558 0.6340240122707725
Ni 8.066679106113575 2.6831082957993844 6.609768868364813 -1.427156887022981 -0.07582028956442427 0.03730079333298738
