# total energy = -340890.52349288785 ev
CRYSTAL
PRIMVEC
9.05180626935478 0.00000000000000 0.00000000000000

0.00000000000000 9.05180626935478 0.00000000000000

0.00000000000000 0.00000000000000 13.24823344579837

PRIMCOORD
 96 1
Ni 5.896228977027352 2.0568238512466035 11.533408834285568 2.0510885480547576 0.4943331493046325 -0.29009911234978425
Ni 5.016737369325737 0.48265679699082364 6.123426600643871 -0.8892972751906233 -0.2037946354245845 -0.5632279153938171
Ni 2.7187009827048865 1.7962947611407196 4.798775303718913 0.6712893243801342 -2.75176223913428 0.01654736283571989
Ni 3.694277514715929 4.200653665042638 5.165658592428059 -0.9960497355575296 1.0932070960368334 -0.5000412554330034
Ni 5.060828718012617 4.560490122515336 2.5164094042355547 0.716082826545741 0.41785825687534484 0.2566009805923387
Ni 7.390863240048806 6.13996696637073 2.42779222015743 0.5639732782002739 -1.7417894657377553 -1.1882826342864439
Ni 4.866939026188977 4.472588031138148 11.224048869692673 0.3888078764766078 1.3288420159004664 0.9565503919113267
Ni 5.304937831415976 7.5345335102927296 12.42533309799651 0.03307827061120755 1.3874801372586492 -0.43160260304463083
Ni 1.8979555981561869 6.02711809671782 0.46729588163019253 0.0028904341739176024 2.512831165017879 -0.4590087629717256
Ni 2.355497253273347 1.4290810815001285 0.5186123821384364 1.4271203773580905 -0.3567115101626953 -1.3875305308806105
Ni 0.5457207317683822 -0.043355436831358174 4.865519702954711 -0.05619223092085161 0.5852044196649082 -0.6186562715654507
Ni 8.786090565833696 2.3968187492198885 1.2918203953262488 -2.134580752342143 -1.4312495690351157 0.07519988237160598
Ni 6.995987240230202 0.7434520102031319 4.58354416808516 -0.37241940781625543 0.1496888547191164 0.744413298059318
Ni 0.8306951300786974 7.137819993786908 2.580490762045839 0.25064681989143284 1.5199716542628727 -1.3079654295617733
Ni 7.59827633054586 3.7435102894044814 3.8359328528683516 1.0808084652621643 -0.7649409856990245 -1.0504812750335328
Ni 7.705015230918614 3.8021840981066677 12.565300274266342 -0.019757642242901455 -0.5173689480781735 -0.15197842208424148
Ni 8.077144041402354 -0.06920015429610415 6.871911415172583 -0.35364366987064905 0.3266771685841342 0.4003253901979041
Ni 6.833208606800485 0.6537341264739444 0.38073707831400455 -0.3550323226880595 0.012629001617920185 -0.2321657303681098
Ni 1.6697957675256223 6.698363847739011 9.065156850145259 0.07605605972431417 -0.5049862581431045 0.6346153659978684
Ni 0.31489604935103543 4.694701255132943 1.338786597707021 -1.9961921531271944 0.4342636948165618 0.7474176321032805
Ni 6.571376056581502 1.950401764095784 7.207450108884208 0.20162899523183336 0.9331548958055219 -1.2924475364318322
Ni 3.251173490712621 3.9969246597263597 0.5045666942391487 0.5425876134356462 -0.7018610265194042 0.5813102268168246
Ni 6.5036323379256595 5.526535102449334 4.668253687365888 -2.1546705811134825 -0.08774095226141018 0.5471397515827029
Ni 5.300674430629377 3.011780368412909 9.377272184588348 -1.3901240026393993 -0.22851604943066448 -1.1676230490545632
P 0.11294753434202646 5.486797672612463 12.397908840325265 0.8646635358023431 -0.016005888509953083 -0.18140392643421016
P 3.8180790700414162 5.885529741932322 12.886557027933177 1.6986818359150038 0.6287936171097688 -0.7606387587792448
P 2.3181404485041517 8.2247518474046 1.3610965847956171 0.04404171160124673 0.6256489008331999 0.7677828260231938
P 6.641717643657202 7.9252909382261905 5.6891888209515455 -0.16929737297866326 -0.09740752881689677 0.4618117796381595
P 4.541236930428087 1.0194687409584204 12.786453101608357 -0.9188163676956628 -0.5522565039839779 0.3098241015825374
P 4.1451841957851565 6.448135713249155 8.100062309877064 -0.5650130323186979 -0.46519869383252144 -2.360986183187708
P 4.648301695829115 0.994485755457335 3.847008643107166 1.0677125513101546 0.1398276456543205 1.0072306918750138
P 0.3796508615530878 5.446643859683907 3.6075068991313626 -0.038363173159230705 -1.2495342820080737 0.18930106979409977
Ni 1.4768474635614428 1.060708770647893 2.6755202457359095 0.039475946607435246 -0.8974548713007513 0.1948518244089999
Ni 2.2088489387432437 6.401573221431191 4.957330364309931 -0.6158949067702296 0.30680948312592965 -0.4053282427291342
Ni 5.924289576684369 5.565539335972587 9.15123047664157 -0.6046517297562426 1.0545479889037386 0.6685014772223519
Ni 8.902542054410313 2.3183033810182887 10.247005039873759 -1.0317273914647973 1.3196369523624305 -0.15440734324070826
Ni 2.285635411933718 5.530499793626681 7.053227242807979 0.6611576352627709 -1.119141299404092 0.4176494832986485
Ni 0.4442101547381751 -0.14250711312910777 9.120865287090142 0.17208804834992297 0.6488592775113922 0.3998309670599888
Ni 1.439282467246405 1.0618040392151509 11.243391674662698 1.1596199762444288 -1.119799501813381 0.6659851385584014
Ni 4.344676955733859 7.044432507767089 1.9880563732935974 -0.8916146104698903 -0.6781431140771741 -1.0834497595397534
Ni 5.718542018554053 7.999515750222169 8.23001456761124 -1.1304076163465306 0.9705384786603027 -0.7534414696998573
Ni 5.461009076347032 2.796718501557733 4.977348434032994 0.447612605319642 -0.5468157925843808 -0.18876216657149425
Ni 0.7810686018143131 7.500236216066783 6.9906421485858585 -0.1352060877219091 -0.3462350361114037 -0.5356068112424389
Ni 5.22125388179368 4.464785374072229 7.190598361019219 -1.482366442315589 -0.16886182810314146 -0.5366383378307468
Ni 7.800629461298311 7.199761504578185 8.906813601822618 1.5412614168795842 0.21720808061701302 0.6993508585030407
Ni 4.536222229715188 0.26739488521551164 10.675002504274618 -0.5380539872313508 -0.34251413561639077 -1.0576291989322237
Ni 8.266109550576505 7.106220137850571 4.385443575951699 1.031570811282275 0.5772594537862188 1.561643580080362
Ni 6.969257256105309 6.152449407314933 6.927303038895533 0.9731779731656788 0.026331953026309488 -0.01124112013145806
Ni 2.4667530050102457 5.314605160588134 2.6661145137670044 0.4145338204878022 -1.0728092491067718 0.5064620713576825
Ni 2.376053905473696 5.363675002762549 11.404993573268088 -1.2220607591781534 -0.3449664538116252 -0.6139308410653234
Ni 1.1308693215967744 3.318365049181663 3.814842144093885 -0.4778127830521061 0.8481521684108814 0.1722114613016647
Ni 3.715196239169918 2.7124190291042516 2.868216004303176 -0.599090176508065 0.1895368399539897 -0.9890717615777997
Ni 1.0618945572785605 3.4885752156173186 8.106183141324829 -0.8748643875947448 0.5149279427368486 0.04329994833921575
Ni 3.620405723167249 2.500434776405006 7.007851442801315 0.9134874992835816 0.8154467077580602 -0.1189636577211177
Ni 4.649912917357809 7.0999743914753 5.845915416661687 -0.9579115339249116 -0.8746471293776162 0.5538639576804139
Ni 0.6958702849911734 7.343404619403085 11.313872659556049 -0.47310046517810134 0.0323115676485121 0.14946671140598128
P 9.026316454316778 5.6257972107844445 7.94841015680167 0.7888332189355899 -0.0798576928585915 0.026577493378212292
P 8.520302376243707 1.653529671530894 8.18991234997883 0.8637628783649446 0.5418250242380088 -0.657874336525809
P 1.8896279363224917 3.5387946371970367 10.190408620726826 -0.303647026237548 -0.946703066803602 0.8494292353510918
P 4.16848354530682 6.045013517853924 3.942926108999286 0.3634388015841999 0.021221628382937643 0.19836472265826485
P 6.910366204050939 3.8919056025583916 10.461865051447532 -0.032384586978292614 0.0786374472982452 0.972424897049738
P 6.329502739344363 7.853501062135934 10.368001440414178 -1.3019408206342482 0.21820849685706936 -0.1634918220404797
P 2.355053714762639 8.625964111661885 5.9451576110228475 0.9737855248426907 -0.5908317931540147 -0.6023104832175755
P 7.038394952937661 4.0606403245604685 1.4963486751424349 -0.13504873620843838 -0.3192741912518437 0.5898851129700292
Ni 5.416175479540192 2.7795743803479303 0.538340794058587 -0.5010149322001823 0.9668227203716122 0.07453576642504582
Ni 1.411529629004982 1.2406586807064355 7.100602586835364 -0.532622017582502 -0.5135634582891542 -0.6313071275602418
Ni 6.82553267502334 1.0589436684114033 9.358314081387814 -0.4610574179706382 -1.514253777942489 1.2518068800923345
Ni 2.660416401675362 1.7429796217923887 9.054544512391102 0.5369116460967914 0.3896650822705805 1.9762043971513579
Ni 6.414390579210008 1.9336740259776661 2.512792302421702 0.273589030509903 0.20594433477773566 0.42546512268832537
Ni 3.9913396952139797 6.815467066372179 10.162282848064153 0.7893978331898082 1.3393881668474288 1.7958703067425588
Ni 7.966603382366392 6.985378523198582 13.331564646809992 0.4046888093729224 1.0744817517131882 0.3140437960908398
Ni 7.425857523363008 4.034869831907719 8.349845095494944 1.895204106047891 -0.9499390572423961 -0.5188643016767774
Ni 2.876953712964117 8.249997335289573 12.425624566160689 0.5357567065567419 0.01901150810549629 0.5549276230582378
Ni -0.11681084528835373 5.0538588271300675 10.209592113905249 0.7551707936861382 -0.8421051908858529 -0.27945140282795095
Ni 8.723660257500006 2.383566904736704 5.703205543070542 -0.3108286315876518 0.1149437379284472 0.5407503031165913
Ni 3.4917433478366595 2.752799137191332 11.672740573750264 -0.7875031872702567 -1.1690628668248833 -0.3913213869270809
Ni 1.187307334132741 3.1829590781270487 12.456704848413054 -0.65637666893436 1.0947137624893468 -0.025451350193569068
Ni 3.077777088444943 8.659654934862987 8.100752057520245 0.9891789765796254 -1.1117558055732983 -0.4222787545405437
Ni 6.163275367698736 7.673279597887163 3.577446755453625 -2.4466828513255794 1.1276295393807612 -0.3063238017387628
Ni 2.8505948528992033 8.297908546252343 3.699476872278184 1.1347160139138974 0.9029112664296322 -0.03909362356735202
Ni 3.380650528613898 4.782829641668655 9.191386099931394 0.06549576770996463 -1.890398971349764 -0.24280341258761412
Ni 6.964360228874843 6.008009733532027 11.266814128750598 0.46740264346237564 -0.03474588812161758 0.9145804752374442
Ni 0.4893632803088505 8.93154404192679 0.1895158589996826 -0.16801027873612356 -0.6480177554467034 0.38542764715046524
Ni 4.367143539072154 0.47046672939143536 1.8220960299350286 -0.07461804172620697 -0.5814030436409472 -1.2788052630580493
Ni 5.8950341385903435 5.66688335976612 0.34474438076039376 -0.11171134703407858 -1.7350238648791474 0.660949375906707
Ni 7.810351101308516 8.905655875791608 11.43790232040133 0.5544964490580901 -0.10664755935792601 -0.08271675957394142
Ni 9.179979918761134 5.012953714275211 5.701907514041246 -0.1023371049080302 -0.8006178702753437 0.9510759990603169
Ni 8.140633411077937 8.767000306260584 2.370214585203135 -0.3052555083752485 0.4539138649473215 -0.08921985079978181
P 8.63717929971835 1.581911779761116 3.511550510471976 -0.759857143418214 0.3003246467325344 0.29629007165184457
P 1.6489223021033388 3.0612122828409625 1.7333322065941799 3.015409585050439 0.7472847060698421 -0.36526479904934517
P 4.785744323310449 1.1568932648270718 8.276555335093988 -0.1336006909080022 -0.4929136432492866 0.7897251346222399
P 8.62173691810065 1.576933286273581 12.470178462151592 -0.3025928739414208 0.6192679370075206 -0.4478956837776996
P 6.258500370405772 7.777239593713237 1.269697780628911 0.7074680882935365 0.34474071095406433 0.39860557929331997
P 1.817548402429324 3.199605349988098 6.003158870513899 -0.8819261795375328 2.022340015167156 0.8646933605990141
P 7.013755936077533 3.919685596218838 6.156665738708557 0.23583546591021318 -0.08276792452685101 -1.4194659461366264
P 2.400339901886527 8.375301490467661 10.266864702985854 -0.6324579533352334 0.8971414538253905 -0.20427080373005463
