# total energy = -340864.6961195983 ev
CRYSTAL
PRIMVEC
9.33533095350539 0.00000000000000 0.00000000000000
0.00000000000000 9.33533095350539 0.00000000000000
0.00000000000000 0.00000000000000 13.66320048016936
PRIMCOORD
 96 1
Ni 1.348945997401941 8.84670112600038 6.957219858207869 -1.0498071317846436 0.20839536742138948 -0.1598701661274924
Ni 6.96193513390727 2.246706111161551 10.245132779618821 -0.28375003020330486 0.3554478129589233 -1.7597254813908856
Ni 2.891842832124713 4.576319297132801 2.998540064511828 -1.6440584921431687 0.8821575788220486 0.035359353335900394
Ni 3.728204473750173 3.4245168202613425 13.901349715256165 1.2865417124703584 -0.6834935797558099 -0.627894502334267
Ni 7.44713896379513 7.64380638244347 8.784591301642324 1.3278678249126552 -0.3748305883609093 0.24450908242481117
Ni 3.666105851789345 5.509152249543468 12.646043622740345 -0.09118443072532038 -1.0235263437112436 -1.4131058082465533
Ni 2.5500110160784644 7.11018019054256 0.5580558196533603 -0.751669465401099 4.152644251621132 -0.2152527566628551
Ni 3.2511690585068895 5.68733571276751 10.26773081542468 0.4006244094955616 -0.027992628558184046 -1.3215064014710016
Ni 8.50816468180503 4.826580851180589 13.511374663594435 0.17556700803745892 0.03503488011694611 -0.4536181880837736
Ni 8.3150073476211 3.628661839058605 4.007416756364545 0.6969610181146255 -0.864559149013995 -1.4327693481137518
Ni 3.9823401901722457 2.6289319045416097 4.51086462366943 -1.95261118321245 0.23770182969499065 1.2536213075932539
Ni 6.237429428591888 0.15481806320814356 11.632753186380251 0.09805184726911499 -0.37165707572893414 -0.3958352156370344
Ni 6.440799614914294 2.2275313412415962 1.007319558638185 -0.4604809766418779 0.6036837094160183 -0.5826443722472159
Ni 4.240163362348156 2.7527837412154383 10.705145218742805 -0.171838137122646 1.3800290802972428 0.9644791598401004
Ni 1.9100367331706751 0.658442368269351 11.941650888112667 -0.34177288657499205 0.32893742537322057 -0.043827795818227745
Ni -0.015348217733884189 7.058350432706343 10.50831256473537 0.011030803892864875 -0.19805953271302018 -1.2346041430608028
Ni 4.3663396964465555 7.376890597851769 11.467606512928953 1.9727704317691444 1.9877162544456992 0.5739998091983405
Ni 7.014717095507769 8.752965067204729 6.719671157946349 -2.0057389162753654 1.3232961463815724 -0.04966625687687575
Ni 7.026544959913116 4.68522526883981 8.23303473944674 -0.7490076022982197 2.031982680463243 0.6865377658987725
Ni 6.151329670572538 4.276991243231419 12.255426300304276 -0.9154394808036299 -0.2726863161899756 0.4317445279391338
Ni 5.610991375666541 6.630960307840041 13.348577692961468 -2.9601750900571666 -0.8634767145830936 -0.2936747455161846
Ni 2.9969960007607277 1.1065167860819252 6.731285243271284 -0.45116149901316493 2.6953213825377325 0.34043077072480077
Ni 5.63631812873024 7.139063704725783 5.1144367167885765 -0.5763189442498203 -0.5583204507898707 0.2624291572383416
Ni 5.282518418313308 2.21417248254858 8.599577176709213 -0.5891060687121596 0.8922748697617084 0.6482247292511868
P 5.10832114143582 1.3857738782852045 13.145297125816876 -0.3486076501086383 1.1109538784972932 -0.46339609340614385
P 5.717619526604089 4.385785190966159 10.026384502503259 -0.2951780695345884 -2.109975552198953 0.07557629187441822
P 7.541379130465989 6.67768363960702 6.664157678488703 -0.08188192237747188 -0.4127322485026892 0.6697965418846917
P 3.830463689769252 5.690285677370579 1.084026106582823 2.9787883342829793 -2.4058915283408306 2.233988085197888
P 2.4521207349778567 7.504523243589659 11.511546982518162 -2.390882456526508 0.21867052409515245 -0.8794203823965435
P 0.8014680413300324 4.852869143339593 9.428113943871718 -1.0015860919947266 0.11219934241409063 -0.04794078954533679
P 2.4442790569190627 2.279697170994619 2.7784531009276585 -1.4520392520869574 2.972698419335158 1.3034552003962454
P 3.4168245074989065 5.850274580432017 7.992179464937096 0.45298801069894246 -0.10200388993832754 0.323525767439346
Ni 7.97733908921083 4.583171430103223 10.62600775059994 0.4882941421994042 0.5572323599320145 0.07973787945127557
Ni 5.382014376349764 0.33204465500239233 4.11612108492147 0.8666471418912752 -0.030979221990333747 -0.38166200946044593
Ni 4.4970063247667165 -0.06903103877804272 8.062709757877332 0.7962940460890092 1.449385102293562 -0.9315505274328796
Ni 7.113232843786876 4.774022937524626 5.623828389355406 -1.2659250646612714 0.45282783097199436 0.5927752900336306
Ni 1.2185780996744962 2.8258700477896004 4.614486798017775 0.9508620832772978 0.9294550783564316 1.1253808525559006
Ni 0.22884537114936054 1.5638079762128885 2.8320126956023217 4.439723860418302 -1.2112718960927655 0.31905641881408275
Ni 1.4900028491500041 2.5975558569754127 0.6950947449293936 -1.3195094256456308 0.07132291591470297 1.7662267728445131
Ni 2.7419080805743734 3.8327041692146215 8.809375671973624 1.549384303097035 0.661335555601532 -1.9294278031174517
Ni -0.17852980400497212 8.246430005930744 2.6650344302044346 0.6293343201045871 -0.5006156398792346 0.3733159514885958
Ni 6.81436222110559 4.796679785915927 1.4865291724765788 -0.7120287110810254 -0.9413315180790434 0.39758228023512815
Ni 5.858527013055795 8.8809244495284 0.4350264256426028 0.7733893735766938 0.5799819949237044 0.7043177155900129
Ni 7.333537320583868 2.125860251076927 12.329589904078418 -1.1680339113397367 -0.6358906331658661 2.6823576232882127
Ni 1.4241981007732936 0.27015514445646527 0.7738289267720913 0.07798721530875602 -1.1669098250376226 0.08583833592205861
Ni 3.142384446103172 7.3118420112878715 6.467544404760291 0.17287660568948937 0.4224142516771435 0.056146979505212975
Ni 0.010222187469498928 2.965489258560217 12.079812853710694 1.0599557901828713 0.8790668557118667 0.5252439799508761
Ni 7.934377895845866 7.89765270360385 4.860301000366504 0.4176062887655389 0.46825290727781294 -1.787498537739096
Ni 1.7162819378013143 5.111905908548411 0.2683468908374316 -0.816858243393606 -2.293536891295798 -0.1124983617117482
Ni 5.657294617537513 7.039353034075813 2.4325958901445626 -0.513814912178328 -0.2589144592168638 0.3663953131093625
Ni 8.133444494566959 0.8215950150142695 8.254035500114671 0.11954061327051026 0.10464004200959397 0.22350831180342798
Ni 5.229484402775204 7.107202219946422 7.987138386185015 0.30726431127516113 -1.7593935519727633 -0.5766472741235167
Ni 7.351031730919795 7.01830186262036 0.7051059539177869 4.346887495911856 0.6414624708266888 2.351500612294776
Ni 8.28012121559049 0.20171316506593434 0.9251789145054231 -0.0355904955101 0.6202822372046479 -0.9160943407788094
Ni 2.5497309561477937 0.6382183071424811 4.2255909106222305 -0.306768088365033 -1.6105264218239939 0.14860282074378925
Ni 4.118113244561645 0.4193085288002326 10.685114398968098 -0.5143615287104173 -0.5986412618961044 -0.34654922491771284
P 2.5153395966613696 3.3177766453515245 6.682958101634661 -0.8537900834229489 -0.35553085959103287 -1.4296428866696282
P 2.5406476790630244 8.424081355286512 2.320571917876081 0.11854225391298293 0.4288762052524033 0.5997206110032123
P 4.245157764445126 9.073064232630891 5.835307244203845 1.7068695139321184 -0.9248378912993942 -1.0683126467879986
P 4.967647038259674 4.911653722787478 4.707560048310839 -0.6292633576573355 0.024970553902408606 -0.242643232860666
P 8.673745448148868 2.928661377676954 1.521684162040633 -1.6137158752955691 1.3589383210652144 -0.8297795794409646
P 6.869627380758041 8.875481951542357 2.3758389445947365 -0.775742961410535 -0.7631700098415307 1.4625800037172811
P 7.248025688418926 6.150452149456434 12.048087664764259 0.9761277998226221 -1.0173104447085188 0.17394027106731333
P 0.24789411410051354 5.263623708324024 4.447740982362345 1.8275121020175558 -0.4121398663343289 1.1106841697756742
Ni 3.817991687523361 8.958939810882375 13.111972794666311 -1.2550984063594126 0.3657178274263637 0.3040784573480118
Ni 0.7891117971888189 7.722167151045274 12.666237810807944 1.2795084597726607 0.17790028415632586 1.5157925831845185
Ni 7.514185311197816 1.5957348083094058 2.9074608409251437 -2.89001662676421 -1.4832858688060648 0.8836269642787234
Ni 3.671511008451299 1.0685499948139323 1.8550665699785311 2.234243395741804 -1.7426556703927922 -1.8179141739164757
Ni 3.326197113933705 7.027273115732862 3.930151022091667 0.3390585729676225 0.9670512914426508 -0.7051530670071146
Ni 0.06801162063039953 4.516526501934499 6.688245633125733 0.25938831352948877 -0.6144489183523225 -0.0336426277551098
Ni 0.7168087248874343 1.8615676945025121 7.058518468664745 -0.3421852915220623 0.8377302017466087 -0.4523462633498855
Ni 8.931493937676597 3.017272339741323 8.983089378704152 -0.633279163684948 0.5481010870547077 -0.9435917748681297
Ni 5.609320351413535 1.7517188543622437 6.4423492798640085 -0.26246258157943836 -0.6795222538128878 -1.5130039646957878
Ni 1.208178540915572 6.521662252230093 8.013699270009871 0.5679893413382024 -0.2495132205076219 1.8991396936568714
Ni 2.6063404034674664 8.540539609790619 9.054233936425662 -1.8196699802653178 -0.45951989828018924 1.018577998567033
Ni 8.043825316752173 5.976488255854505 3.2819140376959743 -2.0773143145205064 1.6469234723957895 -0.22326765654753164
Ni 0.3480286087789002 4.845998339707125 2.1720664055052668 0.44206236492537415 -1.2031904046362116 0.5208119123214515
Ni 4.656659155911347 3.5466882973511438 2.3485265666225787 0.6641637690789465 0.15765413231278008 -1.6879302538254544
Ni 9.182689024826622 1.088742315815326 10.599350712865554 -0.6471916600009822 -1.3140026368947886 -1.2731547496404914
Ni 4.657135257793488 4.148313040419024 6.96523984108919 -0.31586285157744953 0.3519236018557488 -0.51003590475187
Ni 7.728039074258346 1.8194280102675182 5.372739724979036 0.9370958827311409 -0.7742362949580215 0.335136612205397
Ni 6.034544679482646 2.965535935215329 3.83676317114315 1.676178512606165 0.5014857011890137 1.9591415281317999
Ni 1.2586640110845677 5.3251342044304435 11.498608213721154 -0.1063966196893845 -0.9883204852340721 0.9925095836147553
Ni 8.05199373139675 8.012953377061184 12.338675981762496 -2.1106782346929327 2.0500819611671144 -0.09343363177081328
Ni 1.5197172077942187 2.8560511729849334 10.302271540207462 0.5691926176176842 -1.4806923970472756 1.6785521550446638
Ni 2.743457745524087 5.274788764226782 5.366400101681743 -0.5346678443679374 -1.8225992380969709 0.5394488106963483
Ni 0.47845625262488856 6.864567631343914 5.954736934572375 -0.06542069149765509 -0.21504115487268124 -1.8116013443245702
Ni 5.903065877363538 6.471559530633014 10.362799959490326 1.762645740361474 -1.221892094810773 -1.6238408795447128
P 7.389530636056063 3.0123059436374207 7.162208790929554 0.7254120743664668 -2.1734853998271406 -0.605520248404125
P 2.1385282952742877 3.2282414855159405 12.500270561759779 0.608829772393332 1.0195313636192376 -2.2668187585746638
P 0.2978157302757578 6.6514793654272175 1.0014457683589075 -0.7408546341737821 0.6243736336652022 -0.253082425916119
P 5.708274860250693 8.627414200284827 9.611228328941777 0.6873607760207001 -0.14648114641509613 1.141241730847557
P 9.063168781747175 0.7547652472913025 12.690066243242551 0.9464143319185895 -0.3587593938306596 -0.13813663110514274
P 0.509884578044811 8.982772910982495 4.820595970462144 -0.03879460426969448 0.17751333313055237 0.20672080793244396
P 0.23143779257427363 8.493918966664888 8.898418859864329 0.027917552345874497 0.8740694024972753 -0.2602768867820292
P 2.9734149545982125 1.4786510866267981 9.143700948344781 0.17583954497255522 0.1982063427035296 -0.047557438063989065
