# total energy = -340865.1694307357 ev
CRYSTAL
PRIMVEC
9.28514340330910 0.00000000000000 0.00000000000000
0.00000000000000 9.28514340330910 0.00000000000000
0.00000000000000 0.00000000000000 13.58974592741858
PRIMCOORD
 96 1
Ni 8.03449951664525 4.256699677004672 10.70888263579279 -1.2286834067009935 -1.4614330345970317 -1.0127071416085525
Ni 2.3069124298191803 4.1527432123183114 4.766480972559223 -0.8480392969821008 1.4102827369754614 1.8591179018482948
Ni 5.6608640468800004 6.240619111059318 7.305901747909368 -0.07959698299803711 1.1966888560722682 -1.59099143711486
Ni 6.358605427312406 8.052076292962798 0.09711702811187166 1.88494874686847 -1.6941921755747662 1.1837621207082711
Ni 3.7159050742244224 3.088145819045776 9.52692845898472 -1.2728968679934143 -1.133493968581338 0.5573858547907433
Ni 6.194611225875242 5.004877955988016 0.8317594251534712 -0.4204527570753985 0.5495005385053956 -0.2169553411762586
Ni 9.185792293159706 8.489666527666156 9.009063517649896 2.2676862487812817 -2.125440994824404 -0.23962912862469052
Ni 4.894839722422631 3.1792330750812523 2.1860328629054746 -1.3091990448585582 0.005335553280300488 0.5361025199319348
Ni 3.076622956177272 4.486878380074953 13.117583449331534 0.35002921304651324 -0.4517718789036542 0.6804810181817313
Ni 0.25179915930663244 3.243709110342246 2.8039721505017434 0.03767051796758029 -0.7376024457850716 0.08096069611478314
Ni 6.669954853345188 1.1901696716235832 13.214329071710335 -0.17441438249025445 -1.5688236427685691 0.02685208719583762
Ni 4.534316177331349 2.8979953688571403 4.910328270005992 0.02885626211005998 -1.232085233293691 -3.503343772807263
Ni 5.975593265083722 9.27596960514916 10.756882184220455 0.5311063522689241 -0.3658430401503183 0.8649728395126458
Ni 3.710046148785239 0.8517754086229592 3.4774932345663063 0.5205069794865229 -0.24404294142167005 0.4074779420822853
Ni 3.3875731210470033 7.391605477843991 7.455810386919843 -1.2784658774407593 -1.8633049433464492 -0.16301076863900313
Ni -0.1524899088553137 2.721364087352261 12.068442105640715 -0.3280830477927253 -1.2220407045734953 0.16828692943627793
Ni 2.255203466632476 6.762936278619323 12.326321176797707 -1.1800396775513613 1.9236585047338417 0.8530472917196535
Ni 0.010646345338458423 3.5213627512422305 5.41261924043885 1.231027481453138 1.1417963177994463 0.44008981458003565
Ni 0.01873091963306487 5.333070632015534 9.287544464820293 2.458495270579476 1.7021399696669328 -1.1965384465373328
Ni 1.8136206202986147 1.5352427382191431 11.621053259184634 1.318222331403091 -1.1215501659559006 -0.8980133149073825
Ni -0.14255944806734816 3.38097138414168 8.317115138139052 0.05946601657611694 -1.882913461605996 -1.4139108206463522
Ni 8.872576553318245 4.451325566276804 0.5079372660898579 -0.608927474313461 -0.5042743196777444 0.09976163087137013
Ni 7.743623831647965 0.890805508596978 8.57421889982826 -0.5181392505852948 1.603531992784032 -0.969695156823401
Ni 6.6375868437081165 4.562673005051262 5.474764704724828 0.11140898530231136 0.8602898322146797 -0.5647466660311886
P 5.105946741099755 6.404204766190104 10.513217738982394 0.23759024381779084 -1.8442001041961982 -0.1567532177650655
P 3.657687225565662 0.7589193327837358 10.3543944338639 -0.027229782250230525 0.8438172884809532 -0.866928934797752
P 5.058221104400229 3.1239771871437276 -0.08366656948873291 -0.4165287394306439 1.4820874776225894 1.3608033992984112
P 2.652598315874306 8.118251509452588 3.781428473652674 -0.8627979433485139 1.2812400977517868 -1.7799502930781925
P 1.0410966955125158 1.4996899244209945 7.189627612085733 0.26874044416835 0.8815821659345526 0.3558368208672259
P 3.972072893466293 5.008424880738837 6.346058413134961 -2.2265514264141846 1.8529572815635378 -0.560980257010221
P 1.2151467071725568 3.5352161850857504 10.255352595540392 0.3786962419639026 0.3847709874030728 0.4339536197753108
P 7.686408778468494 8.306284946962723 11.94001835977402 -0.6224177954904119 -1.6658647893849825 1.428203068899308
Ni 8.706307491766026 0.4358464847865917 10.898581828015747 -0.8908180827105239 0.5521130364275783 1.3837245268709588
Ni 6.813661016613391 5.862008106767515 11.721033825498477 -0.3433399739517958 0.9159907253214095 1.840654552936785
Ni 5.307880038170044 3.853798737770075 11.038080892842595 -0.4387394711997282 0.6944817033361975 0.11414309640402277
Ni 2.5737953044601283 9.39108681211428 8.478832622432495 -0.5882475773666064 1.0708690946612656 -0.7100656738173836
Ni 1.7368696255596496 2.4973507194509454 0.05728004918275773 0.9940231920458042 0.6759543339559714 0.5572709264794338
Ni 1.551073907591262 8.560762870119126 10.657146745690438 1.027083722045199 -0.5948002908834594 0.4268409199899294
Ni 7.458885626389665 2.3617040605903674 5.641130331767646 -0.759863314065801 -2.956557033688605 -1.460784088159123
Ni 1.7707325432723287 1.1978856257281174 2.0738228343159615 -0.6757743567346813 1.3554336503460656 0.45870357302648096
Ni 3.951311312987667 7.9719455060528945 9.771448065923176 -0.23139028565466602 -0.4871839398543609 0.3042216677940954
Ni 0.6982028520557457 1.473347972802988 9.472664224354492 1.7400287742929064 1.0338554935513937 -1.2797614563237314
Ni 3.471464391004244 8.85086788822029 1.4078022890307518 0.634622822197036 -0.2555627691358115 -0.39383978247356044
Ni 4.541632870272832 8.83873220589222 12.775869747591594 -0.6686673133762548 -0.19914350980581833 -0.6671958710370509
Ni 8.984063269242604 6.744765253128862 11.029437352919718 -0.09862546038439789 1.7452339726429298 -0.6300053780296827
Ni 0.0750443853955073 0.22005046872945566 13.37635946533389 0.4011795106680833 0.6324967769929688 -0.7963732360663769
Ni 8.082169442484815 5.221648912094462 7.116460682670896 0.568568353770124 0.3588157009898917 1.0698974747766155
Ni 5.1247955820530695 5.131063053798631 3.7716577173299286 -0.4533909025643159 0.15927238464249346 -0.8443351086576362
Ni 7.086653515563344 6.431902348733819 9.421906988358781 1.5569099220501186 3.4089457202406517 -0.04996579039516556
Ni 6.425876290714753 0.9262431866178749 3.623025785526882 -0.8206848162285478 1.8180702398783657 0.20698614577868868
Ni 7.82251969449541 0.21541161112340837 1.805805315160484 1.134871308544839 -0.1275213174831417 -1.0327149521890473
Ni 2.7768335335863013 -0.30803370135079744 5.803242434652477 0.022471441629638718 1.4103644980559902 0.2973480806027137
Ni 0.4127469052182882 8.89734931571403 6.498236341174496 1.9066581135211038 0.10495628769843213 0.30866067740205555
Ni 1.181766616912869 8.315180114269756 1.6101673452657352 -0.37269862961957106 -1.8894034402057136 0.03152455297084248
Ni 5.507371342545397 1.544760010129068 9.131860466660576 -0.765181898065237 1.3715261850325542 -0.8193545274528985
Ni 7.588552652947812 -0.039326296046142344 6.136775925121544 -2.590792669295022 1.5735665567701933 -1.1234427549929233
P 8.066347558256021 7.107582228621852 1.6122332896559386 -0.2916230051934784 0.09155569802181006 0.3452266494515474
P 9.090898128360259 2.2313313631393865 0.7717411872036533 -1.1557065001226356 -0.170056619742191 0.8034275718099969
P 7.224667885972245 1.9681625458291412 10.509670814231573 -0.47517611676020743 1.2074193551158947 0.5947149302585047
P 5.5511693636177055 0.43656051230841925 1.5556728390810044 0.024574861125886707 -0.16365765819438266 0.2621368228089033
P 6.73314953882709 3.1599199769616 3.7492071692801656 -0.8010264185676721 1.2140885396059542 -0.5577054429136911
P 1.7732581022572065 5.927542648367759 0.6989883751811893 0.022709011561741533 -0.6707846168295738 0.35309731044887577
P 3.0470590598248806 2.9561760769425933 3.3308603941215105 -1.1482582713747063 -1.2537969139391696 -2.119468065070421
P 7.071091615347701 3.165973890410645 7.445740648981976 1.2334882842888049 0.6138758194576718 2.4147872881685637
Ni 7.2098766526527225 8.10089757657488 3.658400324573157 -0.4577617779385019 0.7011974247934762 -0.6191625217779079
Ni 8.338550820023201 7.208920282890067 5.614943442043196 -0.7616502307628947 -2.8274308336121887 2.04079179411444
Ni 5.064451435572483 8.924183379928355 5.328879318317837 0.5275363755294785 0.5064792977488632 -0.5811765294524378
Ni 1.6041663571336529 6.9677108295476 5.494538345953488 -1.2853021836363026 -0.47057049966739606 0.17711326947865624
Ni 5.022278314582357 7.611737655834721 2.9618576561442356 -0.6504101669382799 0.01593338340080482 -0.601657680124925
Ni 9.26881075964423 6.906893140757348 13.288705855300648 -0.9356833186543305 0.5694900942534451 1.6628931083511684
Ni 3.3858182289582466 5.061238775981424 8.542894540301116 0.1762851171504061 1.2429710269682592 -1.1476728311848816
Ni 2.7945124464804447 5.331417876503371 2.8316678760167915 0.6931534714430773 0.5007223406604279 -1.831877578075103
Ni 4.521697667550288 6.473072674244654 12.672478748133832 0.9487787183857079 -0.722820916600523 -0.23926968840274274
Ni 7.410315041647404 5.780874524378321 3.356694448399544 0.43781567383387826 -0.7513863869430414 -0.3166138708108612
Ni 1.4524656854611135 5.045324040319365 6.891550369924216 -0.33206311548639583 0.6369928650911094 1.0081254357751412
Ni 2.9928802485132597 5.302615361903774 10.8768109524575 0.4294261642186024 -1.0114892100410515 -1.688667131991479
Ni 2.7663691770570473 2.977949738043836 6.972490821332213 -0.7307599689419414 -0.8722773435938591 0.10163262264183787
Ni 6.930635252243863 3.350107567723543 12.569305021029919 0.7526408281754329 1.0937472848110195 0.41023493600213223
Ni 5.077246363076752 3.388705908532868 6.846024383678799 1.4703192813430679 -0.34308183519440266 4.981273262397421
Ni 6.134796332564281 4.693045702502243 8.869809580606873 -1.508363894820615 -3.898353664329525 0.04265485855604912
Ni 4.347796218183475 1.660972864006746 12.215320073869337 -0.5032574483774559 1.139724265761766 -0.9668916259363349
Ni 5.137720501563914 8.848602313248561 7.6832620433950565 1.3228302624887476 0.5271491673933889 0.661143494195384
Ni 0.6140729539150077 4.933809468965026 12.074665937212641 1.6652860340633773 -0.7524683071533106 -0.4181639610412217
Ni 7.006764142379935 2.770686768703989 1.5591789092011876 1.999734361952498 -0.2527839208390937 -0.050697526354867524
Ni 0.401538808708561 5.6268897074474005 2.3862911201196173 -0.1630310803539773 0.9401691223398259 0.13786049462562064
Ni 3.7797682900258502 6.8041251744168125 4.960447616655156 1.7774786916092484 -1.332574229249389 0.8844273486928317
Ni 0.08194138985862165 7.793828601615734 3.7933877382575356 2.953118697431017 0.915369803907959 -1.9841033402834605
Ni 1.4238860143013583 1.5730054161290599 4.745295061030564 -0.41121195520342085 0.1671345609993896 -0.028610464647841047
P 0.17335733996786512 5.529711397389572 4.599965854708844 0.37180851370513385 -0.9173631801889041 0.10052267740711077
P 6.186700283760846 7.104026018727704 5.146368684058455 -1.248186509730928 -2.144490555256687 0.31530080842639246
P 7.542145506600686 8.07236433113176 7.8963486546294455 -1.9647617025320552 -1.161408435603419 -0.6449676557664699
P 8.77332765629855 0.6815694463001951 3.851863713900779 0.01255186852308161 0.25060028292421355 0.5950648573987558
P 1.7127189677667574 6.7578944457928944 8.912807222324414 0.5265688694098867 0.4202195580186699 0.02352122305039175
P 4.258268866226893 1.36617884852557 6.55881911583858 -0.15129065198859748 -1.2923858299559614 0.29981428275501915
P 2.429801301748796 8.995688268687703 12.89775582404192 -1.4455035078509688 0.13456356904190372 0.5993372595218646
P 4.3080186641716525 6.41398202211318 1.1718045866375928 0.5047340329229824 -0.25279780479616465 1.586524659592758
