# total energy = -340891.1956044093 ev
CRYSTAL
PRIMVEC
9.10643253462974 0.00000000000000 0.00000000000000
0.00000000000000 9.10643253462974 0.00000000000000
0.00000000000000 0.00000000000000 13.32818450674185
PRIMCOORD
 96 1
Ni 6.3880984754288495 1.7369790994354177 11.437260915531036 -0.011508257749915663 1.0070717976996464 -0.37003059586910464
Ni 4.672410214584198 0.29282825658357986 6.124087523687219 -0.6884411535690724 -0.09097822825178524 -0.9928222297591675
Ni 2.7774891542769855 1.5914674185791904 4.76518563566156 0.7139038166165511 -0.14099441226891204 -0.21657867456313024
Ni 3.3584704251291324 4.197719220905459 5.017794423588176 -0.7699793194538804 0.8359137173631603 -1.4382720230995358
Ni 5.113416515385587 4.555574688870111 2.584908146428476 0.27622826790496297 -0.8532972029469305 0.12165997360635823
Ni 7.392128162693594 6.152187241668199 2.488758792204032 -0.15447316348163717 -0.9863335367110303 1.2907979166435513
Ni 5.007836539927354 4.770632192787795 11.699039880729208 0.0871935643983724 -0.20522185478941432 -0.2434996673236903
Ni 5.766966944804807 8.187219868509859 12.772864907298947 -1.258818021302845 -1.2608808173691446 -0.2975717665777456
Ni 1.8517474650297 6.605769525401088 0.3967481294433965 0.567954374335209 -0.16816968713212327 0.21503061334972
Ni 2.769001959423865 1.658754846443679 0.30117339109366476 -0.10325935961198345 -1.0043196888758057 0.6648456256373195
Ni 0.5976779143748888 0.054865343637942605 4.747579259557458 0.8112761213201382 1.0718098613079798 0.058618323863840985
Ni 8.9387190831653 2.5560116156259864 1.3414284658323488 -0.6989952749358349 -0.3068753033668586 0.010937472848110195
Ni 6.873553272022167 0.4091128431467938 4.628651986356502 0.6852403872435876 0.5265506145774416 0.024258615437048547
Ni 0.7441667154110946 7.655568141133409 2.765185453669635 0.10817068087067176 -1.1546929712564564 -1.3388263808066878
Ni 7.6470627334157975 4.0042530678426544 3.8242425790662984 0.08132862097716315 -0.26465136170064096 0.1380088472780268
Ni 7.767413341976778 3.754791462900199 12.62425612883591 -0.4361092326657328 -0.2523836000768815 -0.5201945904524267
Ni 8.061869828645913 8.889007069535277 6.850113315421383 -0.5938024457465644 0.2197107924342087 0.06142751117786195
Ni 6.679121837141303 1.0647422710477394 0.3516485237458894 0.9336300356697276 -0.06846642030251435 1.288314488100065
Ni 1.83466379813651 6.56367959556083 9.27004569271138 -0.4925151222592873 -0.47530081526352985 -1.437766287107711
Ni 0.14133091781216375 5.102452370961598 1.4293674607439464 0.33923520775480287 -0.9526613412695659 -0.44612959301621236
Ni 6.391886751243117 1.7960525254141615 6.54857657768111 0.4756384011086067 1.301818693234087 1.8653592547723166
Ni 3.2727151526700866 4.503212703456549 0.5785352831509152 0.7991397430679205 0.2871485143618926 -0.7839920887932046
Ni 6.047663612350482 5.649493968833511 4.729079542450041 0.29250489357779946 0.03221489416964775 0.948257041554283
Ni 5.093555386657417 2.8893252486881082 9.442778320836862 -0.07357494517367329 0.21557414455801582 0.11947607858116198
P 0.26134640966649714 5.713384697470302 12.541007857174142 -0.6198927150757131 -0.9437992628932456 -0.3428288386433322
P 4.076376011229683 6.390447934948275 12.823432014916852 -0.26674938188025027 0.12406806882721859 -0.286731481429132
P 2.3159114230322513 8.450095248150431 1.5253711120524571 1.073473365053332 0.671376741887618 -0.634386537816514
P 6.534620970264364 7.53571838634595 5.83141407645182 -0.8983195332938916 1.2118061713296808 -0.4187776833658208
P 4.644344190402529 1.1514172931636149 12.702905652213529 0.5873302077586595 -0.7324833793909514 0.05804368230729359
P 4.057379993564867 6.263067160693509 8.090301020760641 -0.724196713902127 0.5061275708363994 0.3767951682864478
P 4.92227250254547 1.0374776129037038 3.939530921941818 -1.1211652718126561 -0.33220915414595686 -0.3649940618864617
P 0.149445659586429 5.612567386076643 3.649643132330419 0.6846742303274725 0.40673515037898983 0.5073123351731198
Ni 1.5632739043460793 1.1713785926464892 2.559917364416226 -0.18360607629185152 0.3463808176606486 0.01905161731481235
Ni 1.8669643133124934 6.538828141961941 4.995896185966612 -0.6159494141572489 -0.7213348189732997 -0.7557006980476791
Ni 5.77798572782227 5.497990255559523 9.324184343056105 0.8467648011450513 0.9598393470752438 -0.14761705979175221
Ni 8.896729324079745 2.372052577827836 10.547058899409578 -1.556572593315358 -0.04645494902842967 -0.7411258855572977
Ni 2.48167580920322 5.1087540220757175 6.954912869636148 -1.411401423960937 0.27392275970023794 1.2797218613350476
Ni 0.5862083629612573 9.339556911330302 9.008226659211324 0.7602165836401618 -0.9285271672255234 1.449769225105858
Ni 1.5045556292249231 1.0922436964301667 11.618937881408378 0.3327195181234721 0.1982233119843941 -1.2136254839266067
Ni 4.034723190137225 6.75518786569078 1.7620263413275923 -0.19019144281885308 0.5861858097415711 -0.6479496212129293
Ni 5.549896919360793 7.919809485610857 7.923805388080331 0.746480979221624 -0.027398960838243138 0.4364097946252872
Ni 5.275010155587962 3.097908079279002 4.750138167018539 1.2301774747480168 -0.4743932158475959 0.026143491164587238
Ni 0.7491606828547116 7.51102174209524 7.267379147357874 0.441724264859665 -0.8206711893817931 -0.6731934833813825
Ni 4.98402321960449 4.628753978397656 7.005613841808069 0.27079861224895946 0.34792913598437497 -0.0021754103847639954
Ni 8.313708212404531 7.29171153431875 9.284932888146875 0.31685632583897044 -0.5310927254221692 0.27879140064644886
Ni 4.816929294325629 0.03446420347759425 10.091181794750737 -0.7261998603750849 0.7715752031860905 0.638559695357597
Ni 8.241193692430933 7.570641554008734 4.330419972878243 -1.764174775411491 -1.604442163303127 1.1976519913164858
Ni 7.320041645035549 6.151358556333827 7.279427867862341 -0.33909199730871925 -0.8049656057210781 -0.17338979788048203
Ni 2.2197839242451973 5.301755747093985 2.764425066577108 -0.060111620579915835 -0.4854828980028542 -0.08136950151742761
Ni 2.3318294665979744 5.375818360549376 11.285986684349641 -0.4975202887833626 -0.7164587218279209 2.7687343482122446
Ni 1.0774184247339444 3.356512542196277 3.9948433914030312 -0.38857622008177595 0.33994020424162746 -0.8689778469069808
Ni 3.993789777192188 2.350579610592152 2.4437229315322457 -1.3491056512455089 0.3741171072336525 0.19216836403956583
Ni 1.418381460882569 3.0442165547575475 8.317267006126205 -0.9696776733219041 1.130272633430563 0.8844898264996509
Ni 3.766001480994824 2.672091307463669 6.869346100324591 -0.3699364934934016 -0.4309325735607997 0.6436808186342463
Ni 4.037691887049367 7.0750148725968165 5.998016254389405 0.8900896891849316 -1.052904796873361 -0.7132520419651651
Ni 0.9266068003106398 7.429236874095379 11.398262619438238 -0.7649566694283084 0.24368298697909002 0.020557769546693628
P 0.10236085165932943 5.453150183181022 8.154582415340778 1.2348219154985638 0.6712152766090892 0.3038465438428638
P 8.467379256553029 1.5957110160057502 8.078012801088107 -0.4345094922787807 0.5340883177153835 -0.5665484951266178
P 1.7407764816819318 3.295617829768366 10.553763054828963 1.3222371089894391 -0.1479199357441517 -0.30281990235056233
P 4.07395370025229 5.974894112274001 3.782898466026974 -0.8361821405331986 0.4363262337725453 1.4251372854897908
P 6.703991503604684 3.86671862163378 10.469701578767642 1.5478506400613277 -0.08182612943887198 0.9851806540535099
P 6.383772920112077 7.689926709996952 10.210495180678915 -0.06654092114502734 -1.5235722271299375 0.9522113982163406
P 2.313625708538546 8.43452324901005 5.876556482380883 -0.002396782366950711 0.830148532744609 0.1342493802355946
P 7.2042988911909625 4.069874018606155 1.424103032262628 -0.6943312938012622 -0.45879433296807437 0.8524250847546222
Ni 5.3452207482033645 3.1622996616893144 0.4519722665118251 -0.06632443425884706 -0.4421225287393482 -0.4992609256235531
Ni 1.717700782370981 1.1477929331297716 6.994137915891865 -0.848283808892739 -0.5694988360041934 -0.6297256420057349
Ni 7.1383956410278415 0.46965786857646485 9.578232857920787 0.7592976713703181 0.9285474789404976 -1.3822011482478969
Ni 2.9790144998773553 1.4473125961275923 9.437847187775741 -0.9551365422829358 0.5674290979593583 -0.12303165714290423
Ni 6.357801375346949 2.1747890425185172 2.6351956865764365 1.4848285307028362 0.1298995879073311 -0.2042530631182418
Ni 3.976797174621456 6.870520830084303 10.507913989757624 0.8221305475361388 0.6227648944171855 0.09042981194748297
Ni 8.108813486873203 7.154040491626189 0.3548348643887077 0.12446247605215983 0.11813576250318364 -0.04729929930659596
Ni 7.7749352550118385 3.658591112655178 8.264380490215283 -0.20442712680226086 0.33910176750073207 0.4873184085496962
Ni 3.0534231577580884 8.404608619082476 12.439686960077289 1.2372186978655144 0.24995622158231143 0.11461052295874455
Ni 0.004000455685596141 4.873562196462489 10.454907268941056 0.15097286363786258 -0.19103913553112906 -0.8853573167062688
Ni 8.659351954727516 2.0063382588350267 5.784032398833506 0.6469335212435892 1.1774107245689465 0.2606000744494028
Ni 3.6090430148055797 2.8332114131892614 11.687311706639797 -0.17060452182586103 0.09309681725668482 -0.6722133788563003
Ni 1.11349810929195 3.585876251172171 12.741957676256575 0.26976091501306443 -0.19640117117399078 -0.060715572712501886
Ni 3.0817896942038705 8.506354786565211 7.940305332666563 0.6211525556247431 -0.6428614080567444 1.0090898565709396
Ni 5.44022815582418 7.777740036143556 3.6440854767307846 -0.0651944344194619 0.2736736198039093 0.5044183014547765
Ni 2.8722324753626722 8.403160696355387 3.6307709621441466 1.5093386000290587 0.056788983964586065 0.6177340168614974
Ni 3.3968085048841057 4.708052790394404 9.438766937432572 0.3621409087083828 -1.999332755638705 -1.0102136857627377
Ni 7.265102539296415 5.985894682426971 11.462611401616996 -0.6515872179655166 0.6509120462753629 0.2905891646123253
Ni 0.7432679105484306 -0.23125420431012916 0.0835269284884896 -0.5012141926951819 0.3516412947286396 0.9901104872549593
Ni 4.617197915877688 0.04109550743901266 1.6599450571382097 -0.09571034362013194 0.5983432710397115 -0.282424626523662
Ni 5.972062011845545 5.615672679472473 0.632347923221239 -0.3721175603051204 1.2555367794484118 -1.7792884911244775
Ni 7.945617114595559 8.520906865294059 11.76029611851728 -0.12781699434668953 1.2009190921035318 -0.6853311471851811
Ni 9.046848859652368 5.0357113290318605 5.8166989925857715 -0.07214721158821123 -0.7556988982754663 0.44961472335133534
Ni 8.255973431965925 9.400205750087576 2.2662312819150885 -0.448506320778505 -0.6608956398506359 -0.35752295032039716
P 8.488579030821338 1.938650147951721 3.597690025724695 -0.2501020031315564 -0.927240587203616 0.13918512697431515
P 1.9623541910876345 3.1895825326978415 1.5899056654490293 -0.4421338415932579 0.47349770061652 1.279068801132081
P 4.816246311907191 1.23955845087107 8.158514572784531 0.1011374281729742 -1.5287064630327092 -0.3141728654695364
P 8.590425369058776 1.4744042320589572 12.651232113077754 -0.11212195220893593 0.058086362619770925 -0.5505423495063487
P 6.605751312536596 7.912396849762747 1.72529372557756 -1.3021189980833254 1.644569113231 -0.8129833338192322
P 1.6368174511634581 3.148421458946659 6.064803739123597 0.6067199251391809 0.2145942971432498 0.24127797708202317
P 6.878397893976952 4.031117042967873 6.261327832134554 0.4738070043268227 -0.22657409521294528 -1.6785544690375092
P 2.3584475680525556 8.444777091718862 10.178960516454808 1.1908208273272651 1.7245851860443264 0.2842693930418846
