# total energy = -381171.5000415023 ev
CRYSTAL
PRIMVEC
9.21516522698953 0.00000000000000 0.00000000000000
0.00000000000000 9.21516522698953 0.00000000000000
0.00000000000000 0.00000000000000 13.48732579287347
PRIMCOORD
 96 1
Ni 7.445521519702867 2.3837051434774073 9.573492013549803 0.7356908305846556 -0.12218704975442182 -0.5664708478111471
Ni 0.38169120999690676 4.129149533384531 4.009471264886761 1.4139290754787972 0.22807150569407816 0.34816850568869073
Ni 2.3931046117087846 4.089975867255524 5.70388391442945 0.015599397100153782 2.5888080347648255 -1.044789366855078
Ni 0.8448020882403972 1.891311235627202 2.983639104576 0.6532010994198557 -0.329072151178872 0.45515879309801616
Ni 6.535708285895093 8.744058055867708 8.969583551815726 -1.156785077898795 0.9629470394662899 -1.2778560117709024
Ni 1.7938700816285855 1.905898841715703 5.2566037680238855 -0.6520816411034318 -0.6415303479501469 -0.7738786545082865
Ni 5.140587606070378 6.804330343683978 1.4873147189106384 0.6055595862824925 -0.11655659094152185 -0.18050738276186978
Ni 5.312717671848717 8.947547327912105 4.215261563614858 1.0302163541369096 -0.46618162657108103 0.009073423056177922
Ni 3.7380026426501574 2.126611257019359 2.047605040468656 0.1280460796383601 -0.1912399386880255 -3.619088152260135
Ni 0.891599460318246 2.879315143889133 9.289219841155674 -0.557269126707221 0.29528477031578176 0.8115525149099766
Ni 0.4806399649785167 5.716074656118949 1.8742659450511436 0.1852364128064229 0.17416087171855169 -0.2806441375844715
Ni 8.696728968773241 4.518379669812899 12.514416985629644 -0.9484033373241603 1.043803348792725 0.12058062449925039
Ni 4.977138225658664 1.350510066385401 10.247480883080746 0.09166239880300342 0.0515588459138983 -1.0007245153253796
Ni 5.6319770609429165 5.834692259132964 3.7336558493513916 -0.3351409830807712 2.2427390919176404 1.3282588897034866
Ni 6.9973972641894635 7.192998355051449 5.817905914691516 -0.0024258358326732414 -1.0900366687286516 -0.044562359991407126
Ni 3.7676109675789977 8.149882651335574 -0.015319290184159251 -1.5958695911427676 0.10520671314634139 0.10201623123350172
Ni 3.0773121776336265 4.269819026082553 9.359947153530818 -1.6960006895384145 -0.3583611299509764 -1.2956282481526589
Ni 6.046687128410264 4.828258021005587 13.464814727317624 -0.5141838654819726 0.19712005161788632 -0.5187486020345196
Ni 2.0728131241421206 -0.027255693321515773 11.812226946855088 0.6161432753356099 0.48676947802476167 0.7634325194742981
Ni 8.742777147942059 1.731335972395125 0.9991238477862482 0.7838846166810629 -1.1472912794757466 -0.8352534580713421
Ni 7.495725738256343 0.22509422622916622 5.6532935804652915 0.6809965243655691 -1.3652907456458034 1.309994801286976
Ni 4.32445573896867 8.328583129710944 10.924193755365804 -0.47913201608416195 0.6334539986999155 0.015909472141404857
Ni 5.643256422820571 6.60831457040002 7.899243066396405 -0.5747816816696876 0.018633298830471132 0.017355203448995916
Ni 1.373465042232815 7.716465799054798 0.007162026185712566 -0.039337107036725806 -0.21399163056224438 1.4882663527397917
P 8.484909187629663 3.9758091889040155 8.051704284142339 -0.9304416106394169 -1.6558194893338387 -0.3035123004318966
Ni 9.08735059510645 9.455496434168747 12.552060012863326 -0.8227684382304539 -0.6099541158057624 1.3258803621689812
P 4.071858852997791 1.3513486463942788 8.12310614659056 0.5321972713402576 0.557513124397227 0.19490607468570303
Ni 2.3477291395800552 2.6878240165871423 7.302173178558902 -1.8624971027331731 -2.4150166305705505 3.282666245584411
P 3.356375017291287 5.398077744620533 7.479409367226463 0.4118053658130456 0.6274497014873646 -0.8262931635542607
P 1.62279975981751 4.219154049282441 11.209639939772362 -1.578604633414733 0.393381097669587 -0.3766139055135772
P 6.55765880876484 4.257940678484273 11.434095555071691 -0.731611004088327 -0.7125331615212696 0.1603396495647432
Ni 6.496009355364921 2.479063670201228 0.9654682224189561 -0.45269541915918804 0.07652348627903595 -1.062814599787905
Ni 9.261332909036266 0.2307182413876073 10.174918831367497 0.02009265698481701 0.3869870212177851 0.9671073414915666
Ni 1.4827845438297116 0.26997300096802207 6.946160947163522 0.4202892349143407 0.4482067872602152 0.20388770935902306
Ni 0.9583218620136292 8.870812649517317 4.4619312555010096 -0.7377749668071939 1.3998800535848988 0.4602467491438848
Ni 1.9771965728001832 0.5878169407285553 1.3890727670793683 0.0866063244363347 0.6482560967097546 -2.2623267842415813
Ni 6.701323230065997 4.621211695297159 6.7556530779598525 -0.592899988536953 -0.914926031502321 0.11424028410351939
Ni 1.4793657176396713 2.9471387577939763 -0.22114644957198756 -0.12023738222721872 -0.746224640236444 0.3908930411404106
Ni 0.7030756161245922 6.199916890911588 10.07956399070965 1.9961780120598072 -1.6871087863654237 -3.062309077815455
Ni 7.130445815488124 1.317077448009481 11.559029232130593 -1.5366712264057407 -1.7186343677775304 0.6340618074872435
Ni 4.429213733923869 1.6036598622522436 5.620937293353514 -0.9416184531918427 0.40646364188515804 -0.6146535781639607
Ni 1.0899052020879856 5.090641412135018 7.887117752377928 1.9197008056376745 -2.3934713002996073 0.6026619530197234
Ni 9.042122565616644 8.27097913371649 1.8227043327030767 -1.7728103395993016 1.4155714961782264 -1.692810978956523
Ni 5.99483339533383 6.640503141510022 10.311492183252922 -0.12277403260614338 -1.5971512860686687 -0.6808425152862081
Ni 0.02187035093483226 7.035713919979727 11.788367041811279 -2.0338377313941103 1.6639071514379797 2.222677031060443
Ni 5.438716621973843 3.7888242772541267 9.087759748429463 1.5224625390055264 0.24588025174072495 1.2596209768201145
Ni 5.827025241908938 7.331990687731715 12.52821485208341 0.36638554291734965 0.04490534515312267 0.7171169242372101
Ni 3.7084956845355777 6.585064709274758 9.457245472472977 -0.823881983009607 -0.48822060864899147 -0.4481535654247765
Ni 3.1035846128568205 2.7305915970399113 11.169015806682944 -0.5190257669553061 -1.000993195605734 0.88808679982229
Ni 4.439460997329057 4.772239033379561 11.025713541363643 0.9568499254296166 1.2076741514391782 2.428132342016902
Ni 4.774754773406195 4.260825025108215 2.375684263919965 1.06258448605497 -0.45610830149547893 -1.1464351021230386
Ni 7.032838788520718 5.369851694431602 2.081971155052261 1.709036182566134 -1.5298932842519588 -0.42099268873926854
Ni 5.0211314230474855 3.946762989036072 4.897382816198931 0.06095442819618534 -0.4620696612852364 0.32127168129784667
Ni 6.899569073263673 7.627603963608546 2.764132954362038 -0.6562378293636505 1.3660229958261376 -0.6218223279982582
Ni 8.103567232383705 6.052658555286669 7.947123220353848 -1.1537100385178969 2.487549250522638 2.4847045819849916
Ni 3.531822542445406 4.056266793931623 0.42414086725949673 1.2529132257826356 -0.5861379872227712 -2.213219742302285
P 3.3004205358197907 1.5005329514901369 13.263665185649645 -0.41060260375419605 0.328018513103377 -0.1153060063638724
Ni 7.934349158724109 2.9135586967791327 2.8832260598865807 -0.7822128854055947 1.4981316755696459 0.9047902286198998
P 1.9436072966204068 8.005093979912624 9.982940221840565 0.8365557218225333 0.323569733303404 -0.7829060548178776
Ni 2.0666850394618597 6.708253034095404 5.345715334439813 -0.49987953304415844 -0.5847789020917155 -0.23925014801871702
P 9.20564566734782 7.794361588231108 5.944970137882864 -0.8554237623716299 0.08213517603885855 0.36589009133816985
P 7.229048080268263 9.274602746539388 0.5280409303594589 -0.16649924140823585 -0.1920765756567079 0.13617050851770743
P 3.355693095086265 2.75105847835549 3.9647205809404693 -0.1820176487588091 1.64016661328793 1.292262931224852
Ni 3.137699153437762 0.6150560467531921 3.5590892939648406 -0.3853865094998847 -0.7794574341476447 -0.33710402034441295
Ni 5.301124994363351 8.962641768071906 6.6469583645453945 1.3591270400372528 -0.5407387331523655 0.6197939847143197
Ni -0.18453183474479798 5.64637114856783 6.0617972343504505 1.5752783972549775 -0.18471859262973994 -2.081153228650622
Ni 3.3109442541729606 5.229716681299678 3.8837294178632575 -0.6516697503769938 1.8577176790666585 0.11756472049106205
Ni 2.397776700329676 1.0083602075983167 9.729595064477149 0.6307571685940427 -0.5041084835238415 -1.691495088358577
Ni 1.599715771661038 5.368128458589183 13.124260013580393 -0.009864808609221721 0.35089027549522794 -0.7489870334729295
Ni 8.755245266096034 6.9186444646744105 3.658369794884029 1.06222453161239 -0.8283770426664832 2.1865633160570215
Ni 1.292325515000186 7.249588682903303 7.577948047368567 1.3681418419413536 0.1747447692464797 0.9765890557297567
Ni 3.5700746920811404 8.5225992122045 8.091248399901643 -0.8513817310917725 -0.5349005292040336 0.5839985722822653
Ni 4.533510970632431 6.856985796109559 5.807426429130022 -0.43272154714042244 -1.3256168240949493 -0.34473402608584497
Ni 8.835177606722477 8.720052551217963 8.132088167850485 -1.6464462756490548 0.059439791323871824 -1.2883178305341747
Ni 5.251538191860368 0.5339146764875767 12.962762405101431 1.394582038410753 -0.6216865737513423 -0.7474579984229126
Ni 2.2824212657018452 3.9058476567347804 2.273747030950673 -2.1534431364642845 0.22279971577217755 0.6246641683224273
Ni 7.576459798231933 4.9417796378118055 4.5757505221345545 -1.769618057914249 -0.7869362590231932 -0.9569656250718745
Ni 3.234928358642926 8.74890523262232 5.503557286989965 -0.5547808130677284 -0.20219695192016146 1.0097274901549385
Ni 1.8042187118480337 7.990589310308518 2.620640856645123 2.230486756912849 -2.6503319623112356 0.4947123870209222
Ni 6.298611307341055 1.7867098984758596 7.637441152174229 -0.6040583191466178 -0.5346724723536276 1.1316448311877414
Ni 7.742010236248307 0.6262533936629443 3.3372093172642088 -0.2541394064257236 -0.5138197972743345 -0.9410787786382888
Ni 2.947230909443304 6.168004774749567 1.3957897007988305 -1.2073262811814562 0.09671847316967214 1.88671663740217
Ni 7.846215321307542 6.669226810605321 0.2225904659169453 0.0825645502667933 0.6091460180821703 0.47174266559862627
Ni 5.097829240782542 2.650963356856249 12.354255576065926 0.8627771174129076 1.887401065063704 -0.20517634626345954
Ni 5.741149119900889 2.1359554342611404 3.0476227592533784 -0.15923407520539026 -0.5522963560829779 2.170160963439598
Ni 5.0811037164296495 9.347955459403865 1.788473681043983 0.796169604696003 -0.6025619371067494 0.3917412480733189
Ni 9.052038083084254 2.0733107430484874 7.087400858570879 -0.5950139495561624 0.116154984627729 0.09342848956449071
Ni 8.05702143430852 4.662007230454325 10.0597642873352 0.47133771685072373 0.587343320384782 0.020577309930719403
P 3.8244040290593713 6.084708898922681 12.974389178697049 1.1730385636431797 -0.6743473944801677 -1.11883790923106
Ni 4.3926571746357554 3.3780490852130516 7.182566788347606 1.545994046468563 1.37923563786167 -0.667797766287108
P 3.9286183292835397 7.442065832853095 3.3505749924826307 -0.19274146293421643 -0.18879893334670064 0.01293470578379708
Ni -0.2529323179744301 2.4382404895492638 11.668155215263903 1.666475169275472 0.35402470735915154 -1.1588923540497849
P 8.785120830807923 1.8005695065346754 4.866308358529295 0.5398768993727023 0.9095801938093754 -0.4220748660598537
P 7.514312725925645 8.003177225606619 10.55202457529388 2.1854299737835263 0.31780814822927844 2.099381578733191
P 8.794354426070512 3.8875831998381227 1.135100978500527 0.10361340051729252 0.5456132876358475 -0.2069552925407533
Ni 6.644069410338986 2.286862975199418 5.5390282998490035 1.16331773681099 2.0730555392441525 -1.7938825868885686
