# total energy = -340859.95394384 ev
CRYSTAL
PRIMVEC
9.41167909130825 0.00000000000000 0.00000000000000
0.00000000000000 9.41167909130825 0.00000000000000
0.00000000000000 0.00000000000000 13.77494369723444
PRIMCOORD
 96 1
Ni 4.353635705110724 7.876775432776185 5.65461399254462 1.0787230434880453 -3.3268581096102765 1.7552342783887513
Ni 6.639911385860333 2.568522525953153 6.226219147696643 -0.1348376486388968 -0.1128014947744638 -0.19233522863473326
Ni 6.929452282383787 4.173166757937495 4.283718223245771 -0.21637684296496928 -1.6629471015175552 -0.2814792318912572
Ni 4.886007334672849 4.928952826508647 5.53821599216547 1.5705773922348822 0.5686424015411691 0.3845717269080732
Ni 3.5711392911900224 2.2236691912269837 6.312574127148978 0.45706218076831606 0.25631404547953923 0.8316153470981226
Ni 3.533332576155088 4.354012172275623 7.420093467884822 -0.14122761132564066 -0.0556075620619752 -0.25755923074055
Ni 5.08127144142659 0.8480412296653599 0.9104312505681678 0.46966470002367505 -0.8864250958491507 -0.995358623027776
Ni 6.019728790085628 6.328685980638724 3.7695826631513314 0.7281045335969654 1.4285843634981268 0.4746570110319438
Ni 0.13557429659116835 2.928368665521406 4.625502409410105 -1.115080499071157 -1.239039553124337 -0.17033944108993243
Ni 6.082683511735783 5.358586566769965 8.067103113830195 0.9727563122472279 -0.18035440212377324 0.16128401575588353
Ni 5.499140582784827 3.2124601998329543 1.5262778857711532 0.10173598098892156 0.7521060387178853 -0.1097691357060432
Ni 7.50530586949169 0.2092197445565297 7.355338292018539 0.37585337319846884 1.4045175523569102 -0.9361995961691167
Ni 8.497805079671911 1.2969199713962893 11.213383209577726 -0.09723115114003254 0.19360046850040205 0.761576954322798
Ni 2.335159942111681 6.3359894436377555 2.0098198417101143 -1.264366719035216 -1.1559885501394287 -1.5126995460814916
Ni 7.919193870581126 6.73932695243091 13.745038306072365 0.39175898868513176 0.18307514348904602 1.4750670804406982
Ni 8.084848834815599 3.0866825200403576 2.456224252999748 0.5954147845390069 -0.2536377841989567 -0.6067669763270324
Ni 2.867465689919948 4.113986119615447 0.2053929558253362 0.9085859482169062 -0.44462601188749235 0.8316423436813161
Ni 0.5133167440107852 4.66648933082052 3.185620914479426 0.1105659205757257 1.1559042179557382 -1.3483348345177553
Ni 1.500682824397615 1.3898697144097347 13.571336356188187 1.4221288376807701 -1.2131778548662269 -0.1500081857317481
Ni 7.020180869124331 7.999531963570471 5.6198331323475585 -0.11199031172707812 -0.31053501160663294 -0.7565851575351615
Ni 5.8003896081366255 8.625305096743919 10.461973571798518 1.8187035025869902 0.22827050907876173 -0.2402865597030313
Ni 2.0847433957003063 6.106090357713349 7.772580615547221 -0.8129190562402001 0.38901613583267197 0.9220554434582506
Ni 2.9918033828068076 4.057798395254343 4.7593807214234065 1.0966708862157177 -0.8425271089146199 0.6209427536067822
Ni 5.991992571711729 7.889998841943245 1.6733391367312878 -0.5739427307081599 -0.16615034270924933 -0.39821065784774645
P 4.856134665138151 3.1282256716869097 3.662261286117885 -0.4333668940339052 0.8343882818575695 0.36139374612971303
P 4.378491949673149 6.4865857212762865 7.416884085304061 -0.11028335633830039 -1.2170391375938459 -0.6328338486174134
P 7.832521717542363 3.4079690102438795 11.059957781194981 -0.09746589285865793 -0.9452128554113206 1.9051403913249965
P 9.390164023989126 6.604523472359872 1.9599266483461129 1.188320686613231 0.5460642591303371 -0.8831492533113564
P 3.092969521694163 2.4952055455891657 8.541966560450332 -0.0699949411318988 0.9286708918922393 0.023660833952049574
P 3.0425229215977607 0.1628992245874154 6.0179424533881845 -0.5101307784585214 0.5361752821513992 0.9202050205130733
P 5.383075755846614 8.716353680574626 12.805242616642113 0.23145610589559493 0.11985274519429036 0.2643718827870092
P 7.570105280249848 5.897122846157301 5.256463260115854 0.374319967273078 0.9138947620243294 0.5090370311737105
Ni 0.923924774926043 3.2495986856501933 6.803003549869758 1.282881747120268 0.51453867771823 1.3827019991437155
Ni 0.03897846908568083 1.1253638843520324 9.176991374201162 -1.142479202799084 0.27716723477946464 -1.372913552298384
Ni 3.8168311746819206 6.383471364810581 3.6673586515306114 -0.6598052349999346 -0.022318975212174467 0.7928953048201054
Ni 8.151022350725636 4.020848143019553 9.108722818518462 -0.13038321241196899 0.33351193211778046 -0.6703621845801745
Ni 0.07212452061917128 7.1550314075909816 4.826754226421558 -0.07691789350397721 -1.2769738662762655 0.2148344381785139
Ni 1.3620393792446115 4.396854135641075 9.879210871046816 0.02933191619489787 0.9102749058835549 -1.588765890218451
Ni 8.405890621361936 4.583412439206538 6.724445205402471 -0.5737984918208118 -0.8600412065389833 -0.23359834904957832
Ni 2.637086608360297 4.061581890261573 11.694789655523799 1.1950731748457162 0.1680637576818783 0.6470445929001566
Ni 7.77656928515932 4.265721210427797 13.473423834773467 -0.8626850719197335 0.5613594947265107 0.011698262273534692
Ni 3.540391335496935 1.6161170688346247 12.44398096053384 2.0653645983577977 2.8986251943688277 3.422278947014448
Ni 4.834826623604894 6.607224624268018 9.906223331296196 0.6418723046705977 -0.690973690182939 -2.1443594289954615
Ni 0.24585282320489268 6.26967475254088 9.18569717738944 -1.4721131400186969 0.7322057002495326 0.23248017628473508
Ni 5.567902310453543 3.1691476525113793 8.522268857214929 0.06471543790051434 -0.6900964297843082 -2.2530186194667774
Ni 7.9093869009355195 8.649069586528137 9.4306022445067 0.7865307960546583 -1.034180223880664 0.8876612822490969
Ni 0.9223662008633631 0.9050242409123126 6.920353071008189 0.3858356812221613 -0.11539188120945933 -1.1445995915761966
Ni 9.315359998323789 6.155351086240321 11.770124499891642 0.27162882145973866 1.1970889197241643 -0.09875452976309444
Ni 1.5844185335501688 8.587140737902331 2.088185246755391 0.9888005101942842 -1.248948841818249 -0.1795787003000133
Ni 0.5814836535589607 4.686423267201897 0.54858889385804 -0.18315947567273616 0.45944996427420226 1.0105049917509112
Ni 3.8843599723855933 7.893857630383455 11.455022424039491 -2.2967343151871735 0.7089454441700113 1.1784180827875381
Ni 2.3122236800902387 0.5845029202214468 9.07859697481537 0.5802018242439944 0.16025531738105306 -0.37355146453816956
Ni 6.397946527300928 1.633603968644161 9.794591405224661 2.2461584020118344 -0.8125267058977877 0.8360042201944375
Ni 5.173157664699197 0.3908030345378588 5.320172798431631 1.7291368099707511 3.2496615085236167 0.25515164974032184
Ni 8.911231908484346 2.08116695763377 0.05225081898417826 -1.397692816125593 1.2836739040042604 0.24016057564812832
Ni 2.8728397586988743 8.572138521381124 4.138558131468374 -3.1334216774915644 -1.5469080736424006 0.17993711208069654
P 5.913132112344611 5.416214278036806 0.0242021328634138 0.9851652274345422 -0.07687855562560954 -0.36852212964437825
P 9.082486821796683 8.685690429993642 11.932008204301745 -0.21236437937146654 -1.1104028910898294 -0.3437716621725757
P 0.7918102115802921 8.35130288245165 7.6685665025574075 -0.03692746915396866 -1.491637840315186 1.5481506878002498
P 2.6381218930637678 6.366417402240677 10.20507049613594 -0.5628803022464112 -0.722493358057775 -0.7529102797867356
P 0.6444666102464836 9.051418869013434 4.0781276221588625 0.3325079163332983 0.6244654220480601 0.39867525618899086
P 5.073516217829681 2.8253954842425375 11.339753825155036 -0.9204647019323632 0.7791658710491548 -0.8836457333318007
P 6.182164960060218 8.660420071549828 3.7889358989308524 -0.7276859580023081 0.5742746601262819 -0.66176338716757
P 7.2749267879320385 1.4109048172484395 1.2510060359652655 -0.8094382967804511 0.5000682520161969 0.3989819887961322
Ni 8.06069846618736 0.5228065400699646 4.616080377440607 0.35568821110450355 1.129512101115455 0.8516293283262042
Ni 8.45948072228524 6.917405333107034 7.125916378225641 0.84231525001413 0.3546710826938988 0.8344543592088145
Ni 4.081233476269276 4.206935862628893 9.712299447649492 -0.927466587171493 0.5288496950242635 1.9036591787937795
Ni 3.2414575832092627 8.18256088746501 8.079307238148292 0.4358012145070108 0.20520668528076272 -0.3656360663458348
Ni 8.08844409624038 8.297082199027141 2.9499590574283365 1.2863504223951587 -1.3455714128400054 -1.0046827286421796
Ni 4.76071906219462 5.6100289862056885 1.7737852821657751 0.016360186525578274 -0.4392513778391403 -0.6835776548291841
Ni 2.9131876270968733 3.7000604718095214 2.5798127762284597 1.0070666554933236 0.5003675284241705 -0.5845135642454709
Ni 7.571705265700667 5.563488232945108 2.210974718426605 -0.2267964956363965 -0.647459054729756 -0.6736670805836914
Ni 2.2669158567947014 1.6682671828521924 4.43583448706258 -1.3504505953091774 -0.3830429489683726 -0.19558201770680508
Ni 6.345288182610749 2.4594882233194184 13.024098979452134 0.16140202939098655 -0.4438549380494227 -0.400597155802052
Ni 2.4817656678022884 6.483169281754832 5.526232101138837 -0.5351663812709105 -0.5486659584192423 0.11904079081595628
Ni 6.734564642794944 6.752371539694644 11.820885450070735 -0.6875443527864159 0.7029342049789248 0.1978286476491367
Ni 6.186531979173042 1.548061217100094 3.2250172621181443 1.4283712190460562 -0.6207082689984729 0.30468446636312685
Ni 2.9543731349367715 7.983936811264549 0.02878750293187781 0.04689537899995795 -0.1339912414782015 -0.42951795260146025
Ni 0.16150347257355413 0.7745746036033254 2.3687257545340334 -1.4445665978589959 3.595655118048175 -0.7814122438811703
Ni 0.18963309913477175 8.661784765022585 0.2143660507006925 -0.006123082178602358 -0.21648740040090458 0.5384329678373243
Ni 0.24257191186280208 3.8808870627894043 12.117982983761614 0.8007495107572016 -1.1932852297073577 -0.6985738711277001
Ni 1.0374870363855946 8.336215960818343 10.175950760931041 0.1136350464193527 -0.19836780798205836 0.3298475958923158
Ni 1.6121923986405575 2.2102104900818613 10.539994509387913 -0.2239366575900982 0.3851376267138722 0.8314860206091099
Ni 6.2863240129085165 7.723901528790017 7.769316645227551 -1.448747211599247 -0.7479583350980991 1.132720323640107
Ni 4.665896395035804 5.589586819151697 11.976459564797137 -0.8841129027762062 -1.1553077220223198 0.9747833699795859
Ni 4.31590428350877 0.8980727747124614 10.525916519756532 -0.8741640190936106 -0.20381134759513286 -2.451105662983624
Ni 7.456666311786801 0.2133947654152543 13.184632107908161 -1.1894118627948806 -1.2140710561044574 0.12479774790439152
Ni 3.9671451019467785 0.716564778164112 3.166556617248965 1.6848526433413953 1.5958451656627355 -1.7919794563285847
P 1.5248614280632224 2.5886917543125914 1.5652196493082566 -1.5663898365160958 0.09310941566217514 -0.46498015006381205
P 2.2540124447178047 0.42040276537800514 11.568376687390437 -1.2556902743071405 -2.9489375694701345 -1.4542339457454307
P 5.459404473529789 0.21770625562125462 8.302929675265927 -0.37592484986635255 0.4009108303877289 0.8515871622343592
P 3.796784298151074 8.159088159733587 2.0523427491533144 -0.13138465709328984 -0.2901960429389647 -0.04339893581092526
P 2.0968938734474056 5.877932432426599 12.887121401503805 -0.2659574821065742 0.18295430164046556 0.48046024797728226
P 8.297665723132733 2.233259692252773 7.577142392729714 1.086847986588025 1.2184447596921208 -0.227135367033054
P 7.51161169450374 6.208141194438216 9.953374902531824 0.24507343956871339 0.05261531220287067 -1.708073818652865
P 1.1991890953886328 4.767288414222099 5.219767123217371 -2.70701810214937 1.1255824270437453 1.185251560769604
