# total energy = -340874.42357489717 ev
CRYSTAL
PRIMVEC
9.21388612385586 0.00000000000000 0.00000000000000
0.00000000000000 9.21388612385586 0.00000000000000
0.00000000000000 0.00000000000000 13.48545369614156
PRIMCOORD
 96 1
Ni 0.6877456363652932 8.758480386353344 10.912995577619206 -0.37665710004668684 -0.7880431189341267 -1.4308646748918712
Ni 6.455497244453967 6.977611303509967 3.679033697504787 0.7958263624239714 1.499092239710702 0.46361438006453703
Ni 7.069602740449492 8.940583627506467 4.854452808777819 1.2680086866631775 -0.3219882477488971 1.3110834063654646
Ni 3.121424985752259 0.11493217008175519 9.912401659017872 0.26555818978562656 -0.9294967302276443 0.49336024386840194
Ni 6.365661856817711 2.909137054353356 6.407222010609721 0.18080125985320475 -0.5007603929872151 -1.5339795385061905
Ni 3.513015136987215 5.939326141810826 10.924268767031817 -1.160658444811272 -0.15897593644799718 -0.14144152710865965
Ni 8.9170329351169 7.7069272289417725 8.360320734463553 0.6170704151355695 -1.0327092957620925 0.06018463990969635
Ni 6.635702425109337 4.931363878646137 7.500043241629911 -0.06398447327176077 1.26227512661351 -0.2346069928197508
Ni 3.1031538499899316 8.558087581666072 2.738760325799687 0.15255383497173727 0.804113542133428 1.2737365902858904
Ni 7.379723712455753 2.3746211048605965 1.6703623421648728 -1.1160631746994005 0.23309595549186307 0.8009053196087755
Ni 3.6487817458918523 3.098427126517378 5.872820313302262 -0.5754871923771444 -2.3123825632473918 -1.2790222641648619
Ni 4.780145583068064 8.772328856878195 4.448513873013023 -1.2768070016810977 0.7442194368809569 0.3437284676394661
Ni 7.93799305982813 2.6016881092614024 12.952360229707212 -1.0834975820585535 -0.8144676316742424 -0.5598158043884747
Ni 6.38008158826907 7.566010057812656 8.496213573605177 0.548939523795603 -0.36878926726283584 -0.4011985368314768
Ni 4.976557989041607 4.907831614028394 5.318541499918119 1.60833841303374 0.49144348646166336 0.6246855084786661
Ni 6.14985422100065 1.701058403078738 4.079497742261023 0.1401114954433264 0.7651129925005146 0.22819671841803282
Ni 6.454198086540458 2.883476382090077 8.928422219491996 -1.0073379068768393 -1.4399959477691782 -1.5189843506489387
Ni 0.27383761067571805 7.584060060313109 13.048848042971505 1.7322385888245262 -1.1925768907864236 0.5367452957222563
Ni 0.795490975436148 1.529919686160195 11.92106011491751 0.11966094089845843 1.5492603759246608 0.27610382651195675
Ni 7.918431980038205 6.598662603745467 6.250885401407859 -0.2394074995321877 0.5607259749075698 -1.2141371334557025
Ni -0.06684397812151144 8.753044193665612 6.346267548362783 0.2106376264883469 1.344553513098452 -0.9826602016245013
Ni 3.1817298690424423 3.5799171625899686 1.456307187448161 -0.13055239099998162 0.19373545141636958 -0.3098423564149825
Ni 4.6581353058291635 1.1468523793932937 6.57174423605528 2.40288308053181 -0.5571886511782727 -0.2444679447742306
Ni 4.984408219838129 8.847790582492648 -0.1893020502157069 0.32671959178629545 -1.4540513974209799 0.24337316904815504
P -0.3244927912508809 2.049785557053811 3.139116568090759 1.3694762444820607 0.45399948268259227 -0.15694707894342647
P 8.730792659189555 5.315536851722408 7.816896800071641 0.9862674593597851 1.429202713808416 0.8326903253298562
P 3.3009944082797427 7.35539905364963 5.651631768112937 -0.09218767517885414 -0.3178325737093107 -0.7817950811418858
P 7.911622918349672 8.56401211030711 9.97261440344894 -1.125473926490339 -0.5389844694654201 0.26758679017988113
P 1.1188974495380737 6.591153286727667 11.094967981592387 1.2578955094885755 -0.5449810533684872 0.0022893102548089605
P 4.399630522698624 7.085690185250815 9.209795867454655 -2.320566898830397 0.4028059905279127 -1.6362929892651366
P 1.6187599741180172 9.323439014897405 8.34095498905495 -0.742337903587528 -1.7690863537804953 -1.6099942034696078
P 4.592900993576375 3.715794338125542 7.551031043486476 0.8349732078267619 0.20891550159091762 1.275525820975829
Ni 5.647467091680979 0.6655484638161137 8.981366129327553 -0.5273885370977046 -0.3688705141227325 0.7254298149782796
Ni 1.895849165131872 3.0376523350457125 3.7411481879879713 -0.47190053133272925 -0.19683903004235775 1.3389341100291456
Ni 5.367973076444247 2.1809544368886544 13.319568596043393 1.099967040468486 -0.6929110164149679 -1.0651447905829785
Ni 6.009231894220699 3.2047922254787036 11.216849264428525 0.029492095921845984 0.06730659566645827 0.9420000049009777
Ni 3.6198225024722883 5.964747253040407 7.4264933973420755 0.08727763947174647 -0.4591766560081576 -0.5736105441797218
Ni 7.964658045655753 6.954106680549958 1.7571414838443127 -0.5846323492115222 -0.9766918998562082 -0.211261633225591
Ni 7.0154619468340425 7.652123035540701 12.919590123074688 -1.095193530339243 1.277604814992045 1.2927576114730834
Ni 5.0563502410344245 5.0737276298633445 9.220462783174296 0.2026209268314575 -1.229828061828398 1.3135925459405635
Ni 5.202325835528904 7.814029438776011 10.937026313464756 1.234988522983415 0.13239355797377844 1.260761518182461
Ni 3.7138041387686775 8.509032853073721 7.540971322848398 -0.5398876980059799 -0.4897966948868597 0.43827358730690325
Ni 1.7818088992063414 1.4429866725860345 2.0714059403449365 -0.9475260769255295 -0.8675711963674414 -0.9133723138619559
Ni 2.2782622859990633 5.045781913894036 13.160804127903873 -3.141907860585705 1.886724864932286 0.7317318459369075
Ni 2.6013195538249465 0.8630849638708483 5.4482711707736 -0.15089007411606917 0.10903534286381224 0.14714166281723048
Ni 1.6522432355200838 6.811383587782206 4.047901484693613 -0.19743938263051802 0.6151868249596114 0.3435934847234986
Ni 4.030955305725347 1.1302397430950202 1.4009363400635382 -0.39036493655108256 0.8545331322365607 0.42604644911309203
Ni 8.205048329084459 6.395330569452454 11.644365278220665 0.6215819298526779 -1.5936556142105844 -2.4180680158023646
Ni 8.030113491170415 9.254519148280053 2.5580152114299066 1.339520835770551 0.6849313406436011 0.2336960509697072
Ni 0.5521983179453477 3.285717785438624 0.9329022629759719 -0.2862799957140102 0.45700844471224517 0.4854170777619252
Ni 2.5545130133949794 4.880365020126479 5.380426564642109 -1.3601128009892898 1.952105961441257 -1.0009101489736245
Ni 7.429543193578752 4.532540826970724 9.948893254170015 0.45569872476188616 2.2659864924813555 0.07349009876935085
Ni 0.8122068072566294 8.006664151525875 2.00697231477785 1.0174631682362993 0.13208271160157897 -0.724958531768816
Ni 2.7865002328724793 6.610520874913452 1.485382525830209 -0.17240352270781276 -0.8255172046201847 -0.2447250550903592
Ni 1.9680676029055095 7.077563537876951 8.99494555438379 0.41287083096308247 0.15323106354441995 0.6958114778912146
Ni 8.771296901656116 4.478879155422668 2.936470968298147 0.210877767523611 -0.16427240896024614 0.20453974112072515
P 5.737136629370829 6.820818606955491 1.4297140699306474 0.010628940468755888 0.28663300817805476 0.5125026211248077
P 4.897512061807615 0.7139057012449705 11.319231200510348 1.3855260988560718 0.9634517470168505 -1.2876508863741372
P 5.4188060850175 3.610654685990435 1.2815870330758528 0.14686604055834063 1.3027931413322145 1.075812811819786
P 2.5896824159188343 8.77948804623136 0.6738354328048365 -0.716882953849533 -0.12183660839353858 0.13738432632015046
P 3.6820070184883993 1.492640303762627 3.5269041486100754 -0.14482741286175704 -1.2278897071551047 0.7428930047600496
P 2.5755022455011733 3.887117332762313 10.09380833039609 -0.3057651010218153 1.2582346379955491 -0.26725640342365586
P 6.159510373435808 5.670308314855366 11.417431875165573 -1.0297543268988265 -0.7540611055617271 0.3258428456082969
P 7.151458902886464 4.5732201332696025 4.796924069312744 0.44400611891530634 -0.2394545507200392 0.9334099492391215
Ni 5.876680931499144 0.1096295787397383 2.3398478994309326 -1.418973836991556 -1.3243263874183 -0.6079926212040174
Ni 1.0516821518143322 1.7265347976237884 9.486126755658002 -0.41030409867717077 1.896658064885598 0.896422830491811
Ni 0.0181660974629374 4.294831784342239 12.226505039823731 0.5720545125465116 0.4475580979326228 0.6298719377756121
Ni 3.942852128640437 2.3342642845686177 10.11481783305129 0.9288382707080391 -0.00048491005621851966 0.04896203172099955
Ni 2.711278068291722 8.000988397804445 12.176218414685026 0.1473614921375204 -1.177967368403365 0.009716198846499397
Ni 6.830566898249764 5.1086114019239455 13.5268533873924 0.18554185986198368 -0.2602540039638937 0.3929977461882393
Ni 6.159832859442707 4.939766942597344 2.948203009229146 0.5835730547090723 -1.0610076284861534 -1.9497832268453519
Ni 8.569227169732969 3.189239186060242 7.652010626132581 0.7242494215169334 -0.32724332550024926 -0.7062123615095643
Ni 3.2870722266676013 1.0734545642229958 12.5553882477114 -2.104800949976549 0.9809391051683364 -0.06129869890948152
Ni 2.9647889252582766 1.9961515271634893 7.967421290040584 -0.5547669291106574 0.19011790926844033 -0.2963939442195605
Ni 4.445663096712032 6.059733202901141 13.337747592946606 1.0189875753006257 0.4603166831498718 -0.5729523417704325
Ni 3.8363488213904406 3.9079315010361904 12.214705737525579 1.4291631188197322 -1.7818133144288604 -1.3248339231823376
Ni 4.084027288575072 6.439225521934414 3.586968549477971 -0.17543331067307205 -0.16189850941143083 0.15380441954938676
Ni 8.498013045523674 1.867802096417538 5.282212069158017 0.3585729888514663 0.39136303879829376 0.4214837694430741
Ni 0.09056973434339406 4.7354398086259 5.467704177549356 -0.23885676923504023 -1.1871073830314198 0.2185954478828429
Ni 4.549042896638061 3.4307443496842285 3.502550005369035 -1.0776272393207054 -0.06372016386678057 -0.2549505894731093
Ni 1.5493794132050944 4.455650949040002 7.890958936416152 0.8313045007259232 -0.6719668100631331 -0.6723583890745969
Ni 5.553826369163312 7.116049939328913 5.996536080823366 -0.26371368037772003 0.6853267763098068 0.8965853242116042
Ni 1.1845095311132294 6.695067492036557 6.506771598162376 0.9147036310788699 0.004411241693818209 0.7406566592303632
Ni 0.4783508651425729 4.571487922718257 10.01930116336206 1.3223286402619807 0.409412697211153 -0.7375096289609492
Ni 7.2147490852119445 0.7884423527139188 11.413993252943436 -0.36846479404388155 -0.390577823892837 0.007369038770561503
Ni 0.9109105600826168 0.2551297367211897 3.9317917799923796 -1.2362383362301161 -0.19886917309850913 0.7807969788946747
Ni 9.083398859133332 0.38732596483515513 0.24746931197444286 0.03678400159756891 1.4388338091402768 1.1105844109730163
Ni 8.146190025882367 1.0001857434554577 8.410108888374452 -0.5259227511854556 -0.7499164872657342 0.24984077905036975
P 8.803794277265663 7.5772694263964 3.9764422711190766 -0.8510060929199086 0.4828626867711878 0.2819795685664434
P 2.1400447834419905 2.803103655284841 13.063534055725704 -0.39710714037092254 0.8698895600879728 0.36405303812943113
P 8.380360936320871 2.6567687192398157 10.727489648398999 0.0897834366127357 0.3157641212160562 -0.40019426393667856
P 1.2964674588227811 2.734552344103945 6.169891658692195 0.09024443540955426 0.3979957136234629 0.07645612337621026
P 6.576770410819955 0.09464411469341989 7.0476193300534575 0.24793199206343108 -0.07606377303379802 -1.0170757029898936
P 6.979619930638655 0.5637525308782567 0.31649790244554976 -0.47305058577677245 0.2763951325001304 0.6659856527790337
P 9.237657737062172 5.667018957584993 0.5889303955197777 0.16908499985754105 -1.4831030633712972 0.21301949645696217
P 2.273775123560206 4.9908395122042934 3.0388658038202454 0.30258696040414984 0.5773628121333025 -0.22948818353594672
