# total energy = -340891.64497673995 ev
CRYSTAL
PRIMVEC
9.11483925290079 0.00000000000000 0.00000000000000

0.00000000000000 9.11483925290079 0.00000000000000

0.00000000000000 0.00000000000000 13.34048858869444

PRIMCOORD
 96 1
Ni 6.35080984542514 1.9109442855997751 11.467003772005564 0.7897058513485302 0.021341698900569694 -0.22881018363231564
Ni 4.679831933659076 0.43948382537616826 5.92453797959134 -0.027030264644914734 -0.6200246126678871 0.2259053512806948
Ni 2.7233681406742756 1.4946240012964072 4.753576452371387 0.44823532650530545 0.3154769289929406 0.5388811111183365
Ni 3.525747442857647 4.5160929607586775 5.203817611070704 0.6709360548057736 -1.75408808059945 -0.02202638367242013
Ni 5.284519486608605 4.464448281374706 2.8519830803932176 -0.5277852583154911 0.2845090198565165 -0.4092998257823725
Ni 7.467605528715127 6.135590260247885 2.6853474115683174 -0.8917045990805351 0.7875047299321534 -0.5305247687338411
Ni 5.117125463155263 4.863204270377525 11.522086568767515 -1.4526429471092273 -0.024344233172319367 0.3805420369233898
Ni 5.76335845356193 7.920886486315706 12.618821402277025 -1.3865910497854765 0.2515397640193474 -0.48021830716980524
Ni 1.6109566950799623 6.612688292897937 0.45251166516499813 1.1900775214033374 -0.2751232077662423 -0.08347369234462398
Ni 2.779706962289582 1.8062785860999269 0.3436312639801607 0.6789362994024307 -0.5915133926020716 0.17886907582749842
Ni 0.647082493427949 9.431215355698697 4.851201850008161 0.7124313458360828 -2.710670868410609 1.1277994892997223
Ni 8.641587713673847 2.455464784434657 1.2838816251755243 0.11580197216368443 -0.32984373923757393 0.9072003807232892
Ni 6.79661663481272 0.7491778082496682 4.592956577474023 0.6349120713026808 -1.1655767080484958 0.1463947573488769
Ni 0.8413507090266661 7.43591323252415 2.6103869732955007 0.24105274844509456 -0.19737716193401492 0.8316845097731612
Ni 7.60739070397679 3.909628014148739 3.744728722207469 1.280144036474131 0.12674484432843333 0.5833889637227243
Ni 7.569245101572639 3.6819940178664776 12.579921091180147 -0.5562144601904615 0.8615262757249421 -0.07611802331050116
Ni 8.040974493884331 8.816474135018755 6.834972790004334 0.2646277075515572 0.21368309818289005 0.1360398964771141
Ni 6.878167101887973 0.894300633396127 0.3552344543888785 -0.1655016533816569 -0.5727415113112071 0.25059925448294906
Ni 1.6918782382446105 6.822475433861842 9.493318401677298 -0.3335630970706901 -1.0337511067630454 -1.1832090764182783
Ni -0.00204536993536236 5.015385627065625 1.3334563245580662 0.2556766690058564 -0.9648350005176222 0.06314809341339447
Ni 6.7497572460529245 1.6895904135842899 6.801380961306543 -0.496513444785403 0.884510138214625 1.3804504841053773
Ni 3.341408933175079 4.459015837161355 0.6860502543355299 0.12403927247181216 -0.162806623047997 -0.3077350802639926
Ni 6.081174669721533 5.660014405758283 4.870158892751328 -0.22267887392359714 0.3591237191486138 -0.10106363751224531
Ni 5.054369794683919 2.687729119073265 9.337687989804076 1.3657869685559316 1.0639512844955095 0.31429627842127805
P -0.006775060039905714 5.608005132802946 12.496729041549818 0.7574449344322954 -0.23867139269711157 -0.6564381182999146
P 3.860663097514307 6.2318885372848865 12.742248175475432 0.1392316639415344 0.7654089264743786 0.6970224674801802
P 2.479318318841267 8.389024631949445 1.5643853352415467 -1.1810964009506497 0.12330779362242633 -0.5534862626260211
P 6.240201270712028 7.764721944860434 5.73538318883103 1.840497201423314 0.43686462277451854 -0.8051144725941167
P 4.801569727138129 0.9354741854104712 12.826479316784154 -0.3081127753183855 0.4090314026123342 -0.24396143745145726
P 3.7608373776743402 6.240739046229793 8.235991037788276 0.23324945035059186 -0.0798731194775592 0.2679793976326094
P 4.620430526044296 1.263681318354 3.650491310332612 2.1436863141878373 -1.658667243195279 1.3841873254399903
P 0.26486993772585515 5.675145038969966 3.664818926203361 -0.08382773324993303 -0.6206180232775118 1.1166547855368123
Ni 1.512097148204115 1.0112367295402926 2.6620681120366085 0.2755577242004996 0.42849259666073947 -1.030883041186631
Ni 2.044285269487547 6.541865991660123 5.0375283061386025 -1.9842766326365309 -0.5505454348301422 -0.15733120175572257
Ni 5.805049728447614 5.673932765345174 9.113141189587354 -0.1137520316131912 0.21161387435868717 0.5583752152872061
Ni 8.775630540186498 2.3011140959969287 10.386731249727148 -0.08671199677626358 0.38871583098343376 -0.12824636857462432
Ni 2.223100186563923 5.04474452439986 7.126288522429211 0.22599559700165595 0.6981920623082492 0.893483545357829
Ni 0.5235126172527818 9.241717846981302 9.409660583759548 -0.09942944434293198 -0.6558902162162445 -0.08654641773267675
Ni 1.7027522415105967 1.066955742084277 11.564789590813739 -0.8631483847093973 2.0042075672325033 0.01665689183039067
Ni 4.124710876736732 6.781258130618934 1.7295006488738514 -0.1999022423487138 -0.1710917458749247 -0.47338225808457823
Ni 5.784477536183297 7.883770860750665 7.862363749207919 -0.8646522229484335 0.7810224646419195 0.3428023562807709
Ni 5.519609421425298 2.874173156630471 5.040276430182772 -1.228272030195188 0.10418187142625283 -0.8719608407947048
Ni 0.8058128621417093 7.287286663156867 6.962054613755684 0.06694741255482663 0.5189085246511514 0.23273137306359273
Ni 5.4538732005080375 4.566570940714278 7.075342039734405 -0.6923206911291367 -0.6057171949062794 -0.21579217410609286
Ni 7.994953670338678 7.3603967890550015 8.893917455512574 1.6093748247180544 0.09598776565123468 0.05807273577301612
Ni 4.766149461679938 0.3935559731912135 10.523270630719727 -1.101670139202522 -1.570187355885315 0.31290736849355144
Ni 8.347962280974368 7.599725124138823 4.712194170537436 -0.904048722468185 -1.3079163214913927 -0.18104962841858496
Ni 7.325268198453903 5.99432848102219 7.00283622768081 0.3047698269880816 0.4939744804136331 -0.4706293779297894
Ni 2.348192240899542 5.29273195680362 2.741377240131891 0.16602538709561082 0.28212200768157863 -0.08433938277902894
Ni 2.266559740270731 5.225136308672393 11.697754131839075 -0.19959319574872722 -0.3810868536832663 -0.6191393818494563
Ni 1.1414786680714548 3.5555711969953725 3.767567775001754 -0.5190342515957383 -0.9794936309710615 0.3879568413302221
Ni 3.478733101830022 2.715100981443555 2.8116016079126656 -0.302455319922292 1.992014624710737 -1.1836916724816517
Ni 1.2020650047931731 3.2347835432291387 8.429614834249604 -0.9739400481426841 0.4994704705311978 -0.22656663901377755
Ni 3.969102340477792 2.7135696884438185 7.082905533372389 -0.9061984218213361 -0.36572991161122176 -0.22671062079080956
Ni 4.203153183616093 6.959826947034638 6.116614076342221 -0.15306342761830416 0.11011417775028778 0.6156784198840494
Ni 0.9022250746697634 7.695731726318733 11.778691170230505 -0.8088250886764845 -0.579277512657512 -0.5633289597480556
P 0.05386961165323122 5.613975352534061 8.140780161077872 0.997723780825843 -0.7660082506212743 0.6393287123131377
P 8.583699369380236 1.6045307333846393 8.197543734203819 0.45750980982869593 -0.04117750267957424 -0.913865965668923
P 1.982605152051731 3.1184599642848676 10.59213415299538 -0.5593126394998109 1.1542491988508186 0.4409128247019632
P 3.9482840475528023 6.160847479904253 4.077146910900273 1.5164358731954724 0.22780539651688508 -2.7438661242156552
P 6.535339766732675 3.898507910222081 10.377725788514413 2.108871006280865 -0.5598834244016164 -0.5533962740153759
P 6.351055946085811 7.7099417607627165 10.08667712088056 -1.5827873040375127 0.3729901927180609 1.594238226186932
P 2.5280827090114477 8.631871294996946 5.795855590061696 -0.4686326592147348 -0.4298869059051048 1.3726926945368294
P 7.014142274328864 4.089144773849995 1.4559807286673416 -0.6243939453801763 -0.18209015386795738 0.3285196211095116
Ni 5.262625642648087 2.9318336299419787 0.35153382963951524 0.3854176198481362 0.426252394476311 0.5101886282796503
Ni 1.6772853805506927 1.09371691022253 7.12687551807911 -1.1117694324200529 0.4431782236973723 -0.5195764972524536
Ni 6.7799273640834485 0.8218002902461014 9.211594214631129 0.4086025426050318 -0.7544141180257717 -0.049626661888191946
Ni 2.8056751394101136 1.6695286523198845 9.173093133494897 0.009047454914248933 -1.189532704643461 1.1096287319279665
Ni 6.466750601119476 2.1467907520770524 2.6737004699310356 -0.24848683612563655 -0.35320015457532716 -1.14268334839009
Ni 3.939333275375771 6.937595854020606 10.503247151780316 0.7212404594872804 0.39660448970289114 0.07480521803634858
Ni 7.996001876856354 7.209072227259609 0.13654758434793426 1.03724677862113 0.17230556367736777 -0.08556451343538167
Ni 7.781538823339683 3.7684118091194656 8.415340084446703 -0.45912266284177056 0.08296589947027001 -0.19256894191209414
Ni 2.968584661935655 8.537660316156014 12.728614198874205 1.9377018702007855 -0.6554204756686777 0.3010144737107074
Ni 0.1760020776732886 4.8436529401130315 10.373644163482972 0.6235020296935262 -0.6239200910675513 -0.6876960478729318
Ni 8.932970895909426 2.2677902435740904 5.632127554968439 -0.24309677545831682 1.2810626916336583 1.1959023556152306
Ni 3.9778708158691405 2.720506081139054 11.580785222273486 -1.128273086502031 -0.1968040630393643 -0.042600094058713726
Ni 0.8122324434495333 3.4027518015573808 12.732936455662747 1.4968522946365899 0.1683643196414326 -0.5474901929435861
Ni 3.14559484083377 8.499150120180497 8.02425058676578 0.32433463649388655 -1.0656194162265518 0.4289548810091387
Ni 5.526491125084829 7.890725483124468 3.4231426085199437 0.9588438159311939 -0.12990884387871174 1.0659140646488352
Ni 3.0985987294847135 8.190813336876406 3.744728722207469 0.44798258706455096 1.1680578225991367 -0.8553237464586559
Ni 3.4952400757736104 4.347222333341304 9.384073406921095 -0.7116957532216388 0.8449030653459643 0.04471225530571009
Ni 7.312452734420394 5.891531323575592 11.135385866201906 -0.1891617160027581 1.1887973691393332 0.9223315799377728
Ni 0.6370771343457419 0.2587174212090566 0.3701946401059473 0.8348785912304266 -0.5684331137438404 -0.747668828882138
Ni 4.384173891799232 0.21708903871443347 1.7602240376489222 0.8074703744208028 0.7319439619477136 -1.1476008402963656
Ni 5.927853958122913 5.666969028132087 0.2846792179420896 0.29454969192197017 -0.1555579119053837 0.8260856755291449
Ni 7.805310324192736 -0.46714645111962294 11.45759908083218 0.23779721762227432 0.957310410005803 -0.3661065782243501
Ni 0.14492776758577808 4.827720201044344 5.888744917206427 -0.3657800481228668 -0.22349931294236344 -0.47625418031573463
Ni 8.388477741592396 8.91664621875152 2.069696529927817 -2.2820582012322372 0.8608189652452723 1.3843847861627772
P 8.692521435593655 1.5193890196314317 3.600531053248351 -2.0819374151148144 1.1899857330204795 -1.9358704734190015
P 1.6947767571369687 3.1558399201891505 1.5767787822162003 -0.44011758249417754 0.9612177154800091 0.15759499694007054
P 4.684890669461777 0.9598746101741301 8.291647157941199 1.1221867710986348 -1.0565063981816902 -1.8170045176180127
P 8.644066949959134 1.5812058596565097 12.417793621865187 -1.0611778355154304 -0.5023220810473801 0.18113653170543645
P 6.4347392855535555 7.886067800250269 1.411930533374921 -0.4269869586494905 -0.040493075018039934 0.801370175060336
P 1.9935156146748536 3.08839010948647 6.034543151943842 -0.9944492238396292 0.5700097142023409 0.4376858331242333
P 7.201743896475157 3.729856038947528 6.00594169775412 0.35127002743214986 1.1565094556399051 0.16204043430593384
P 2.410510397085248 8.59815550448489 10.43919899909848 0.999189309627776 -0.20673417766888266 -0.9033100445299476
