# total energy = -340865.23518309917 ev
CRYSTAL
PRIMVEC
9.26614898479004 0.00000000000000 0.00000000000000
0.00000000000000 9.26614898479004 0.00000000000000
0.00000000000000 0.00000000000000 13.56194567593196
PRIMCOORD
 96 1
Ni 2.806985262550081 1.0914782277243154 12.580210409582026 0.3096706067238086 0.9964132895445355 -0.7708493807636595
Ni 8.067517064816021 6.710582199392658 10.168977739457507 0.7832079023290125 2.6374167969114644 1.2598482623395721
Ni 4.402032359855335 8.640767375178056 8.372317771339075 -0.3452387336364054 0.008582085242056187 -1.5545920725502194
Ni 7.853255900563191 5.92433092104724 6.627112728839985 -1.6181075766053619 0.7002116638414393 -2.2384314656812223
Ni 4.868972142280998 1.774967913215698 7.0362224751067615 1.8635512550293003 0.03559512349579031 1.443630716308288
Ni 6.694764882981311 7.368951354836495 8.312102628417284 -1.0080462457977735 -0.6232886281311395 0.029049094847156426
Ni 8.606844003542472 3.908396802045318 5.414878046825876 -0.4536567546311929 -1.419605299927968 -0.6548396634645431
Ni 4.805638013592328 0.17195100112110626 11.92618522480816 -0.6840581940100283 0.7339193405065296 -0.32247572890827686
Ni 7.845407472326278 0.09982515022324795 9.704833554197222 0.4492167165819683 0.2281712644967361 -1.2150467897541655
Ni 1.6646914734901896 5.179619788848317 8.797104915166695 -0.6146834029606316 -0.03019040754045123 0.0018432238563258578
Ni 7.957879989374276 5.378638137930282 12.857118154264754 1.561822785970704 1.8804112640094324 0.4528697399535233
Ni -0.4454627021806598 7.892692630877599 7.7727849558398745 1.6443328288504775 0.8010089350661753 -0.574196755700495
Ni 8.011697782998825 0.16172951211503883 3.296597458446912 0.5754738226407057 -0.8054116921195612 1.5662389127605283
Ni -0.17394229654981072 1.3328799425154205 13.076645271017037 0.340906939030271 -0.06724771740406484 1.5838345143551045
Ni 3.6601937338588244 2.075978764781376 5.032431644421813 -0.4161677565467994 0.5456081454295248 0.6834933226454938
Ni 1.166117058241832 0.6492660906269013 2.5585014300476736 0.518841418858642 2.8363983272181215 -1.2740672341524317
Ni 3.419236794221641 4.5790436049672065 2.552276431122575 -0.8453280686985248 1.1615531887113997 -2.18591719783259
Ni 1.4381063310141073 3.8234540137952777 4.448155543317035 0.0923591677597119 0.32192834104523915 0.844312740060133
Ni 2.4586336555388413 5.393028467389463 6.3160147474293185 -1.70722869704375 0.7943708609243674 2.087430062798269
Ni 5.082139900947103 2.7158804851884137 2.6573953322923978 -0.4936320094725499 0.34619569823303603 2.711870545145665
Ni 0.8699005121894703 8.613033791101218 13.845797724538873 -0.3943234069781983 0.007527675835612843 0.6451661449305212
Ni 5.021900666037808 5.129962496142746 11.348311106075146 -1.5953304308098462 -1.4768473122695727 0.5912894495167236
Ni 6.904874812464203 6.8587386563938475 0.7536983701528569 -0.01756243436379556 -0.2734087961782969 1.7665057375375126
Ni 7.1202108500056775 4.751588566241779 10.918451672263009 0.24158985189548712 -0.1583151629355467 -0.7259131823726015
P 5.793112984491243 6.111386671718514 5.272111708721278 -1.3855721216026589 -0.9711784262371469 0.16746443353498255
P 7.788142671258835 4.876107077041828 1.560912457471557 2.3150027744790584 0.41879850930142715 -0.20439473090242863
P 6.294976882648814 3.1187355808531647 4.824607673907097 0.041469065778064064 -0.4914375729243923 0.05670619444279266
P 8.523346734542677 8.026458758419608 5.423612318911017 2.5697754436134064 0.5167817081161359 1.2052981950078339
P 2.466954657376797 7.057831134668134 8.105636148736936 0.5327060926558761 0.7512786577205837 -2.1693160989407994
P 5.009076315766393 3.3847574536436547 12.921781048725764 -1.116118196307052 1.7058976369371524 -3.1938767974538287
P 0.5823821002409934 7.1017248826707995 11.981571777465188 -1.3285388828377505 -0.5216410930909661 0.46524008859341814
P 3.228076139525629 3.360906386014593 6.915832960318954 0.1799034306292837 -1.175696312981001 -1.0490157462315999
Ni 5.650182635548636 8.078015611678387 10.25241014541402 0.8606677843793887 1.2128646945011823 -1.8690619004348843
Ni 2.2242093509748857 2.5555297760505327 8.889462475878576 0.3682326234284174 -0.1300361134851954 0.2709919592066881
Ni 1.0206385183132145 0.9723248172184493 5.333438789527874 -0.14328063719992742 -0.7209548099260615 -0.7867526822574774
Ni 8.51679556717137 5.2418234473541006 8.576059076586748 -0.06063304030102461 -0.7693242023683847 0.3869983340716948
Ni 3.5284290945094647 9.08203992476281 0.9584932365463825 0.12199370279669314 -0.49713925129486003 0.2817720805413277
Ni 5.533243834663338 0.2506623041417205 2.4857556737790367 0.09855141261335286 -0.14600497810962595 0.1702221987857778
Ni 6.274869339231928 8.977601158932528 -0.13525705092255041 0.01787765161136921 -0.26657917485097316 5.391747310993553
Ni 2.503926592046554 8.068471478167146 12.149699565492375 1.7383891818069546 0.8467781708814901 0.5422669968714339
Ni 4.678108004354267 6.184468789197304 7.228964861443909 -0.6734490510356145 2.0614727195025595 0.41992799492018
Ni 1.0425251623457874 4.957954971512495 0.36678661052639766 -1.3098616181432217 -0.5355139944183165 0.3853726255428137
Ni 7.501726004431219 3.162175287552869 7.26228593339189 0.010204965557459844 -0.6213219913230719 1.6689735102172933
Ni 2.2056677867457672 6.8212385512288085 1.0181264653084598 0.9490491984382752 0.008203104636082646 0.5264626828493256
Ni 8.279860136217563 3.349388562757824 -0.041685624686425025 0.7617674730670494 0.7144802579453114 2.9204448613470797
Ni 3.604698767258028 6.9588223321753135 4.564923847059995 0.21933721114487384 -0.4745341123008344 0.17172449436291717
Ni 5.674589672120099 4.225465889897385 6.755611977267634 -0.8963798930690176 -0.016832241065990364 -1.3226112044994058
Ni 5.619002044028902 0.7779358361968878 4.840977252801231 0.41826166296135064 1.1874614239367292 -1.8924054602568314
Ni 1.3504578272443752 2.6647776732325967 11.367826542568373 0.4207332644302948 -0.088292453889506 -0.09175187319301617
Ni 6.532208830371901 6.99098513549329 12.071244008185264 0.003248588844284728 -0.4083845130569547 -0.24382799719738654
Ni 6.989511817795924 1.8490415086417726 12.54688841101914 -3.061331287283218 -0.19628290042857163 -1.12331677093802
Ni 4.203746036547533 2.7186881283475457 10.81763133763286 -0.0810609691380733 0.037522165315174084 0.3766509293990997
Ni 5.891334164315659 4.274048309314312 1.0237454580863397 0.4768882143553077 -0.967432071820837 0.758249689721778
Ni 1.4756249684772267 7.601253711270281 9.945259543494412 -0.7889710300650348 0.45398482739457297 -0.5866961737190863
Ni 3.6173377945486425 4.564430887931064 4.722337186952183 3.0972701672716725 -0.9439707554741034 0.7269976736860317
Ni 3.9288842575728453 4.315384600181926 8.624488604544515 1.7621747142623265 -1.092277128023396 0.4606465556854647
P 5.09327781209323 7.57955239021851 1.7722205000253264 -1.5232140724595702 0.6779518240019743 -1.0340141306164452
P 9.090638911071967 2.038395264274977 3.897093026831374 -0.3296763604217742 0.2723546438821697 -0.42755311556560555
P 2.639073375795528 4.37498447080746 10.541605730338745 0.14929933259018158 -0.9519787133802444 0.6535679958409712
P 1.6613649259848156 1.668750046769727 0.5862914885209859 -0.9784029690100442 -0.5517091161209402 1.595544346592865
P 1.2271068512233712 0.5524959897421544 9.381611743382571 -0.7654629196407655 0.5261014428551648 -0.9180378376584254
P 4.025632119699896 9.035421928942371 5.972382390124172 -1.7115486645753424 0.023834126305120242 -0.37370881605164025
P 7.246202678503094 0.901840001315582 7.548497818325721 -0.24924608288916433 -0.6350072021196483 1.6005004050465599
P 0.6052518826867145 4.201939137484725 7.1330815310222935 -0.6384401390605973 -0.1857300646133898 -0.24818473150418546
Ni 4.371991504667528 5.6418153029654805 0.10629662871281143 -0.6241869715756928 1.2471853221599232 0.10345347790066053
Ni 5.5393316945826445 5.848700612582439 2.789000593878268 -0.9253593110205032 -0.16917113181344415 0.8772562848656892
Ni -0.06126499760802818 3.127195574926721 9.242520359987251 -0.8452079981808928 0.6170542171856535 2.398894271087391
Ni 1.1978906833001273 8.049244218909063 3.585439076478307 -0.4416389042347104 -1.4647160762236775 1.602418705115195
Ni 3.24714587425003 -0.1248956430659784 3.8353452628583597 0.8427981031878193 1.2755826423556935 0.04982335128003033
Ni 0.1869389971933699 4.884863587884666 10.952912480542915 1.96391195293725 0.8002751422239444 0.47574921565485806
Ni 1.748401863917905 7.909788675856471 6.009284828676129 0.315131886948696 0.2233895268373766 0.7822378251062593
Ni 3.673722311457282 6.251898555761671 9.778610632854017 -0.04316419409229985 2.087081421209599 0.16259913502288126
Ni 0.2869865349935788 5.982105360311885 4.964105841245273 1.0265908415691805 1.0841681257630167 -0.8639040319284993
Ni 7.7870214672249904 1.4256804251514146 5.628939988874345 0.3164608901727647 -0.28738119919798893 -1.8693539777540065
Ni 2.8775099228938203 3.371025020766316 0.5464665065618007 0.9034673960434181 0.4398774414589134 -0.7170025101465329
Ni 7.3528838524010665 1.8431389717032676 1.9823359891976426 -0.0258526993970458 0.9800471894816863 -1.4075015746858988
Ni 7.546407375102288 5.091860091290104 3.6464279428449418 0.08343358313530794 -1.108788238304542 1.1883155444069085
Ni 5.939768325347945 8.258093952122511 6.161137552529389 0.7188480479957039 -1.023800937528869 1.737598053364227
Ni 0.6034718554561229 0.17004402764866614 11.448276175148898 0.24708455646147123 -1.5571595761670796 -1.946794576530673
Ni 0.08411810098547723 1.7998382572391636 7.598812080998231 1.4458068980240004 -2.371903344320844 -1.2949744166187438
Ni 6.976594806034108 7.498140004752724 4.226051510516715 -0.6589056060038007 -0.46773791531460734 -1.9525975563656954
Ni 6.576065513778407 2.9810220738201 9.65122332231117 0.005226795616578095 -0.7431290320302557 -0.7321843600932938
Ni 0.3583423689062098 3.460035648444934 2.403352736980871 -0.5870808107520148 0.15671413699701398 -1.4333280488306992
Ni 2.6239602867112235 1.0342504912530324 7.0232026090906015 -0.7849611375746932 -0.6327191774164199 0.8918228698259543
Ni 3.2352759373297397 0.3768848597502326 10.202339582461263 -0.6794304654300298 0.38597477790318685 -0.32846948459786657
Ni 5.117434662640613 1.8562042418497229 0.594126944149243 -0.21806348663877284 -2.2714261754396885 0.42447319108870124
Ni 2.3883962458153434 5.79755146988142 12.255170580325718 0.4074026087596596 -1.316190902795359 -0.8304714633016665
Ni 8.749209117393637 6.756634960121654 2.5710190707858627 0.4374415783239112 0.279691286752899 -1.0997065877182481
P 4.430525768153456 7.204690330803717 11.660127214036415 -1.8171233025840638 -0.43569528505676575 1.6335095129827286
P 1.8340674117930689 6.099720590077104 3.0655960693383473 -0.06344685560073589 -0.6228435701739209 0.3810341460684599
P 8.438922850638878 2.9521116888151773 11.389254512223465 -0.05526791933436933 0.41999432938174125 -0.7863716447689747
P 7.16318724925338 9.10085947346313 11.68537932340033 1.57979428284746 -0.16083715802645204 -2.3423202313470886
P 2.7630729822493345 2.6599870741788965 3.30553465919603 0.35364469831191353 -0.8562606564506284 -2.1979368480012855
P 8.082556024708005 8.877461886256821 1.2263840915982482 0.5178494872590178 -0.32951720913609056 -0.24796875883863748
P 6.267725138322058 5.217286684696077 8.845277770796052 -0.4308451560533161 0.1034125973603961 -0.29570925944771004
P 5.330509759816318 1.2639212613594477 9.4783086416899 -1.2235823380290023 -1.5186747898283202 -0.18288796717890438
