# total energy = -340857.84838927054 ev
CRYSTAL
PRIMVEC
9.39114401637164 0.00000000000000 0.00000000000000

0.00000000000000 9.39114401637164 0.00000000000000

0.00000000000000 0.00000000000000 13.74488853934313

PRIMCOORD
 96 1
Ni 7.658759561700312 8.297216477818905 13.143316241453329 -0.6129854464329184 1.5700783411112766 0.3052616790228356
Ni 7.286945393531344 8.939617674363618 5.711221328240747 -1.1368574857369325 -1.1448217348893317 0.5404813657259208
Ni 5.798543001303121 2.0443675005776645 1.7228663857014128 -1.5088068958953047 -1.3342135646250246 1.1010710721659422
Ni 8.771403505333446 4.1486880636323615 6.847923504244442 0.7517926212425247 -2.9542530681457766 -1.9449482673505536
Ni 6.344177851393675 4.190281439840191 2.284373208049554 0.08790730263594537 0.9554005945775997 2.0189659564886004
Ni 0.9496982063149945 1.7500114870626073 13.35773577744673 0.3155625467282114 1.1115580877401952 -0.7121732070786896
Ni 9.23027357719322 2.1274321681229895 8.21878352243111 -2.5878559552642013 0.47209542095235474 0.9218926926281413
Ni 5.394573556517399 8.121461220259745 9.644059584668046 -0.3519709101539164 0.22251972263791353 0.8412657257036931
Ni 3.5955590807321784 3.864220924614221 5.485694886390268 -2.117796076684636 -1.4880205552775727 3.076020770974593
Ni 8.497191495423218 0.6034364015065775 10.637636032494857 0.2556812969915468 0.5220190452556752 0.90815400288581
Ni 3.4069849117881272 6.608097167620502 0.9862992504406194 -0.24243960149029212 -1.4135644930505267 0.060156100664606076
Ni 4.193202085584295 0.6212880268923219 3.245223397712211 0.9665411845754517 0.8008788372462142 0.0409198781428134
Ni 2.144308053660463 7.573675798222568 13.025000037156746 -0.40849789870636743 0.7642277616820838 0.19635437709645537
Ni 5.489574367923674 6.53830218636591 11.830184523760485 -0.28491191172188995 0.00031496013725752206 1.1072833716242414
Ni 3.732557087532767 6.261855084214216 8.221710741975922 -0.097943860936341 2.0466996749584427 1.1220407324390742
Ni 5.896558369892218 2.705945412908421 11.800810903958531 0.5953319950172133 -0.14075324279238338 -1.5395218084806583
Ni 5.587627301088258 7.762353269749208 0.5338733815056177 -0.41105640346216304 -0.2717077543267902 -0.3000515955768059
Ni 3.4463619780422308 8.415244373998627 7.307991886062246 -1.211856564951642 1.2719381036245705 -0.35791298666996424
Ni 0.5506450253461147 9.208148042231457 8.753638278471321 0.7692439839497527 0.027990314565338893 -1.1921048362460114
Ni 7.478055171320759 0.18054380181934734 8.428200396084046 -0.598704511033872 -0.38191603445278094 -0.4078324972082267
Ni 1.3929132413406176 3.9660960533345935 1.702882031542402 -1.1538450214338645 -0.2987228494630533 1.2727315460601434
Ni 0.8602391089074178 3.0038512788069864 4.6153546631344335 0.8423970110946589 0.6351612111990094 -0.03378223865676763
Ni 2.103080932063631 4.755694038924578 13.566561948150134 2.548313931305521 0.18028395389715404 -1.3599078840673353
Ni 2.904502367788106 6.9688861328840765 10.862516363646963 2.479560061669575 -3.2948599594371255 -0.5108298614080751
P 1.2148571535328876 3.703989227875008 9.109177594310607 -0.6423677562497776 0.9588954951047356 0.40246711913125527
P 1.8878171322361637 0.009288780403514007 2.7894289254704248 -0.7222835560398142 1.2086164607477894 0.19238947891143637
P 7.9631359257264895 2.951476869434428 2.0354393400988244 2.495554380215302 -1.387359809630701 0.05796732054340339
P 6.284121486334054 9.696919516178772 11.326791038804908 0.5774615424946958 -1.3488801654982638 -0.09237408015804736
P 7.803223527878915 2.6593653393047108 4.9094683851376 2.0789806464793354 2.6891029124318457 1.5990521026358075
P 7.450144691734019 6.147198608684438 13.031185044510657 -3.643953805153563 -0.9765142366277634 0.36868179515069405
P 4.972479204059264 7.991825870254581 5.140588192278072 0.6217104850107422 0.8041227981048087 0.26896978657033677
P 5.74938036313469 -0.10074819145576612 1.9760478680253197 0.8646085141946915 0.3452693297640247 -0.16918398732925058
Ni 3.3534460005754756 4.085682879397021 8.274477701162319 -4.125931518216636 -1.8336614094484036 -1.8636754393119903
Ni 3.9378944482878313 6.217143848240977 5.744496968321398 1.2412126495162559 -1.5088151234254208 1.0942229388958573
Ni 3.1872321451899794 8.981004445406269 1.1604317183387463 0.9367030181680964 -0.41816190415869275 -1.467636335194266
Ni 5.152610734662643 3.9455388393994077 9.294073252200107 4.175997581635091 -2.149138338441344 0.3011615408115329
Ni 6.956471040685668 7.658468436240288 2.967947057556643 -0.19421033417025907 0.1646876421207938 -0.3365118952863688
Ni 0.15793462294819177 7.041968014493768 6.13065986521196 1.1517295177527582 -0.11670700047645707 -0.4949353016650057
Ni -0.24827742699409688 1.0602695342605752 5.63532210346954 -2.482410386634176 4.965730686677133 1.3626296538738727
Ni 0.8564854687018931 5.38024267096916 7.983306224534161 3.030486533988219 2.5283174335789362 -1.6326656769251946
Ni 5.326130899980334 1.0343218037430248 9.576764525912107 -0.3561193851046512 1.5683302480719183 -0.8341537972492602
Ni 9.176058503621803 8.675557490978715 1.6744437696700725 -0.16606755318745595 0.19008217093449845 -0.16651081137246163
Ni 7.506641813266262 6.39406360764023 5.048964436208065 -1.1156276298238788 1.1232576355653108 -2.134644258590227
Ni 2.716914268950585 1.8581505087454138 1.4935196265239206 1.4132091665936373 -0.23811294909048022 -0.40784766671687817
Ni 5.734401488659302 0.8862140737421964 13.257206399643174 -1.423832193525122 -0.8751448949496412 0.9344224496640359
Ni 8.568094631654672 4.71043811660678 9.21473780788624 -2.2453621313627847 -1.2948088375751572 1.0736294310152221
Ni 3.1558751158023206 9.273322580701164 9.700331318747367 -0.19055114015111702 0.23418404634971926 -0.9965012212726514
Ni 5.453446637449185 5.286021324504236 0.30630248763426676 0.3140479098558978 0.17797536036863543 -2.2711731788886174
Ni 4.102389724344803 3.132641425863696 13.192481696964922 0.09231160235122811 -0.06962135984256397 -1.2933736477905273
Ni 3.9687161824748016 7.570755152478464 3.0631582305856457 1.4359878550510494 -0.2977856823607646 1.2380725612253773
Ni 3.5620796528295116 2.914569674018585 10.552101494111271 -0.49869271182490893 -0.49369423016905306 1.6597540485015545
Ni -0.0528965569718259 6.64245936304711 12.677184937151944 1.638784645338739 0.3434711002130214 -1.2271800826825898
Ni 2.54063310733461 0.957643114030466 4.728654118374747 -1.7991101538360952 0.5775813559020117 1.1892470550822423
Ni 4.87804186128529 4.707883725473673 3.9848764628492503 0.3528224595209343 1.7713638369607623 -1.4297274759636345
Ni 5.657929404111922 2.58639615142148 4.68219612964137 -1.1712099950748731 -1.050793664067629 -2.7202528556720895
Ni 7.713312716451109 1.2184727439234981 0.6147996855913533 2.0474766623337834 -0.9905105509068555 0.3771096142030731
P 4.196780111399418 4.940342709730253 10.997711270824182 -0.20490406643867934 0.7937378553260589 0.7291203764559895
P 7.032914951801434 2.3075449164386255 8.995919460103327 0.6838663897141964 0.4698631891877263 -0.5746351287894942
P 1.6971487382087194 5.37854287392838 5.800026802034852 0.5819951686989913 -0.18824948860113386 -0.5167143452133101
P 9.019038578086718 6.668792130463401 3.516423667782779 -0.0722035187474434 1.553567487940447 -0.7603721353814195
P 8.719949428060316 2.8632188993280443 11.769005917008194 0.8078416417172927 -1.6749376982205282 -0.16829078609101983
P 3.0678049685733706 1.3177840903668918 12.864266853334781 0.47957038917316114 -1.1783905719837124 -0.08622065896214183
P 1.8120399923352897 7.203091869900795 8.977665893759873 -0.30777698924552155 0.7776108678572091 -0.5000831644145324
P 4.452848431349491 1.289328924435593 5.7615268686183665 -1.1107836714680162 -1.2786836498785206 -0.00431456821495386
Ni 6.009496266093471 2.114472389580022 6.954597507483261 1.0357061736068873 -0.06982987630894426 1.4033405013296736
Ni -0.031750518315883644 8.742168874460795 4.455130479310317 0.2935130231273396 -2.7105158308899835 -3.7743974384898227
Ni 6.573246632712565 4.298138727206846 5.76247537414941 0.15395122953989615 0.7243707775861461 0.5078887765018801
Ni 1.6154833511002797 7.296937570610849 2.582897950329266 -0.9920223595656914 -0.0534465498549144 -0.07782832113338854
Ni 7.36322965520129 1.026423851746912 3.864554310221667 -0.3474840780271564 -1.886692469032454 -2.363305318239188
Ni 7.477191186084561 4.473940940485364 11.564233903114207 -0.7313158414454114 2.003745282884104 -0.41152408712720095
Ni 9.306548447719294 4.135014558155143 13.368910299539683 -0.7743792482937889 -0.348876844609625 0.09593865758085413
Ni 2.5112482181600106 7.690079026512484 5.0181079547887695 -1.886060748985726 1.479545427927026 -0.5422983643300016
Ni 8.785321180551328 4.6015947591335955 3.4398510979959704 -0.38016408475868074 -1.7750898796620977 0.9212805129654392
Ni 0.5783348130518685 1.7879986640236973 1.8616900308706632 -2.913183037578344 -0.675575610460314 1.7362281695998938
Ni 1.7600036641421126 1.716062501966355 7.20502926288153 1.22820415307173 -0.34448360063793576 -1.3921585165709252
Ni 1.4098266914535775 4.6457331353306595 11.38354359945046 -0.2108224888056434 -0.6349701782341258 -1.3289008941628597
Ni 6.014116708878355 5.922656358711716 9.700950195128513 1.18739894612991 0.34671660373351254 -1.1541432694005735
Ni 6.84394635481477 3.3988052254758627 14.009065134470282 0.627532491009158 0.36657451899970417 -3.3954134900821713
Ni 8.269155739930218 5.505905567116588 1.3278053799923994 0.039098765773674604 1.0451372371127998 -0.6657696801134857
Ni 0.15407955838885246 6.472282444947749 10.363742382361883 0.15322952088252323 -0.8735004173676828 -0.7655282256610622
Ni 8.626094336206389 7.299989692369157 8.224927208751986 -1.4100436243814618 0.22287659175670005 1.2225083882385335
Ni 2.3552613184508133 5.260543151180271 3.363195886143091 0.40085735144197415 -0.27199777476338316 1.8698838821155477
Ni 5.644763020403776 7.738847236638303 7.352044802850076 1.4746050532026154 -0.6528210903726176 -0.753553055577057
Ni 7.501035300374847 7.608413639404045 10.81097307050705 -0.09980148297037006 0.5520914391610233 -0.2811555300032513
Ni 1.2929257325384602 8.355169226651261 10.840084677394982 -2.121883873600765 2.966366820690175 1.8288912417532697
Ni 1.5754864693506425 1.9075948812299968 9.865806091110159 -0.20362160018182998 -2.6454787479839923 1.2195058539667836
Ni 3.879162234514121 3.77712745634793 1.513944425330515 0.6412459839405086 2.24856881122554 1.9888089732892456
Ni 4.056598506826318 8.698331014867627 11.88198889070003 0.662023325697176 1.4298992256548084 1.0295807774354397
P 1.154490880725499 9.22480793145988 6.182849269050246 3.005617538660682 -2.9248823282931435 2.291338083872267
P 3.4406052068488693 1.8476136453213485 8.517473548842963 0.7236629528858439 -0.7117533459324517 1.0492294049043027
P 3.2037699495480707 3.150221647191548 3.5412604259803055 -0.8635613038770998 -0.8537170640931684 -1.0269662226307281
P 5.184709664416167 5.923783295976322 2.2200053688384274 -0.6082715858970169 2.2328714550949416 1.0217803075544143
P 9.508720992989591 9.34068525569298 12.722818383453387 -0.02235831309054214 -1.4390978614349408 -0.6099916539119172
P 5.147905771582914 4.944221252149271 7.266730017233088 0.20582812091484554 -0.0906694387621148 -0.08937771653388478
P 0.9573613797143146 6.275923017734046 0.7001642442708621 1.0244357428993904 0.2630328522606115 1.9041260911278692
P 7.699310520938381 5.826763388637627 6.961029501920999 -0.7277006132903274 1.3474737720690406 2.6885298135371953
