# total energy = -340862.3131581678 ev
CRYSTAL
PRIMVEC
9.34995527758239 0.00000000000000 0.00000000000000
0.00000000000000 9.34995527758239 0.00000000000000
0.00000000000000 0.00000000000000 13.68460465670798
PRIMCOORD
 96 1
Ni 7.480011040739627 1.0463161049306051 1.118625854726879 -1.3903759707492056 -0.8774306056600244 0.2521331746289722
Ni 0.4762829862449114 4.182431383247218 5.456585330489478 0.2166486085691172 -0.7628969586858022 -2.236347843679316
Ni 8.284593399697043 5.735402869426189 13.00628626353247 -1.048700014763394 0.3871088915076301 -1.3997029045770861
Ni 1.7008503802113057 5.982662439019329 9.184778117252788 -1.27909476927401 1.4219781710355186 0.3088421972852423
Ni 4.875496824581741 5.126664675516909 6.84781754880496 -0.8295754338499584 1.3392719529845387 -1.0066071993584018
Ni 6.137656649083442 6.9383774764756465 7.5630844591505975 -0.07587042607606932 1.3461481112790816 -0.6207905442996341
Ni 3.474882861054319 2.9004777032405573 8.956313827931766 1.8495073753417244 1.15667117802875 0.35205935610266464
Ni 7.166076939447919 8.914621441969475 8.46496806359593 0.38713074588450097 -1.2454670539172357 -0.6952396645481446
Ni 1.437144239133412 3.245117057946669 10.021974990509875 0.8245504698315412 -1.0176806835637442 -1.3353559057595838
Ni 6.082304913330317 6.029113017266208 1.1330481608753917 -0.21377951455143826 -0.7119232958514127 -1.7496043337964835
Ni 7.02306002220471 8.809088495779354 5.484461287410824 2.521844424260083 -2.4097430408764366 0.3360370125324793
Ni 6.45754667194183 3.823935394692098 2.7393845172927005 0.2135278035519484 0.7176812813811124 -0.3450471864508896
Ni 5.857101888440154 9.115121884788733 12.023649899597439 -0.48071453007993337 -0.5711463989099455 -0.5052559668647234
Ni 5.101934043579913 5.112209644524623 12.173714813193808 0.5572570425223629 -1.9845820796920917 -0.2725202229257565
Ni 1.3146130740920774 6.7031606493909575 5.526432302042952 -3.6504191011629326 1.055836368697859 1.2221774872616755
Ni 1.9926063873803102 2.379114842205086 4.5316980308628265 -0.21769838998987023 -0.7033913471210016 0.1193719489031299
Ni 5.314860577077533 6.889149961485748 10.446908956892862 0.3470603602261765 0.2296025976266239 -0.9643755443827002
Ni 3.259581438894318 7.7028765767888645 5.84455798832421 2.3818653406295622 0.7752277123370133 1.284943257634987
Ni 8.155947363847845 8.276346739066256 11.43496548995223 -0.6040531769402951 -1.0625472050591314 2.635872849463112
Ni 7.199334730676611 1.30954539828495 6.853263897804318 -0.10670900872348074 1.5774666631555478 -0.3109489592156
Ni 1.330040500442188 8.667081373715426 1.809515561448268 0.5696253342797287 1.2235283448626153 0.3806795909425185
Ni 1.5517559919816895 8.205156178927018 7.608516827258368 2.764543192949032 -0.35890466115927216 0.9136528212168523
Ni 7.435196704681397 1.0130770136126392 10.37377921601119 0.23908431186481408 0.7907494621216962 0.5929406119669014
Ni 1.8183980190437863 2.543309408347083 12.523438673626702 0.27115676691932655 0.3457087312942885 0.25942045231900485
P 3.3919487569782687 0.17059274059737967 1.221433288928481 -0.8214119242025595 -1.3156471144767472 0.9062552432012007
P 6.1045110573191135 1.7430373788123361 3.8266805415868816 0.41579777480189034 0.1352629091017735 0.3352795655411645
P 5.281892634465115 7.284774622790135 5.190995173405798 1.3043342605670891 0.7639171724202004 0.5693224583273291
P 8.106785298545493 3.789742607927035 0.8178518156095825 -0.2435901701549676 0.1090800800588186 0.2435734579844192
P 0.7136587180230798 1.4156206418861665 2.8836197337198 1.062214504310061 -0.33369987975887044 0.5857518075279461
P 9.054263025326387 8.352791974119896 7.006175872808933 -4.361229880676457 -0.648479011353838 -2.0082431707544575
P 4.806503503952974 3.7375979068636602 0.7031783530559045 2.5729497275763302 -1.125128113115146 1.4598916582518406
P 7.324745681969967 7.800452710964475 1.542118057992784 0.819565100801808 1.0631791822161756 -0.10179460214099888
Ni 4.0669500845501165 7.830456717726598 8.462614679830885 -0.23062461113323507 -0.6637521354628246 -0.5288365823981408
Ni 6.029010167757207 3.1680734257497516 10.473485270018653 0.3630207402101748 -0.5048013958258081 0.30562111924478336
Ni 0.16613468187996583 1.8189590163656084 0.8346938902062218 1.568615640522821 0.7268364655178192 -1.033724110179852
Ni 4.110530226500338 7.912521275953824 3.4567719975148252 0.2428178107653173 -0.3772826494458276 -0.5311734580614337
Ni 2.1300881310482063 4.473691842781947 3.3737883386753476 -0.8544089479538703 -0.6629003289854906 -1.1922346769556564
Ni 0.5331877495839473 4.877955862842395 7.475064914352228 1.170144015704204 -1.1898579491933636 2.9604273152772884
Ni 1.8176874224361448 8.82617086422884 4.490438547833876 -0.8250922012676241 1.3202064517126553 -0.8982308302348272
Ni 6.7009634098804876 6.698803570191472 3.293979924677383 0.122933183891827 0.5075074819030615 0.4544602243690948
Ni 9.212567119589252 3.467963894085178 2.731994312573229 0.17130231922383402 0.6200757776207967 0.35729103681524915
Ni 8.71748698308115 5.93613706112954 1.543390586917784 -0.9306524410986424 0.46602967437424897 1.8656734435786257
Ni 5.4671246001754445 9.039892143932375 0.7309944702629225 -0.011884924363044048 -0.5437914039357602 -1.068819154110772
Ni 2.9869086906226325 0.6867299115800772 8.918284754480975 -0.8256401033512942 0.786228177212575 -2.259333248830896
Ni 7.546320924179012 6.6212269905388235 9.66024952737213 -0.31070136198116816 -0.3566582883272567 -0.8710177601551452
Ni 9.16621004089601 0.9415779049463984 8.304502259652976 -0.046122248279359276 -1.2700977079817224 2.124055170220471
Ni 8.09017042786419 3.5302626466735347 12.237115925519547 0.10765954556220814 -1.1401132736700685 -0.4095258257502496
Ni 5.156491033127122 1.92625910411947 1.8624746436238209 -0.2136260196927095 -0.2980700463704028 -0.6067667192167163
Ni 5.067292458957391 4.740231020335042 9.144463914711109 -0.5743715907154625 2.060170198641052 0.9241881735305373
Ni 3.279038696006185 0.7785072034391182 11.274854984313098 -0.44152757546782667 1.7099018730005389 0.960833592667713
Ni 4.212257740857432 5.321863693644946 2.602606825263691 0.466485530964745 0.15472487448112707 -0.3539164639160614
Ni 6.013386392344459 2.182036483048943 12.767531413338155 0.404238094988749 0.2910969574866793 0.2649220988635244
Ni 2.747605933044005 5.176116589435537 5.385753808636205 1.6452465989139986 -0.32350005640773316 1.814563255166372
Ni 6.957208286578146 4.795536006311348 7.733292916582529 2.185253596106662 -1.097733266041961 0.38045436230558993
Ni 8.531852969290181 6.1455480114104075 6.420762077549948 -1.271648854518926 2.4494174766479238 -0.6855082961929936
Ni 1.4290845776098995 2.5121460071198594 7.832383743527059 1.1441229090500942 0.004096024446244559 -1.312678004546094
P 3.8770898909347524 2.986076544595263 11.638058675393845 1.1558605092019965 0.877957938918404 -0.7736290003913258
P 3.1266063737117267 5.181801362296668 8.085179421691047 0.6597653829009348 -1.4392048193264504 -0.9302971146417527
P 5.717441605172515 2.9874229381676365 8.000074257979545 -0.5403911200049597 -1.4776099014672102 -0.35723267277348797
P 8.85815706152807 8.235571583725145 9.552538041582265 2.7432811982464624 0.8178532603170237 -0.4928231404180093
P 8.425450477251236 5.2009407209261695 4.191854268262759 -0.18666851726725917 0.4097788223013201 -1.2725811365252084
P 2.475391332585141 6.703403748230414 3.7350621989690236 -1.3241181280622356 -0.4086773617070252 -0.6002152912514437
P 7.778536415591954 4.711853905806202 10.35178812099576 -1.1472172317047016 -0.2976082762426358 1.101456223419503
P 7.791430004038501 0.6909345865071347 12.684999357342745 -0.037427291608522636 0.8998477970129598 -0.1526690203933629
Ni 3.825964335006022 1.5421442378678023 13.426567692126477 0.7829276520844323 0.959014022960471 0.31647708812268077
Ni 0.3246042703527675 0.8581445132539265 5.985728289383087 -0.17428377044966115 -0.31755155213378217 -1.5110175303933784
Ni 6.0015493488540095 9.101022152100269 2.9589813089467865 1.3035824700027292 0.5949427299985948 0.7481617093581567
Ni 0.8534209158041836 4.473532893540764 0.49873690405084536 0.07588868090851446 -0.9245190745073949 -1.3752352584530252
Ni 8.555059558502894 3.143613942518303 9.336923395917582 -0.11183758819929772 -1.0702299184153699 -1.4869080389396843
Ni 7.878543538162126 2.8243690665800107 4.706313122257671 0.5552487538430824 -0.5683125290055762 0.12532790937624866
Ni 6.580049787117074 5.580857457219534 5.280368591740831 -0.33528882151254513 -1.2809446779985554 0.710230481530022
Ni 0.2411306738522317 7.606880585069721 13.56526119000951 0.3816578956953879 0.20025268370959706 0.4552189569119902
Ni 4.075991491386818 7.262652628399612 12.327474829149912 -0.1800165591683803 1.7237048403219024 -0.9588145053551551
Ni 3.505700313933086 3.350837003244064 6.455698185766426 -1.0187556617954778 -2.5560364967607594 0.927636279980138
Ni 3.8956215024656133 7.140635710903282 0.8987859642333366 -0.5359192002765351 0.5469345775504322 1.242486116912041
Ni 5.26926084476875 0.7164281748018088 8.032835566578425 -1.149111363403621 0.7435843744001194 0.41615747213415427
Ni 1.8201838605182539 0.315186060314909 12.96676493720563 -1.3994139125817577 -2.1991725201806 1.50760979026341
Ni 8.456529728880186 0.13765191285551584 3.606180544244662 0.09340046454003269 0.7306967198041738 -0.09777365390706387
Ni 2.7603499222047327 5.260462536771506 11.134505609335156 0.745353036264768 -0.6132811232964664 0.649534706311862
Ni 0.8011462503612535 6.708031976135447 11.314896168158159 -1.3125862161632362 -0.3539596584491711 -0.10499588268711596
Ni 5.71394472186649 3.207661136759673 5.539445569918154 0.4864758580437429 -1.1378352762691695 0.8107238483610941
Ni 2.406454111688555 2.9402711132684796 1.5733188590414626 0.5337227068458485 -0.7883537081960101 -0.024949727966802192
Ni 5.077072512267825 0.30248695093992684 5.287703631723656 -2.404021050790995 1.2717290729375583 0.28746038917535655
Ni 3.2700346889909384 4.756939390569981 13.687752150242781 -2.5460133081968026 1.1913275917603545 -0.5290561546081146
Ni 2.1675440522352027 8.315756800924266 10.009686344175359 -1.1732915601942502 -1.437510719453479 1.531743192976504
Ni -0.06567969644787168 7.297621461459864 3.6149115325632883 -0.022612595193193315 -0.8550411822212306 -0.40298982440394465
Ni 3.4875333506614097 0.872308760634401 3.311003388408078 -0.06607786546567976 0.3086197968617911 -0.5916352628919165
Ni 1.80957166118045 6.236092979152513 1.7373834608039045 -0.24269876868894977 0.43525254109239236 -0.3906282175147982
P 4.21310858679553 4.005268429015764 4.34605279712542 -0.8433002396352186 -0.21650128435797555 -0.4346928119341804
P 8.896286179501253 2.7127773493142096 6.852962829241606 -0.9224454798078178 1.3138941363413823 0.09515729933013935
P 0.8782936670627075 4.155438062112206 11.664976261890411 -2.0281039142341264 3.359629904724659 2.2422518678685774
P 6.254503041263645 6.858201609231889 12.524259599707635 1.3280462594720484 0.8074721741930158 0.24232287340676978
P 2.4368414666205918 0.7198885932819155 6.593653037175725 1.1297298735532155 0.2899980679955457 -0.285799713643482
P 1.1735035477430642 1.0917568879982043 10.589406951613386 0.12898376096128109 -0.19365394744615683 -0.016304393586978376
P 4.5224892598251145 9.016161957219296 10.20630655551868 1.9553933739432778 -1.6383503860147979 -1.9201854585835771
P 2.2101704987383273 6.64285343729507 12.925725178127728 -1.4086971376558965 0.3143795821637037 1.4333822991074023
