# total energy = -381169.8077077155 ev
CRYSTAL
PRIMVEC
9.24070193333492 0.00000000000000 0.00000000000000

0.00000000000000 9.24070193333492 0.00000000000000

0.00000000000000 0.00000000000000 13.52470134389739

PRIMCOORD
 96 1
Ni 6.279010782688897 3.078493656611002 6.760132550922789 -1.1572597035423682 1.5035263642226557 -0.036152538661157085
Ni 0.1542079103458216 7.832511393777637 2.067358490108958 0.8872370502274849 -0.3713757970430895 0.9864991157546172
Ni 0.48496497618173656 8.904284970653684 0.03288118980719785 0.9652988275279182 0.7770778781718746 -1.0103432693620664
Ni 6.48764735168727 1.2967199848451938 8.106205276830368 0.8631416998411781 -0.4840453942253793 -0.5408564896771524
Ni 0.2506965480688404 7.636617752790991 11.050465724466214 1.6016337473200546 1.2234337282662802 -0.9240508766217246
Ni 2.564618220257048 6.669994123591111 2.701004512790386 0.15654598685026588 -1.0099676311902026 0.20352904046802367
Ni 8.275723182194193 1.4038382020402131 3.231660139845205 0.6131721085224279 -0.6222748421546445 -1.2763781416737954
Ni 7.926627943305871 3.7247421486342662 8.289762580691812 0.9873979734198027 0.9205392639240404 -0.4760405216430317
Ni 1.4023227269177163 2.5313147303699837 12.232402329835223 -1.5496131312783894 -1.6786855952987347 0.6337015959343474
Ni 6.233038290405838 5.806635338866244 13.226021745759871 -0.13751545258137607 1.3892842803469236 0.8347664911325946
Ni -0.0293383046732632 2.0301914627297233 0.4674446052533587 -0.9036735985169534 -0.21629791009791782 0.9685422741658803
Ni 3.246646710294384 8.600663226142233 10.287780691384969 0.48761408541324414 -0.020796367920060954 -0.23381072217070054
Ni 7.852572957746788 8.996544139086662 9.410121920367027 -1.2371356512334049 -0.9475769847681228 0.13523771229079287
Ni 6.044971523984769 0.9707634636808463 5.715741946183907 0.5775204207570893 -1.464275132031517 -0.4792970809071164
Ni 8.49880296836612 6.175311625221462 4.27000547735764 -1.4696610789337785 -2.089812704097833 -0.5780210145425916
Ni 7.48735269392702 9.102276250986714 1.4741793494789819 0.37908730675473423 0.3234092964661398 -0.7451725448228457
Ni 4.445655512546399 8.30618977657756 6.075485245948163 0.9216438098421289 1.258681752835297 0.6832423829769524
Ni 2.456917838838143 8.662566688615442 4.802824352742804 0.3965103873271881 0.5591979682988175 -0.7574076534364569
Ni 0.45015802408473177 5.271053493593113 2.3184449958007822 -0.5531057393581505 0.7975304895992716 1.145286590340892
Ni 5.534746164907561 7.479553541467341 10.209364094497724 -0.14416998178341622 0.2947751776692149 -0.5188043949731194
Ni 3.960084346315663 2.7351184122399075 7.947803935932174 0.8327042092869272 -1.1927242149975652 0.5261857750388551
Ni 2.576067449993473 7.760646454584603 12.426117013298184 0.7170143372210748 -0.7425834439394308 0.7870871827787606
Ni 2.00611019340517 1.3243312023209284 9.709653730188133 -2.1832404223313753 -0.3338793427595282 -1.903731941013244
Ni 0.3870893090935545 2.272288613548591 7.251335925002072 -0.3748267317061673 -0.9931778133263734 1.4833753431960777
P 7.119692884788111 1.436152936816868 13.402248400751336 0.41607596816394155 0.26314829479255325 -0.5969911278871911
Ni 1.127042215337348 4.592314693455832 8.574850249269167 -1.0920639835713257 -0.29313635651421127 -0.7414053644709296
P 1.2757805541892313 3.317319598933748 5.767365127719447 1.1048991876627812 0.7884863771191324 -1.8482583334259717
Ni 6.895938527372634 2.8570309932832036 10.096906599706491 -1.4420708280203358 -1.641800292236611 0.7930058622560406
P 5.337374011606283 5.0525293734906445 5.167978083508413 0.6229667260153464 -0.7017319571407076 -0.004561137008121177
P 3.297757032870786 4.717138095618558 8.333542254398234 0.7250001836400288 1.8145087477793524 0.7532877177308124
P 1.8016504216956293 0.32526901293804383 11.768992215060413 -3.070620683004944 -0.5860246015733585 0.023774990932410665
Ni 0.24046431878139693 7.456303935319768 5.984666702951755 0.009871493477441063 -0.6113844204943858 1.7653045181405598
Ni 2.8473190155164714 1.5651716176723596 0.5614253164626846 -2.114972748303228 -0.09553345172263547 0.8115046923911767
Ni 7.255799184051865 7.539165309852871 11.79804313390252 -0.27269840037483356 0.054579892128409226 -0.3445278236123099
Ni 2.31272592535375 1.9677982430522931 4.099459081864949 -0.10830977755169732 -0.07284423765523584 -0.8883002013846766
Ni 4.85844691008942 6.572070404852703 1.9107424528306811 -0.3255625953637167 0.18688628970502008 -0.07086654510357474
Ni 2.05787660582119 5.615131031313657 11.519258548136476 -1.4817707177131192 -1.0428199018335331 1.3253702553017819
Ni 8.243048060040847 3.474226718323968 11.880165252278308 -0.779406012084419 -0.9796941770176417 3.6099278259171053
Ni 8.325983360189683 8.420358649372975 4.1458076707180425 -2.1069028268109005 1.337151049986794 -0.1490450504875304
Ni 5.0341403765774215 1.205680589071787 9.801797389846529 -1.2416157984919456 -0.0725776142574105 0.20090497258161527
Ni 1.6620418963865926 5.496295604025187 4.672175612060431 -1.6804550284943314 -2.6375204123688643 1.0640261035975032
Ni 0.7671880271494942 4.305584952139039 0.2573452331336969 0.054097553175351996 -0.3265851230909601 -1.5478580962604955
Ni 3.313096598135083 4.252247620388724 6.200480525167466 -0.1346458443430649 0.07359834221244099 -0.8491214743026859
Ni 5.2095104184965955 6.121549221180691 7.1919357686915735 0.0016123387924423846 -0.5883355090947222 -0.7203472582490498
Ni 6.443162612420809 2.198187424479676 1.87356341253889 0.09029997123783803 0.6392685484991636 -0.3608281034342302
Ni 6.129292929428571 0.2874292624556521 11.787656584892236 -0.4370127183166086 0.07716009142177034 0.02307436532096026
Ni 5.011583823077331 2.792041136353203 4.8172555570038 -0.23934682149758135 0.9491373872767074 -1.06260839731437
Ni 7.579251474983306 5.022330759464306 6.154131012244176 -0.6758985410173715 0.2597212713888753 -0.12756091247182547
Ni 0.5303248099244204 3.368938160118305 10.443098410036958 -1.0549413676874153 0.4441938094460801 -2.494144387241653
Ni 7.3471250415862315 3.8217233157720965 3.8392298256475246 -0.8438247446801209 1.5268640105073314 -0.6457181607792492
Ni 8.633495440229007 0.6787942443490802 11.330683543107254 0.7560886775147172 1.4892199749023127 1.2271798255722737
Ni 3.6096122428343396 5.6997296578164525 0.025795419539328557 0.18966925176679594 1.2172815926219553 -0.08582882284036186
Ni 8.817939851479231 5.749315264568391 12.037186956372912 0.2896697381218495 -1.2960679067932388 2.012963459048262
Ni 7.994824323818228 2.345188511361868 5.2795697245253885 -0.7220745253528017 -0.6208720482698469 3.2081690457067844
Ni 1.3337844404326007 6.507219158452199 0.46071645015159074 -0.5688185221077172 0.15490742280557837 -0.631781238983183
Ni 3.5829712990650817 7.542011446058537 8.165741271459774 1.6586032227265626 1.8422738337077627 0.02945352937442669
P 8.702218540753453 5.455165239572545 9.93412331793581 0.4768213656731143 0.1664313642847779 -0.7918316394422815
Ni 4.171585532923634 3.788854138877455 1.2709134764635053 -0.5218048723623401 -0.8680944158607631 -0.12174507712099678
P 8.264708265450192 7.335574164128176 0.12058561624091493 -0.3187386304633478 -1.043575291942319 1.131396205512045
Ni 1.7180035874953776 8.94031446762085 6.975473249197818 0.25564941531234675 0.41306186392796607 1.0266674604433867
P 4.9038742009564595 3.3213208228852182 11.239662628737777 0.43601075941465556 0.15927289886312568 -0.5228194296697835
P 4.769597560682061 7.431363280712335 12.561498841527767 0.8366372257927462 0.1680655574540912 -0.1367808884081967
P 1.359972589805503 1.1614176266525198 2.24784603277715 -0.2622363245012451 -1.289287907756928 -0.5154892145569574
Ni 3.6067383845227754 6.482740538943089 5.015622009836667 1.2536860993929182 -0.2917916695608587 -0.3254985748950007
Ni 4.463351456812139 8.503617374090638 3.4792157733156515 -0.387346718550049 -0.17149746595377563 -0.3914692253588548
Ni 6.732923303982596 5.034602411675744 10.971535344549636 -0.7207424368049393 1.086517856942116 -0.17722691223838508
Ni 1.9618010274760709 6.290700270676449 7.157799691557333 0.24083034802164333 -0.35837192858425376 -1.3729863145178482
Ni 3.1911378135819546 3.6267537449820932 12.640632516887608 1.5940718758123966 1.220108263437473 0.15805419596467618
Ni 4.852865526101688 1.678139199212138 13.305398451581429 1.0546845144816028 0.21112973563341703 0.056952249015327715
Ni 7.171135872635305 6.713933661441553 2.242084455101072 0.4266899962343619 -0.46301094215258326 -0.8159575859562076
Ni 2.700188558806749 3.485149228048305 10.12689082944721 2.362476394579989 1.0232476361285603 -0.16450972178203283
Ni 1.5598674547436209 3.2701735375009506 2.147316436084205 1.9197907942483197 -0.2926023383876122 -2.061621586375598
Ni 5.988788056028789 7.0356764225092014 4.419859168936873 0.2982772772852024 -1.1122628271167039 -0.723105023499845
Ni 5.542009356653186 4.462140924854535 8.911642417559367 -0.37969023044605577 -0.33247834864694353 -0.443027814162437
Ni 7.384743939291625 6.209012465293084 8.39951624608766 -0.09266152949147911 0.6921191166412919 0.08588795821307144
Ni 7.1381096038072345 7.642688893982944 6.267035757010583 -0.9196157236685065 -0.13892801665818655 1.1953277140586833
Ni 0.45974894865570404 0.8167847227437925 5.134246749120303 0.8729481444086385 -0.17983529639550963 0.5565700437576673
Ni 0.375859083993735 7.610605176755451 8.55949959516251 -0.893963570318041 -0.14810814049555782 -0.5067996572027594
Ni 7.751544363147656 4.472767732115945 1.1726432314013562 -0.2537059184327308 -0.3486148491974899 0.2871040342772024
Ni 4.1807153464664815 5.531798380980265 10.621962361369647 0.3963260392305239 -0.3248218605429503 0.3142057755900008
Ni 6.106071045386897 3.5383756713750225 13.154057006985598 0.0814800589533629 -0.052749523787889795 -0.33175458310704153
Ni 3.428078652703546 1.453266716858722 5.931933713110046 0.4401780034184677 -0.7592717032283891 1.227594544512189
Ni 8.496806976741368 0.02301581638782219 7.1290731213542475 -0.03550590621609369 1.2083122992438093 -0.004586333819101779
Ni 3.1823868688197323 4.101208346747197 3.5778787482113743 0.7947143603067153 0.4626103642800549 -0.08551489114436885
Ni 4.360049649529261 1.5166579323485283 2.71370400950287 -0.69235103014644 0.5529360465495058 0.12331910647633598
Ni 5.1356217655729095 8.997837837361963 1.1298837311920298 -0.6733644617416081 -0.7529601591880645 -0.44036852216271904
Ni 3.3631349992833774 1.5394732255036787 11.482931500565991 3.130130922555435 0.6074285211704313 0.5150755240583065
Ni 0.16848202267338774 3.23932807433696 3.813451963441932 2.1224759986588095 1.5566263293714289 1.2214094987473998
P 1.0119677537492204 7.355829782838621 4.072409699068774 0.4012594719763993 0.84514243505028 -2.014280892308105
Ni 2.676125770886129 8.476782375580083 1.38832398750875 0.07237732532114632 1.2648799112262086 -0.17677619785421167
P 6.405368141378053 0.2647498076194085 3.3864502144149125 -1.0008121899431794 0.22353685104851823 0.24582265902991216
Ni 5.465875213151653 4.4321178841655575 2.953483592268553 -0.17782803615749374 1.2539722631747694 -0.09738773132255486
P 5.826798550557024 8.379071192986904 8.183823477067712 0.6863397909553535 -0.5403808355923145 -0.6941302335340498
P 3.314076112543526 0.6280581702023192 8.025990439340454 0.40357706436598234 -0.20548230753965255 0.9272629558011192
P 8.641008130927727 1.8444995567140303 9.263190138749584 0.3481782758807036 -1.125517635244081 -0.21148403364904222
Ni 2.117414448590989 6.567856644756005 9.468589689849113 0.22259428462959083 -0.74719651723141 1.4689218867749088
