# total energy = -340857.9917166635 ev
CRYSTAL
PRIMVEC
9.35911291644689 0.00000000000000 0.00000000000000

0.00000000000000 9.35911291644689 0.00000000000000

0.00000000000000 0.00000000000000 13.69800778684620

PRIMCOORD
 96 1
Ni 7.427204716217867 8.505496176397822 0.08620304412812355 1.1549670508534498 1.0030259097650467 0.8919671087133026
Ni 6.648900897824412 8.77326975201176 11.269131741411414 1.0153684904907996 0.7645206103321542 -2.0570951592601543
Ni 9.152660106583856 2.62472574138012 2.2920467186695173 1.6914938028069966 -0.2818510134083791 -2.2608113760383195
Ni 5.789350621428629 8.183823470310966 8.71016593412434 -0.09702674843871031 0.47536406440129747 -0.6037742122472957
Ni 4.306155865251126 7.533673983149613 10.984349850150933 -0.7913480149376435 0.4931836090812216 -1.6403288498974073
Ni 8.47805525774066 6.275500375428504 8.655168043811603 1.0755405319950058 0.6247227894745048 -1.9045762912914104
Ni 7.944810448255505 2.1598679689440394 6.431406347861909 -0.8724532070500911 1.3811387684216536 -0.013695238098905445
Ni 6.431469989828781 3.654200069324142 8.003047527499772 0.2512078346012255 0.4083634300110322 -0.14779729412335837
Ni 2.3556044535265395 3.113692588325359 7.960213676061085 -2.1849723174208178 1.0569933651204375 2.3695582411274354
Ni 2.349324488854317 2.76076044556902 1.8252319557521224 0.42952180925620226 -0.10494806016831602 -0.5861341305680292
Ni 7.303991996531121 2.2144971102134305 3.636410267760863 -0.7998712219173063 0.6422420293051907 0.45891800303013225
Ni 7.0470562735109725 4.959683992124361 4.499453365044385 -1.0646351979364117 -0.030441861429624992 0.9538317074285833
Ni 1.5596212711005544 4.921002779024071 3.0603812101347287 0.6931275033011481 -0.7580990230765265 -1.295240268685621
Ni 3.80340304518788 4.67274295354662 9.665697655675874 0.4532759742530064 -1.8515989677634304 0.06131026887370731
Ni 5.515371954044671 9.374368129117798 4.070937963426048 -0.8995585479073153 0.9189035280928304 -0.2483791069031787
Ni 8.287831290582808 2.31584694245709 8.834242499920247 -1.6918373021893442 -0.895367135533787 1.0541682369668168
Ni 3.0420579391432585 2.9320790049207774 12.513650403593365 0.2707546463849015 -1.3643697764934308 0.5445249396676751
Ni 0.4056108449233595 2.992829005945211 11.331101234830466 -0.17917940797906562 0.9492440880579006 0.9603147440497656
Ni 1.655477304145116 8.10523500033682 6.89267302872611 0.48665274994123936 -1.4480378442370483 0.09680640489778812
Ni 3.9943851004805304 6.420426236753933 13.151566594446132 -1.970216040778407 -2.470139025465991 2.060303638895123
Ni 2.012125014673247 4.517372322363964 13.484688303191007 -0.7995637179792164 1.613349493095086 1.9118355439569847
Ni 5.37007172820823 6.06020334514564 6.740364699243528 1.0682637958279344 -0.525713720498443 -0.2596855330549334
Ni 8.508893534335254 8.807140381145551 8.893047677309974 -0.41416461007384164 -0.04704758830710607 0.6568865186912429
Ni 3.183286950922446 9.17267924881021 8.885075585047979 -0.7758995415930573 -0.27370601570374153 -0.6561745802258828
P 4.514208942245914 1.6803725441273984 2.478571964458573 0.758493687411784 0.8896736846934357 0.27664735772025256
P 5.939190016961088 1.5163447336275944 5.701768044077428 -1.061328759270998 1.9602571297934823 -0.35848557134398257
P 7.1832594417298266 7.143492571547602 9.968067191663687 0.3722720836051137 -0.7511773562560289 1.5656645283142974
P 4.70617370437997 6.429298675664913 9.011166231913128 -0.3699249235291758 0.08108128085304746 -0.4159602685216836
P 6.460193106936158 9.066640501066129 6.719872921822022 0.03626978096531173 -2.7260990300402215 0.5482908344680105
P 4.672780389997722 4.464951931709542 5.089055943928528 2.2094042252109367 2.7002008221172207 -0.9280247736678082
P 1.267289383564244 7.797114289548589 9.277126011471214 -1.8534347354205885 5.495145767286562 0.22154424609852166
P 4.6223347721388865 2.7226594974607976 8.88382895122631 -1.0368870812888658 -0.34075164439932926 0.750665706726933
Ni 5.235169476665142 6.573934404494307 4.110388495596468 -0.8260612500491128 -1.682969053165437 -0.5577157273263362
Ni 0.5843717707540313 1.1960103806676041 10.069432934399066 1.671303958122683 -2.2230922642209907 -0.5749305485427261
Ni 8.453787078314322 7.75161028323511 6.657080762390019 -0.8446063600411517 -0.4456228285831228 -0.26226126420190965
Ni 7.129397747708009 7.673386818659202 4.379348806710314 1.9283528248857178 -1.0585751077852608 -0.8307298591693757
Ni 4.737882378462667 4.231872587153618 2.9228808688852186 0.22323191821358976 -0.938329498027926 -0.17800081428993217
Ni 7.3209039133160765 4.72109213014379 10.061871707187905 -0.1836616121201353 0.4651382729082312 0.03687219043600101
Ni 4.068921074622973 2.4279129588284616 4.516506604432249 0.8146671492795583 -1.814471981004146 -0.31286185996759663
Ni 3.693386674514298 0.4308645389249355 11.011171195542369 0.3165783895872354 -0.2846018366806389 2.0504195470121913
Ni 7.0789614889619505 3.2047754738545207 11.79990200147878 0.4992380428054176 -1.8534699595338981 0.11969462234987127
Ni 9.306318020128634 0.1626417258977828 1.2226239537554304 0.6161890409718808 0.6210746511989562 0.07335511585338335
Ni 2.2287791163085293 0.5480097457994587 13.383871004464261 1.1278704517469735 -0.3974069309995285 -0.493798359847085
Ni 3.119083437283928 5.915623770992898 7.5003162333959095 1.224471682612491 -0.08326646142982434 -2.0311198182423147
Ni 2.7702786632614935 0.46440198364392427 3.402968725540536 0.7025122869501579 0.9732579344739947 0.15655678548354326
Ni 0.11262475540405623 4.308757698602658 9.021562334383924 1.3210824265597054 -1.0059232859175 0.06975454298631857
Ni 2.6164335674612094 6.405227037606855 4.680828291073197 -1.4884098202961915 -0.3013641437406423 2.410637013445616
Ni 1.0821380555306015 8.149531681102287 2.9367435867279843 -2.341599294020664 -1.2839598106757952 2.0672718426828394
Ni 2.2598700889480563 6.190697454571565 11.823188409974989 0.3149308266814834 -0.6377238297198631 -0.3628813864188331
Ni 0.07045820870624633 5.600483725623196 11.137877672028132 -0.8841247298507483 -0.7106313165128664 -0.5164574920074977
Ni 7.765162278533736 0.3677504260134625 5.126082465890147 0.8348994171660332 -0.7951339643426371 -0.7967930972126148
Ni 8.650524987963779 7.5275156869434685 12.009906453487215 -0.9132057063771047 0.17890378572017576 0.09242318822842792
Ni 2.6433597349157307 4.151496526639392 5.198653962261054 -1.6376554168303024 -0.5039501035691063 0.4449857092197562
Ni 4.458718762601196 9.31108180853126 1.1285031002194081 -0.7661391197721839 -0.8428374410661871 0.15735151347069673
Ni 9.214458328239123 0.44051565601881876 12.29737253829165 -0.14771167638808755 0.805452829770142 1.1275197532757744
Ni 5.333037718956391 5.548437699479785 11.271980655340212 1.0105294172309434 -1.2674870098317526 0.22546594975043102
P 0.8402873504816722 1.9613050323034003 0.06406780650327555 -1.5831364598468154 2.045943770629025 0.6481213709041032
P 1.224864525353836 5.6195856747975705 6.605809670784403 -0.6148150434424895 0.1600128623529438 -0.9266875429136233
P 6.763512592870664 7.772864828347802 2.0680157643447483 -0.2279234101519881 -0.4499664502637993 0.580350948227349
P 3.8049660170213544 8.07944128552811 4.415785704567089 0.03961170085435113 1.8181640851437528 2.0671111487352594
P 0.2891207759431068 2.918180722449466 7.326776756582574 2.039498272113997 -0.3113081423272316 -0.31802257823292973
P 8.398708699631717 4.331902784495961 3.032355346929111 -0.16841188504991642 1.7492405226991616 -0.15167528902152588
P 1.8318965799594091 4.513984323539307 10.634914271927443 0.23258379174213492 -3.713555624612101 1.2830118449402292
P 3.561760112442563 5.419506561887333 1.4994384323103034 -1.6958063141394215 -1.5149484900166683 -0.9020885134180205
Ni 8.60060348042036 6.568552914648513 2.1375464849749632 -0.02585758449305224 -0.4730554708727789 -0.4317393857328113
Ni 2.782342559628848 2.3891849501642946 10.430429824633874 -1.7792054444923682 1.0340789224161093 -2.6886187737065756
Ni 3.1633426815982943 7.118812591159152 2.6453588414045335 0.5722396319741242 0.25115512698641906 -2.1978309185510407
Ni 0.17389793083262897 0.9562299113645703 3.6742304424858268 0.2358611769418261 -1.5140951408774377 1.1174639117016691
Ni 7.44732680868475 5.340833859898212 12.643452874585197 -0.5274510149045238 1.1691186597634833 0.3905662539286113
Ni 9.3274696150008 5.851691671624864 4.42694925428546 -0.8196304068221045 3.6537566501765975 0.19497909401548355
Ni 8.922360418522196 3.646422646607873 13.540425563412994 1.5115068113249712 0.3716455057647084 -0.22093360909771628
Ni 1.5735757082485178 8.243871537877252 11.73627500918722 0.5765914811849167 1.41161971061933 -2.428655047289592
Ni 7.167021381064692 3.7869684431544637 1.1959935342646086 -1.958821682898536 2.4439608244087268 1.8117337561373767
Ni 5.792738620253286 7.465305664326089 12.832046484297594 1.4224643666433179 -0.23735653054042996 0.6312127680742226
Ni 4.019139953771184 8.480254649242854 6.681873988043051 0.9008839515869581 -0.3893544930086972 -0.706867221484744
Ni 5.812673530464663 0.8612059034457321 12.761638814800333 -0.26552527966516204 -0.01865926697240012 0.3270479216599916
Ni 6.506052759535099 0.5837035301018754 1.8107674469579054 0.15411063793589588 -0.30832180600539805 1.7243324466035723
Ni 5.966162979979485 1.1329673970132235 8.245365252276189 0.35907126864412353 1.0178267222233053 0.26443873146920266
Ni 3.192337212976155 1.6356640623998184 6.634780804380326 -0.19681537589327397 -4.000629834092632 -0.8828579473231827
Ni 4.19579320740486 3.5191199946383227 6.863811396749658 2.597161034715211 1.8834024854272726 0.5966378583128306
Ni 5.632267272608094 5.764717436604056 1.20200114875507 1.3097191790280864 1.098248772225799 -0.14080672173813816
Ni 0.3611971752482015 3.918220640715188 5.250747719879619 -1.3621876812404476 -2.6099106210713954 0.9901333700730948
Ni 4.9333661670002344 2.4241505954927933 11.080797379122892 1.1972557843193317 0.8146851470016871 -0.18652119305611747
Ni 0.9187148437160816 0.675450912638083 7.792755750729135 0.1326871779547973 1.4821412136786603 -0.32259477098464445
Ni 7.577727326982922 1.855659367295881 0.4527629909965686 1.1244467707774053 -2.1600403300658284 -2.3746454258423557
Ni 0.9940968816534101 7.471679220126065 0.1555699802847706 0.8990425275028453 2.125139404423585 1.5938345629906099
Ni 1.919507234648937 5.998919874693014 9.280085362930764 -0.4762282121738056 -1.0301587614260967 -0.18089639067017232
Ni 4.578421814997207 2.3301663850032903 0.3869787232103041 0.9952431804958344 1.1408555511527319 0.5767310920865745
P 5.554128040047164 4.25056273536588 13.117979546429435 -0.3386022021564943 -0.5983185884493631 0.3498973154543394
P 0.09779804894543537 5.770969323937952 13.413814549877538 -1.0110518653933167 -1.6585769974743179 -0.49000315447071097
P 3.870648270478368 8.541781456627637 12.9554108216113 0.18743162068552882 0.20329789829382408 -2.4657372968538693
P 7.929012265890809 1.2314720589731936 10.796988835591042 -1.0860175202669295 0.6261114422919152 -0.045799317722301766
P 2.3616223630410533 8.793663258749126 1.5104381975551062 -0.42062527809752076 0.051750907320046356 -0.8001928669227831
P 0.4141154707022693 8.750405439501717 5.273678482090367 0.07043408555184645 0.06576033422526095 -1.0701797819037246
P 1.6402687458852632 2.4991358070484493 3.8993433102474198 0.5428807191960328 1.0571792558789985 0.303443137756858
P 7.542518344722265 5.093509945698291 6.69610639084044 -0.21960666275617663 0.8120867901468917 0.36047354830828887
