# total energy = -340858.3037557248 ev
CRYSTAL
PRIMVEC
9.38767793533331 0.00000000000000 0.00000000000000

0.00000000000000 9.38767793533331 0.00000000000000

0.00000000000000 0.00000000000000 13.73981557939037

PRIMCOORD
 96 1
Ni 9.229101108262164 3.41766857799226 5.891563870102256 1.51110443368023 -0.6494110362498041 1.9872148893292487
Ni 5.33723276352846 0.39082592301044106 6.305778253486454 0.8266472044595699 -0.9117095814475525 1.20192336499833
Ni 3.7126763516317163 7.530213063853814 10.275540854442063 1.1679565211345821 -1.1722520631861424 0.034932293100810814
Ni 0.254369455379859 2.688565197006357 1.8660591161373747 -0.2921868481167484 0.8105726674952105 -0.04911706924162508
Ni 9.116965297407006 7.621545780790592 6.782068656065273 3.1811475228126183 0.27894463839486155 -1.559905514343333
Ni 8.804674809009548 5.863383938999283 5.3337001803869954 0.19427384041834284 -0.7163705329894887 -0.2767859401806459
Ni 5.869392052766323 8.371170625362044 9.283952370651916 -2.1053668497823486 0.1933598132445057 0.937429869031792
Ni 6.90482474677145 5.239028266470629 10.895028077283863 -0.9163239402911121 0.3072103181087742 0.8528590869682473
Ni 2.1050834734491013 1.6188299284625332 6.990941669944216 0.17415135863685488 0.8596995069288484 0.2945221811181443
Ni 4.640939316317255 6.535091058154425 13.416036369005218 0.3670797407708969 -0.6336517165330184 -0.03946129131941591
Ni 0.24260387884199644 0.5361941131395415 8.656481866642162 0.9271801662793259 -1.0420362295899732 -0.6144646020816062
Ni 1.1575194432869442 7.450718208573657 4.655764337037429 1.4784203131836475 -0.0018355105468420003 2.0169769510830298
Ni 5.759781527228875 3.5427687718353598 9.092405254848677 0.7240154511292562 1.7077344330355753 -0.9898441209674502
Ni 4.448003762973163 4.950629417974917 4.227630843836994 -0.3770810749579829 1.1964903669082168 -0.3192417953520115
Ni 0.1582433901783132 5.411076236796494 0.7620278444292857 -1.2516505570201284 -1.9166005694457957 1.2934582370845336
Ni 2.2131825828670277 5.7588803101638195 6.0818605472277305 -0.7663538068861512 -1.2455408445779648 -1.2949147670254022
Ni 7.943590066381732 9.276978264843269 10.048463255848986 -0.6669711566207546 0.19252471893772005 2.1605650922210464
Ni 7.81434051896827 5.730782990625143 2.802304423223093 -1.6518540769281873 -0.2988575752687047 -0.5462311237255045
Ni 4.88303813809571 4.97710266926094 6.651486058409749 0.3742328068759103 -0.2531940117933188 -0.24777438343964425
Ni 2.321159652474061 4.371832145620401 3.4206228801836476 -0.5298292853287133 -0.9957607435622013 0.35667988559381153
Ni 2.6267473389501657 5.768896962334808 1.5627526353571937 -0.18956897874350576 1.3414383645082382 -0.6862354041670051
Ni 2.4488414577014357 1.5763694619495257 9.351538017924467 -0.2462085816144211 -0.5531869862180473 2.2365221644736515
Ni 7.43367957343744 0.4981214472120259 1.7304747637707896 0.2566590875237838 0.2207700869366585 0.1013351460060771
Ni 0.9719344416297158 0.30272162845567074 5.447341774755016 -0.894749042333814 -1.391082509897927 0.3775420737548014
P 7.238763220085777 5.5271079339224665 14.326092871441071 -0.3723142496969588 0.07361685415520225 0.33692404312312296
P 2.1807950945915744 7.90596425391564 6.7299952075250005 -3.4160154826032394 0.8989553671056777 -1.1820613359670804
P 0.7961379715738828 7.685954637908821 9.065625965267644 -0.5560398822858101 -1.0138078308718992 -2.2215460027797933
P 5.422078595132387 8.507902151951022 0.4197061748743845 1.2238643880457953 -0.8333791238667647 1.938100648301101
P 4.645332749509404 1.020881793475575 8.26719176771342 0.033739044123658024 0.9102237409306453 0.4901664195214526
P 1.674423756163181 4.067671386163969 7.350801399092219 -1.3863051431139415 -0.06819876846342449 1.5317429358661878
P 1.0863420705030349 7.529753067643525 1.1941304477870722 -0.663441289090625 -0.39410434898885677 0.19971249493541088
P 6.072006301882007 1.4070908565631557 3.2473225936444643 -0.9553653704642902 -0.13692898395028674 0.14394655291870048
Ni 8.843089186407564 1.5913615833338441 13.297173348266528 0.15868385912887512 0.37725899529674384 0.0861664086854387
Ni 6.981221668390476 3.208473566766114 2.6784124235078344 0.43860474539407684 0.7774404037176159 -0.1963183816521974
Ni 0.6913649163866791 6.653807631120044 12.844749238859503 0.8822542523009128 0.8099108655414954 -1.8804809409051033
Ni 7.74841085805276 3.4371480093463376 0.33586388602310857 -0.526403804586932 0.5612319680097109 0.059525923279774906
Ni 1.2994235803222354 5.78936209985379 10.614007004740522 1.074326971302879 -0.20857534464267946 -0.37181159902892746
Ni 5.29296986288534 6.366845097321765 2.191349660698268 2.771825842653375 4.701373973398774 1.0866692949183154
Ni 5.530637700760603 4.141383431943349 12.957992795690457 0.9161709596530156 -0.023205491582185843 0.820630823062161
Ni 5.217859053119572 8.35828134379619 4.576980128963779 -0.16582329838713378 -0.004891009543714157 -1.0868333313000056
Ni 6.746970945220219 3.1193657294586927 5.230403806911598 0.169170874703128 0.47847149968202757 0.11138481693259526
Ni 9.13049294106061 2.8733146953428563 8.292239969515323 0.1479772713446484 1.6564136712744117 -0.39809392976422403
Ni 1.7077406245369733 1.9813444928813473 12.718480279135159 -0.16694969868209314 0.13105478455769687 -0.28245959352665545
Ni 2.7421125109551068 8.02489674346976 13.652403074742804 0.8159100205477239 -1.5503045009184588 -0.9310460769926353
Ni 7.196903564949474 5.883773975096176 8.552402560841497 -0.6970705471092963 -1.6200508163746614 -0.10163133709025722
Ni 0.6468682625673104 8.994343450492812 12.830514703070497 -0.5724661461626335 0.46978554187225546 -0.4116510996233685
Ni 1.779377993531172 0.3547124654316464 0.9881263082318902 -1.0279013328504878 1.429650599979112 0.6600140085766311
Ni 2.1152033900754605 -0.18888101531911605 3.30097692711969 0.44947228423620017 -0.31051804232576846 0.3384170827288817
Ni 2.537461135765285 6.187446575309036 8.399038885563352 0.20829252329493808 0.15870288529226861 0.30118210963682324
Ni 4.507127357511948 4.614466065031233 10.98448795250732 -0.592036097874761 1.022904650966845 -1.1448770136072992
Ni 7.772133519754809 8.009116057153518 8.29725486697525 -0.05818046499547399 0.4329280067242738 -0.6339034275325083
Ni 5.885520083159722 1.6527100575019857 10.22190060248348 -1.3609157565065593 -1.775016603222001 1.205902404250736
Ni 4.646431107807441 4.6041396194941315 1.7042042863244045 -0.09343388888112941 -5.554100134333583 -0.6916537469690992
Ni 2.2166278606053154 4.537684248624005 13.10309813084225 0.07121338692003219 -0.86425730150286 0.15174368036561606
Ni 4.301584152934831 2.6559524044646396 4.255976936836335 1.3616860590136806 -1.4762112213474705 -2.1876794319393356
Ni 3.4755811620998753 3.3525462573641964 8.435559768356974 0.30580752422397656 1.1616843149726253 -0.17129769123814367
P 4.876579415796141 5.835990695292682 8.548967609548745 -0.27669466601842024 0.1370670521900478 2.344292524582111
P 6.322957703789086 7.692760704285546 6.594314162077476 -0.29183100743922646 -0.22295681017533214 -0.3793899255968176
P 6.853943533306824 1.9904223772762353 12.291020821197963 -0.20136365738558867 0.30269828917103353 0.5246605966435803
P 9.263262867634447 4.050407446761488 3.942173154783803 0.1358087543029145 0.343714326572079 -2.7749949844099757
P 0.7105026362702557 0.9615047316372436 10.809511026720024 -0.440480365150235 1.4842250927908827 1.362810659536427
P 3.701777257751194 0.34596878236505 11.137837546268823 -1.2251185721678708 0.47410602362448023 -0.6195075638221524
P 0.36972242340371086 0.7853759377886713 2.7935241282132286 0.13037909864691097 -1.3322492418098024 -2.192516448316663
P 6.7034590587979785 7.605370812008387 3.427520945802431 1.841374976042577 -0.605944223315421 -1.071979811226941
Ni 8.883183958124798 1.8192192979488602 4.2341167904020685 -2.0148041118014266 0.890008699435351 1.0464392437536751
Ni 7.590331752235264 9.189194090100148 5.541610957295436 0.28090459033470977 0.30605512145840835 -0.14019479918575212
Ni 7.637260753362508 9.100255230992424 12.465158488593428 0.256009626865243 0.07266708864742323 0.5009123451840469
Ni 5.351276729458918 8.82909215886591 12.042988987074555 -0.013077659119564574 -0.5782981794633782 -1.443474650346398
Ni 0.5987348223833301 5.976787086352174 3.0664793080243173 1.377960627803988 0.14680510541341815 -0.5202778941948524
Ni 2.08368895583178 2.176035541966747 4.593646073292885 -1.5379626915236544 0.9550326697152198 -0.8860173188877709
Ni 2.89491574187092 8.91818122081781 8.379968756959654 0.3859015014630902 -0.28525232578044424 0.5525372684491904
Ni 4.111784083962912 0.5528628737719748 13.490052575544054 -3.0064505760849385 0.8084813321838205 0.8150255610602415
Ni 8.149508778069288 2.0924101084717504 10.290833381514735 0.7903126316945938 1.7673112641579434 1.275215488824262
Ni 3.964153463493411 8.24490635947658 2.2666848359625247 -0.04131454247807078 -0.4081402582566326 -0.6016052296204348
Ni 4.825163104699139 2.570646576650424 6.510240936353281 1.2434916753584198 -0.5915398749646329 2.2535783486249894
Ni 2.4639556188966476 3.614302876374187 10.7358243276706 -0.9468866435693176 -0.2986747698339372 -0.18106736903039783
Ni 1.6609899892871887 8.396066746784218 10.791031383047493 0.33126915883019076 0.617047275207118 1.0149902812157745
Ni 5.623397344717053 2.044608053312733 0.5887989042410866 0.8724683765587424 0.7950380621947211 0.28108662443852883
Ni 3.9828067792045196 2.3179302913242767 12.027985600476923 0.9509415303649817 0.9938072193802561 -0.34163687521776004
Ni 3.9456409629487172 7.249023951878551 6.14987239507063 3.3124812720633146 -0.3698984411666146 -0.11727264317193996
Ni 3.777667244771126 1.192422829202346 2.0007507003488887 0.3096690640619118 1.7234119916718318 1.093556508956452
Ni 8.313586609976063 7.805816507561281 0.6893897489857644 0.0674318083904129 -0.8402413982042368 0.3512360888704209
Ni 8.844534888782757 8.19304882752481 3.4011265510096003 -1.1517580569978485 0.6509850656051434 -0.9429276589215696
Ni 9.188490014268073 4.256861256081422 12.086696137194226 0.6372687444603153 -0.729873195461614 1.9129125790712476
Ni 6.903726388473413 1.2355216578031016 7.980826290220742 0.9851202331292195 0.02901335651321455 0.02227500934811648
Ni 8.748160988888321 7.043781152989787 10.572581999084552 -0.9392507242906146 -0.14645209294937359 0.33085598255217213
Ni 6.4371775791071855 5.85858683566341 4.859016948240861 0.21857719305039774 0.8684510278692334 0.879483374423995
Ni 3.442527148703391 9.817445648899616 5.15276020168591 -0.4818283319694024 -0.5389546446687493 0.12036130939959272
P 3.368937142734904 3.2430859346709244 0.8047999818439584 -0.5006917445328086 -1.3500230208534556 -1.1132095073006893
P 2.9341092965230993 6.239050639961259 11.994899668976052 0.735877749784481 0.4577859463082181 0.030655777212643977
P 8.844675703949173 4.723917000046743 10.15943968850066 -0.3555812532129941 -0.7370990237860918 -2.6322193118709247
P 7.770528226857678 4.534614477996159 6.868437169002034 -1.5357338021931357 0.5853113775564177 0.2738530828045671
P 2.9659147487773705 6.736109402050739 3.6502567434310444 0.6081440591802172 -0.5184302994631523 -0.2195339005367122
P 6.681980052080808 7.506086732008041 11.277997452776122 1.2718280604092678 -1.6573014731960038 -1.6675527186103667
P 8.888619423548418 1.2734384882797845 6.735051410767075 -0.5485386888127586 0.3503616566852676 -0.6792224631842819
P 3.2261036256012736 3.6315386527433846 5.861212569133163 -0.9469156970350402 0.9066311384833806 -1.259008540047096
