# total energy = -340868.72560907673 ev
CRYSTAL
PRIMVEC
9.31226822199408 0.00000000000000 0.00000000000000

0.00000000000000 9.31226822199408 0.00000000000000

0.00000000000000 0.00000000000000 13.62944584138415

PRIMCOORD
 96 1
Ni 7.574748130163068 3.9743923517860797 8.771775049839533 -1.6017741295526609 -1.2485220386934757 0.24290265716963974
Ni 3.9918994164180845 4.483894493919517 5.754324438199871 -0.20553887180920086 -0.0799898475610816 -2.0381638695732898
Ni 7.329574727167635 5.206368214847605 1.5839600536221856 0.25034368682871727 -1.4581548780663918 -0.432746486841087
Ni 1.8702853019980927 5.305841866123706 3.9958264000113375 0.9910738796094932 -0.40076376328690333 -2.327989159436397
Ni 2.625622018184874 2.737099183456005 4.2520599842107245 0.7537034651119923 -0.47170564171310375 -1.6766760210678737
Ni 7.6833105554183385 8.401333012041054 9.607819333979855 2.810928207971475 -0.49646253694280956 0.5202025608722266
Ni 6.523327839521722 4.354249092958471 3.8628444132749475 -0.27309589292356834 0.019439853892166518 -1.422728676048298
Ni 3.8580076210569354 4.791162102748038 2.1595038721724915 -0.7698710760107903 -0.8370360038930617 0.25201927475892727
Ni 2.02345349299129 7.5156710992984745 7.86195525035847 -0.11571584020778136 0.5247552132399156 -0.9800639016522347
Ni 8.842473791693884 8.853276023062566 11.677314544499632 -0.9703299621939224 -0.41563708085431 0.9922283049289107
Ni 4.96701497961547 6.464548801246608 11.50978124823977 0.5926613901635858 -0.5140846208999469 0.32838720929670545
Ni 1.67455073205123 7.899709048992019 12.016851025861568 1.2430661577852269 1.2945414428463835 0.4801015790862828
Ni 6.12642964713839 4.347963311774108 11.977788853514829 0.3753748909001535 -0.5164634055447687 -0.5370633411833073
Ni 8.769344547781579 4.385547627122389 11.042154514743139 -0.8940854406078861 -1.5749510958225457 -1.0520077389803884
Ni 7.091460023635531 9.304660297978803 13.57873075983006 -0.482617146419285 -0.7507037590537201 -1.696898775872652
Ni 0.9572453200969521 8.712148595138084 9.430117971830798 -0.10960201400055963 0.2031490314207856 1.623358797701972
Ni 7.050281172676636 6.901834301773027 3.4944669053854667 -1.4765410938830636 0.778596114588614 -0.5784506458808425
Ni 1.3705517294385774 0.7468048158592053 3.964396562862679 -0.5791749256413767 -0.9945019314544358 0.2788021992797263
Ni 5.245200374164338 4.797028831853444 7.578707706695796 0.8656251283846641 0.8105973500855589 0.956984908345584
Ni 7.173193803569096 2.2729850376078815 6.540321798163713 -0.6812299805326139 1.069344687596939 1.163963340814789
Ni 8.996284529208149 3.383389236429609 5.067128383732115 -0.6026066743017557 0.5874101690669755 -0.7950344626502952
Ni 3.8790999090311318 4.8974616467769385 9.981934130443687 -0.1803690574117926 -0.3286780010642468 -0.0195691803811792
Ni 4.128584892305617 7.353730751452432 1.590406005823395 0.2808835072887872 -0.33058164584486294 0.5777525913725534
Ni 0.5998311458198433 1.385889035528424 1.8288531573381386 -0.8526932508143443 0.9009034919709838 -0.8166569260160773
P 1.3402216711904718 4.976234125352537 9.750192743419104 0.863539706610545 -0.7414670709468004 -0.896111212788663
P 2.3945008282371507 0.809134622083352 10.64253900243448 1.2017385026810337 -0.4638388373705173 -0.5927650056209856
P 7.987030189978353 1.9909257393957622 9.80877156792316 -0.5017692938677036 0.44101001240145987 0.027700808349378096
P 5.323702796955719 1.2534313295041515 7.530623808702522 -0.574964487104455 0.9680866746857004 -0.567406472251539
P 6.552354180190847 7.091301715072369 1.1844954000619496 -1.6900493570509865 2.1871497846881107 1.536104298158677
P 6.64614734772997 8.288747686827792 11.604669538545235 -1.2523866638552044 0.2339670452429067 -0.8888342195112757
P 6.625446175029467 4.250547671819108 5.907342701671485 -0.4743842169865314 -0.11924390796569785 1.61904808614176
P 3.399387713577366 6.848288758350673 13.158290221650892 0.3286391774065114 -0.31452099283757445 -1.1345167534188978
Ni 2.2774921755237805 1.1980885182764904 12.895023081112916 -0.28536108344416666 -1.3711209791743353 0.35384678702039063
Ni 7.661519847312546 6.852460654603406 13.031058560664643 -0.36826399088698514 -0.5557938277132751 -0.7685060773424636
Ni 8.071539025901458 8.656451917710415 1.9641259621061633 0.6580013490219765 -0.4473354403988554 1.719840729380806
Ni -0.08051759767774663 3.9770742850914083 7.370517977735473 1.9098889617535753 0.1815034281265519 -0.5489009572481837
Ni 1.2889669457997524 5.4813688135963945 11.941971075486064 3.611808587879586 -2.422117760391706 2.470206388368817
Ni 2.7253657252451933 5.034277494422368 7.779878778947001 -0.8223174667359644 -0.10461818763272304 0.2202797775638013
Ni 5.148771834661994 3.0847261636223493 9.142318591363802 -0.09777648212054128 -1.3806731416391447 0.27475476868323
Ni 7.295324203914171 1.9846678950166627 12.035264174210964 0.16744283626842774 0.24558097533275125 -0.7684698247878895
Ni 7.370921198958114 -0.018132849069914442 7.374471035680305 -0.4388302311413217 0.48899965290686115 0.1196398578525359
Ni 0.535894042066184 8.86276522458385 0.3754492445285998 -0.5481183134458882 -0.9072096366946697 -0.539362164519813
Ni 9.192698894749764 6.665665862340971 8.16575590165375 -0.6485638577581604 -0.542143326809376 -0.2951644426878336
Ni 0.015640886040380185 1.0997044024056781 8.244370071666188 -0.4509072169105138 1.008586948792592 0.16462079343860037
Ni 0.9774250057658637 1.844993180965899 6.205813941749266 0.3378028461836505 -0.1209349225148756 0.2408689145690626
Ni 5.011006135637593 2.3873117570159232 4.930629153213007 0.4299036180756532 -0.06871993107421713 0.22545078024177945
Ni 3.058381756258551 4.4273317755286685 13.502378539817151 -0.4589493704887 -0.1022550867171852 -1.0084277975069085
Ni 6.800041895660026 7.101927013341049 7.580724744035845 1.5118703653119767 -2.6982989771088173 -0.6106038335746193
Ni 1.1446733466120342 6.009961105993454 5.93980806306859 -1.0049704350859274 0.43258579289350657 1.8381518411195892
Ni 3.307186943938283 6.864119614666848 5.838363935794546 0.11270842084002525 -0.8053713257999291 1.8792450116154733
Ni 4.740968975957344 1.4931291186678728 11.870525489704328 0.0935498456337034 -1.0635838738537617 -0.4733532046188557
Ni 6.373661061454925 0.6785961745807052 3.911419067814023 -1.3051863241547392 0.030442889870889504 -1.2030824183034379
Ni 0.5968987124939826 3.8085036021294156 0.3007518146141525 -0.32274106675452163 -0.672398755394229 -0.43740789687249826
Ni 8.168945353588038 5.797194397104072 5.834302855536025 -1.2191908938295262 0.12761464852789633 1.078550522465923
Ni 2.6770723012124407 9.286929738904686 6.226639898846615 0.3657515088777766 0.37802235582532967 -0.6788979899653276
Ni 8.7457658841389 3.446004929294289 2.621910147992152 0.6969103673823481 1.6358708141260534 -1.5627008177002828
P 8.958895771496714 1.4442955830666857 13.366438976630162 0.12281311337419494 0.21886387105288113 0.004032261087844668
P 3.6403612835148027 0.6184128462276635 4.14144327254172 0.17122904278373735 0.2729963912312266 0.30314360423856823
P 7.991630450578465 4.581058702627142 13.035529380733697 -0.026946189571540692 -0.3049444048927329 0.8368053759394943
P 0.5049847607222747 8.946724636670101 6.515488771964689 0.11425622494311935 -0.45057528749239173 0.3186265303655158
P 7.508100225071974 5.882746207090361 9.568893120752067 0.06168770681778408 1.618228418453942 -0.005244793338707096
P 4.016483805050261 6.89647043516237 8.161639879011544 0.06967432456768646 -1.4647204470990516 0.3369623525602261
P 6.7679145696066145 8.207405022167919 5.418222321431702 0.8396474733739797 -0.16385203359337588 0.10873426668362564
P 1.658766437077162 4.0846309853571805 2.1564103366029426 -0.655799199164335 0.2532436340843316 0.49252257845845493
Ni 0.09595547626654292 6.645104373666787 10.689247478381931 -2.595146318278027 2.187718512707387 -2.5775435175945995
Ni 4.960691949357423 8.395112416735639 6.953565815306916 -0.26211445421140017 1.4050222599074706 -0.588844844630973
Ni 0.4700758600914262 1.5139327263210098 11.086123321321052 -2.6347294798872887 -0.3215709577058204 -0.9046169362668292
Ni 2.588410193573443 7.899504179086751 4.0148802324281165 -1.4931843588666993 0.5082217343612666 -1.627144232886333
Ni 4.921552485182787 8.027184691410907 4.345026222314036 -0.5567592769503379 2.3883000405113126 -1.7356242174673078
Ni 4.238665217313557 8.520883914033433 11.086764005388435 -0.7597620126012463 2.151442303984172 0.49514767478612787
Ni 2.753246656898502 2.445848676312083 1.4300692305994978 -0.27991317295571794 -0.7552062749097638 0.6070243437534771
Ni 8.103917783202247 0.7003552209738658 5.211545836089836 3.1481034478734555 -1.0843735569056032 1.8695943758995868
Ni 3.3931205569298455 0.5082328799476168 8.699716716795676 0.4374863155189176 -0.1693462239387277 -0.03500994041628164
Ni 7.177775439632366 1.6355416396344924 1.5143676092562837 -0.18963608453601535 1.7013609254090636 0.7286593776591709
Ni 2.028826671870368 6.287522578558095 1.2240827843476487 -1.1642651883259238 -0.577102102272748 0.5001875512028806
Ni 5.567721478666914 6.294106352331939 5.604619479832548 1.7682348044134775 -1.5937273479887843 0.013855417825853557
Ni 4.752870054999739 2.611215938937155 0.35295359770331614 1.281146509596716 0.4721949226446964 -0.8201058037966263
Ni 1.8302611723234359 3.0425136508686914 11.681539520682366 1.9320978937504465 3.154700641474999 -0.1947878039402839
Ni 5.080904022407713 5.605790031973103 0.2173706943968626 1.6076323881056507 -0.3399697719279822 -0.06886237018935237
Ni 2.4495642714121733 2.832438187553059 9.156534700335728 -0.34559406009329513 0.15021927330128967 0.4617660140018886
Ni 5.554498057508698 9.110238757879339 1.8607057714731232 -0.11572458195852973 0.22020264446896273 -0.5304334945716155
Ni 6.078639085600386 0.8150786430166544 9.489774225791196 0.20105178257212472 0.7096216443014295 1.1267939308533432
Ni 8.973488096112858 7.773322941978422 4.616620393274322 1.2771875249489684 0.4557987406748602 0.42930095149464775
Ni 2.438706166432962 -0.1861112717603133 1.6204324841209672 0.7912397714945534 0.30390105122988303 1.1067478108357456
Ni 5.63111008981056 7.858511573496281 9.265992965813124 -2.8198401657491243 -1.1322901780812242 1.6323836269084016
Ni 8.71700028698557 5.4704362104698125 3.6471992822165475 1.918656680643876 0.22116680815444492 -0.5831992163094214
Ni 3.3605089929185263 2.3889041549159624 6.844858118664274 0.2639291388226358 -0.3432319876190218 0.7608431614805671
Ni 2.6530093996118556 6.939968040958164 10.211358625085051 0.17062714753368036 -0.6248585437214206 -1.3593787510367428
P 4.143242402800711 3.5149250278801745 11.650450512557926 -0.6687413611472999 0.8139966055750949 0.36429112228216615
P 5.608267095373163 3.587597970639836 2.011964947439958 1.6281716457095832 -0.23125350296648559 0.15430938421026327
P 0.8518816590443911 7.577430063468396 2.6287928455823195 -0.6901704775553533 0.5696312478169996 0.4027800223859837
P 8.39656513060936 1.6598652847508728 3.4481132268648667 -0.06088243730766935 -1.14786952057672 -0.40478702551368356
P 0.45414443127630216 6.727825254053008 13.403661044736857 -0.4559573777399115 0.6570181591731008 -0.027647843624255607
P 3.9814789880546733 6.161257531033973 3.711025569975994 0.5673136554274165 0.7005024556089806 1.3998414870374793
P 4.076557248635932 0.497079576059451 0.24350371326749784 0.8948184621191685 -0.1491653781154786 0.6771681517584144
P 1.9151331867149726 3.9158833692951838 5.7489410158255305 -1.6850773577576914 0.49142831695301165 2.4952574178001736
