# total energy = -381166.8285757495 ev
CRYSTAL
PRIMVEC
9.34332087651489 0.00000000000000 0.00000000000000

0.00000000000000 9.34332087651489 0.00000000000000

0.00000000000000 0.00000000000000 13.67489454012549

PRIMCOORD
 96 1
Ni 3.0082130246731613 2.444876167457389 9.733858809078857 -0.017297096517550854 0.2827490997426163 -1.025626420773382
Ni 0.17501909026530188 1.2982451192223698 4.296214126675434 0.8610490789782075 0.1564277161048467 -1.0494728883736764
Ni 0.6315272173739644 2.4917142359764983 9.510150738390669 -0.5110733448774489 -0.5173920880066252 1.6998917970627048
Ni 5.874332822528326 2.118327096094358 7.072286733395596 1.1483287196013257 1.5968507241091143 1.4522737366952667
Ni 7.108753715528068 5.06184696568547 4.709196392583961 -0.9911931787961767 3.1957755571384383 0.39207292038112473
Ni 2.5113912701479015 2.0951182865588565 5.591404914240333 0.3472899597384793 -0.4692857194177015 -0.9241352088054148
Ni 9.257063528932983 7.808484373709722 8.585208669160817 -0.4005580750340005 0.7552687527165831 0.5276744437692396
Ni 3.6430823479935226 3.319205466456237 7.29407942326463 0.23629003694912856 -0.3074514875853028 0.29002069370336503
Ni 3.4932154780460825 7.046732750271764 1.1303643262538166 -0.44588713798810303 -0.33696929453876157 0.1244845875393469
Ni 6.685435867852965 3.9603348148928568 12.755956008860615 0.12428609837529563 0.680900365107337 -0.8667193898901072
Ni 1.1637012958281596 8.659081637193202 5.159647244643564 0.21189206772073832 -1.2054020675755501 0.13582160981872093
Ni 5.948957927906768 6.777794596620448 2.0409092720483795 -0.45183641359300253 0.6437594943909817 0.15761016644872208
Ni 3.425850133138287 9.103076254394095 5.352107512348447 -0.7747260901102464 0.5245970903954966 0.45108025215326836
Ni 2.747254067214808 3.427644050783543 11.98932717182462 -0.8646779339800463 0.4914797390162375 0.6033031861481482
Ni 2.6979867352177473 -0.009795537808784033 1.4617644499158946 -0.6014046835738545 -0.9669893278564637 -3.718020345251674
Ni 4.927387232180881 9.053248323132893 0.9789436620125949 0.5921944778294962 -0.24661635857580108 -0.1755117293194913
Ni 6.1043186706428045 5.588146898183559 10.296744383886995 0.030731110535269654 -0.040315668899911214 0.2229753221180934
Ni 8.441690585879792 2.346789982874582 13.794002716959652 -0.17418375453668714 -0.9157266730267454 -1.2906207676357384
Ni 4.381765311712012 7.340981960699116 9.730071026717466 1.248930329875488 -0.3180313199836781 -0.41653465296791486
Ni 2.1557190670126656 4.6147036492843085 0.43057760814574914 -0.7561215876351816 -0.25757465735951773 -0.05300920520717967
Ni 8.413940922304736 5.565807017507478 8.905843418287144 1.083217074703657 0.47048591037338977 0.8665820929812946
Ni 1.6700252078806355 1.3570332953887847 11.315660642097168 -0.2610330482217634 -1.2217691960796635 -0.14432064842866757
Ni 6.770329283086284 8.23387643866215 9.671815419851987 0.08491633832842149 0.4930185442582671 0.6537490015035258
Ni 3.3001450914753905 2.4085960517462977 1.4886358413104603 0.48604879780865323 0.7668459160312213 -0.4515633624372739
P 6.611959990966016 0.35074546993553035 13.592681243552889 1.2652750897820983 0.031393169599300774 -0.8183435696898811
Ni 3.5984679898888445 0.906380627594091 7.494471236225024 0.32554922562727806 -0.07504330218908366 0.7012622165931406
P 1.5300529149453113 6.345694027140445 8.998846836208394 0.15212111830969288 -1.0905663159798766 -1.7839187908076373
Ni 1.4208575216114132 0.4208446705881277 8.646376589203518 -0.16749785787607926 0.4513083090036743 -0.28729686701429874
P 0.9199555387753027 5.919956259308461 1.5521825708973385 -0.18555574381905462 0.1742688580513257 1.0554615018569435
P 0.4882240304775268 3.034822803077794 12.14550825815052 -0.34707501551419584 -0.032463005624711834 -0.4212413144149649
P 3.767815684265238 3.149278486173563 3.8372851450777823 -0.6878672833434734 0.8177576152794239 -0.12614346329900858
Ni 8.379230484533243 7.137643264273547 5.487434306048243 -0.19280779739577764 -0.32261842513372824 -0.00079652775936637
Ni 2.7231669854988163 0.9122501018896635 3.2782555588748385 -1.50785815882879 2.6637734325281217 3.9667982302551685
Ni 4.951866733381772 1.483859535579966 5.283992833090915 -2.3985111767163594 -0.18751003933194801 -0.9942736174937135
Ni 5.175938259259547 8.565900696171642 11.921841298075032 -0.3055509281284802 0.2876300819840014 1.1051822661208386
Ni 4.9745242869742 2.982388085238328 11.289309673686146 0.911098944446747 -2.149724549962117 -0.2318379147150459
Ni 7.219117023995596 7.68575985146785 12.259201526247054 1.7589695770614673 -0.4959400887804362 -0.0802461865462618
Ni 3.1756733681936082 4.855359570059633 10.025571307835962 2.5240740849215495 0.28196182795463054 -1.2803160432756209
Ni 2.985919860602426 4.605453761425957 5.407313459216991 -0.23460236483406047 0.6593676332418837 -0.8235842492635299
Ni 6.5098561783235205 2.9506488235667914 4.499492091514054 -2.380122904017159 0.12575856915576406 -0.3368145141284522
Ni 5.343678902412065 4.847810166635847 6.347051611691778 0.5810942541512767 -0.10407311376253044 0.1945936856516068
Ni 7.227927775763703 1.6293537312670938 11.604378606451645 -0.4133675680938429 -0.9531981876096423 0.7057073968486879
Ni 5.658754375502312 2.47345738660759 0.44107576369892515 0.12311264689248476 -1.7310257994633476 0.31357328421232444
Ni 6.782755900108111 7.064980256319604 7.5931628680131045 0.40036704206911694 -1.0914438334888235 0.004051544361554312
Ni 5.061146216605292 1.7439121908946227 2.9240894990959316 1.0566593788197867 -0.49612855064215844 -0.8647841205406074
Ni 8.279182202525938 5.608674174572244 2.641729664728936 0.177700509440694 1.778479364959621 -0.9334184338795538
Ni 6.93593964903506 0.6654817804709712 4.469488818897145 -0.20212547525227773 -3.2236182903823196 1.1303975890442015
Ni 2.2551880631136907 7.794880498233195 10.28271445296972 -1.322581122592419 1.4107720179070542 -0.599844023954954
Ni 0.8631630959892355 6.30652682521902 6.8796209126271926 1.0449495465820262 -0.18791421674890216 -0.6544025759271246
Ni 8.01952196669618 2.140022287616674 5.834448987880906 0.7377353718185101 0.03785872271898641 2.358285239316777
Ni 7.564847933513371 3.5339523579071073 1.7120561377097225 -1.1484307923968287 1.638828611202797 -0.25547586584896
Ni 4.785508901747472 6.437940636055101 4.0371434544051334 -0.1544816481220694 -0.6406050079224 0.45693671093404536
Ni 0.6425953155123519 5.513316239741598 4.186732827716822 1.02851351251319 0.49277557500952546 0.3805500073431898
Ni 7.310223747739829 5.626342394713803 0.5300335235972776 -0.015826425509295326 0.578695672012113 -0.08146643210660809
Ni 2.1804788678456277 7.675295331870522 3.0730089562869702 -0.8190832760693829 -0.7971070289086079 0.7119592912956706
Ni 5.668396682845563 4.482402222946669 2.86787167055561 -0.8955923641707156 -0.47622127019527016 -0.45019450711420533
P 6.7675262867655706 7.653973873190967 4.177748290176831 -0.5768858724968838 0.07866650076396775 -0.7297459258551303
Ni 8.441288823073823 3.6563778938747697 3.783939453434084 2.7512683302169973 -1.718791462180685 -0.175455165049943
P 2.9332982763415796 6.922148907137154 5.548930176660467 -2.7104656943783385 -0.868800183678536 -0.7087785795748438
Ni 2.975520744252582 7.856649193820634 7.720448799600883 -0.9740593473293676 1.9193799319631457 0.36148167785782903
P 0.7747584606981702 1.7454444955499455 6.836038991500645 -0.574516600933759 -0.8898374639648094 1.135680948930328
P 8.24705986469057 5.822925870006456 11.04934235567361 -0.44326975496991405 0.6232904279033523 1.1836194244828195
P 5.479885836956564 0.5309650527078612 8.609754507941298 0.17961598129585193 -0.4265768676952653 0.1620275787901274
Ni 8.271025483232664 4.829786900293665 6.689170393284261 -0.42791204156692103 1.3424508649331526 -1.698736600412339
Ni 1.0355763340083814 4.90671046265509 10.493321318854898 -2.303683235701181 -0.6026413841944331 0.9760545233825254
Ni 8.885105917174405 8.376801221055294 3.3155195262945 -0.44519756812024613 -0.12278740234258209 -0.05212603127127797
Ni 7.818173397658318 8.013934660696894 1.140028123235527 -1.0175652410318023 0.8271992203082981 -0.9122140318877968
Ni 4.370927059271923 4.49224074003237 0.7927499597487182 1.3980931368878053 0.7752868477097229 -0.779112134993084
Ni 1.470891005936135 1.8463990797009482 0.08873352019269551 -0.0993487117036676 0.2820934684364883 0.027861245186642337
Ni 1.4869708614959571 3.9203827740016313 7.917572318851326 -0.19484359687888378 0.9453421819003333 -0.11493910994275688
Ni 5.137004640364847 3.2472618942246108 9.009540267171912 1.1885145477915917 0.7652592882703918 0.262349967260974
Ni 3.6323188421219856 1.302664510088027 12.90445127927512 0.9134787575328333 -0.20970123071700658 0.3800797525749906
Ni 4.110790314067646 0.44331629209128154 10.379436512676449 -0.3412797489886574 1.0323321149283318 -1.9934845243880446
Ni 7.63042870409698 1.0399770382319005 8.546836583862367 0.5000268572553 -0.6960930136873753 0.789611491862511
Ni 4.317539322683415 8.712730986771643 3.302623874555008 2.3745698354094134 -1.2039257401403396 -0.6699821755329365
Ni 7.553850844615108 1.5034244498985405 2.6676031894333283 1.5631674729240563 0.04946391105808255 -2.620387866453636
Ni 3.0201257590361905 5.267633612231129 2.7845227062950038 -0.16003137429570505 -0.654095586209667 -0.06387365872550935
Ni 8.415155554043713 3.180092759059265 8.115461990429429 -0.9159961246380482 -0.3729369708826222 -0.47221292036682544
Ni 4.788321241389254 7.487971087757291 6.108151300945326 2.469910454394953 -1.0806025198989453 1.5710813284544942
Ni 0.6189950208240579 3.5469302308720074 5.638774617728271 0.261642142560672 0.6405983230541806 -0.2522470744990172
Ni 1.422333766340322 3.286429096146037 2.6802792731276983 -0.3138993000931755 0.502807762434547 0.8070548841499391
Ni 8.750506033853782 9.179411187528173 6.623038366757579 -0.0070059990041879345 0.8752281986920669 0.38137018925163996
Ni 3.45060059065018 5.725484374577412 7.611309466193399 -0.17733129902673328 -1.3888309948595887 0.25087436252120665
Ni 9.313581278079619 0.18880702916688774 12.71126596985528 -0.9723513634993256 -0.3746634666554257 -0.23928408658044592
Ni 2.677010979417747 6.183344480244765 11.966599543324174 0.9027060923973614 0.16106238666338069 1.4300954008260145
Ni 0.4912120245554066 7.20102835440593 12.163955711269235 -0.3555948800597489 0.021420374657305046 -0.3110618306443804
Ni 5.290281822502487 6.646119172794434 13.2999428481424 -0.3686234311089329 -1.0897263365770846 -0.4615754952576373
Ni 0.7484644865456711 7.969834185251014 0.8661968723403536 0.7728779811579141 -0.2572884935776666 0.2439046160715929
P 4.496753564108717 4.799523883351036 12.004793171190205 0.24171300773691273 2.384946550658047 1.3023390845139313
Ni 6.256717580599955 9.16673230083748 6.602663386502318 0.2396514972221937 -0.020192930008107162 0.5169089777226195
P 6.571849113616617 4.781911723135892 8.184807185071755 -0.9680982446499261 -0.43780693208312993 -0.30953768069037013
Ni 9.193790558653427 4.973403088445915 12.895726486060848 0.09256254201976963 -0.28089302037048397 0.011002778868406858
P 0.7978803773477294 1.3031129894993412 2.0653878389171636 -0.8748705582423321 -0.6505801168572408 0.43552816335128214
P 8.700883655656098 0.3207814392671114 10.539296064507228 0.1810030914513657 -0.2391591309668075 -0.8599602167894028
P 2.896971444025143 8.892617947313916 11.95632936480508 -0.008636335518759319 -0.792898390143899 1.3466757016477775
Ni 7.823293537604153 3.596739475491072 10.43699417345807 0.28720225041796343 0.5219390839473592 0.32674761681075337
