# total energy = -381166.6213475917 ev
CRYSTAL
PRIMVEC
9.25726211214312 0.00000000000000 0.00000000000000

0.00000000000000 9.25726211214312 0.00000000000000

0.00000000000000 0.00000000000000 13.54893883951334

PRIMCOORD
 96 1
Ni 1.8456110752544732 0.8549155550191394 13.220606960475509 -1.7023333166246617 0.3555586275051748 -0.4717853459111036
Ni 7.6894058529360105 2.269658477429243 2.957326782112611 -0.21234843853186658 -1.2761148607100796 -1.4527298503960788
Ni 3.7931631200714273 2.0691461816861136 12.131909435674865 -0.47354063803931357 0.3084961267997332 0.7435067270846485
Ni 4.510804587781439 6.896586160215382 5.371232842344209 -1.0663341829053892 -1.3052146062895136 1.0738970828543117
Ni 4.644636825064837 4.348358153538575 1.9270925699867654 -2.758090495345153 -0.2420246254400606 -0.34517137073357973
Ni 1.9213354787253318 8.009207227300836 1.190289495584293 0.6182821760554835 -0.1138204229572814 -0.967466010382566
Ni 2.3135471567514116 5.953734021644852 11.058738190764357 1.3740183553267884 -0.2620915713932648 -0.43093797287743846
Ni 3.5081412791833757 9.001706062181173 12.214287033372436 0.7755938374271804 -0.8544444291774963 0.009125616450352026
Ni 0.3198458092226086 8.186298650087819 6.84335227486585 0.2398582139163611 0.15509948421172645 -0.5604508668693122
Ni 0.12319564320173412 2.5944217442464383 12.16878944190806 -0.8780834087526748 -1.355128974621453 1.3740474087925112
Ni 3.172380385065034 4.82534783730868 8.821808763270472 -2.3376246256436324 -0.1431284278927793 0.6798570114444873
Ni 6.5013288429788 5.843924379350068 4.074057147816734 -0.5166192143963425 0.13593782368161106 -0.15486885625815908
Ni 6.390362042929267 2.4144698274897127 5.79432582080286 -0.43261330369733236 0.6983154752599909 0.5248128059507284
Ni 6.8852737860049436 2.372164139976042 8.175511162634935 -0.7150618414803943 -0.882594666359467 -0.39189885669710567
Ni 3.5860041101850126 6.7934602611120365 12.798111075418309 -0.6755668687095655 -0.5668331162465722 -1.2718514574480355
Ni 0.7659467867505111 0.8510793456305913 1.8627620046322801 -0.6215559617107489 0.24031124229337966 0.3514386917995302
Ni 4.201269517016757 9.084077179795317 5.228007261270849 0.8222202790364678 2.173668462372224 0.1859015571942476
Ni 1.3639464741551774 7.080203952739158 9.274397230034607 0.21105465942110746 2.3449173026503036 1.0055211653830747
Ni 0.417818190549398 0.35488732321505856 10.82496547824489 0.23114603085434385 0.669047322423493 -0.8042886342587116
Ni 3.0077955232913913 2.2442935794451166 1.1153917656134282 0.12121954363482994 -0.5784290486142877 1.0278943908719522
Ni 7.359856581645167 0.31655022393707977 6.509709442301803 0.0015616880601650523 0.4109358187238988 0.5183511094857847
Ni 2.87161194145034 5.8966815157046435 1.2016361216642724 2.194050368462686 -0.9457841545337582 1.4754799996084007
Ni 7.792550266563431 7.242020893163437 2.5406833381158354 1.2453788650788036 -0.3770332524391829 -1.0882260978824743
Ni 5.883239971225464 0.9101267915399887 12.71207500776332 -0.4098022193400878 1.0713915428236387 1.5302187859121774
P 1.5471014035770523 1.5929711369753536 3.8116008088725164 1.889737683616681 -1.6609295568668943 0.9896602870914181
Ni 6.075457760182543 5.964278043106137 1.3374086810708363 1.490150200026066 -0.10834962965069726 -0.021619120931672443
P 5.056908989927268 0.8779318856242244 7.384686409883497 0.9435861184411749 1.837559458951229 -0.8862942266982413
Ni 8.188474106666751 3.978947111912095 4.863879339089457 -1.567745579213042 -0.9781949667642958 -0.6851874225184651
P 7.60534991363095 8.169237516151782 4.459822994285752 0.6526208014363535 0.7843114198058364 0.5143445594295528
P 2.993317165463956 3.8023463240131257 10.963828111719739 0.8906478756812468 1.1350314882717873 0.4116266741433362
P 9.186730958534724 7.84306714550481 0.6618535037641947 0.1585694450381979 1.48330412363851 1.2053077080895305
Ni 4.3871460814778045 4.56635741727149 4.910406338092456 -0.12227883813727973 -0.7097203746628229 0.5415509446410157
Ni 4.8243202812224615 5.2143935317177625 10.355643584620863 -0.07171783736027648 1.3819556078959943 1.1563667594144538
Ni 0.3995545382746233 3.182674460451292 3.2977172329761575 1.9636252749347665 -0.2727667917189238 2.4033337949159836
Ni 5.920741139741412 8.531029831120986 11.268354077995658 1.3558797367445485 -0.6282565136593761 -0.9410407263115019
Ni 6.469530147878262 7.457613268766472 6.127968653366907 1.2745631999522435 -0.955427334050477 0.7836763573249987
Ni 0.8644236888583715 4.382360077004158 5.804541209461796 0.504933036307666 -0.6524847900791214 1.7582013314368754
Ni 5.7538234479341925 6.302501368926587 12.358908609561125 0.5072969085541521 0.989362296235025 -0.05395845649432643
Ni 1.0620856736199997 7.805686321395356 12.07821453867584 0.800996079550369 0.8674742657782608 0.5319262770670582
Ni 3.9169327135195178 6.560982639551686 3.223374013001369 0.7112812913920395 0.18894471489594555 -1.4619873644386046
Ni 0.282304834479898 5.1383173522894605 9.514850908566899 -1.1535832831320456 0.03507010423025573 -0.14275716059628962
Ni 5.070045044759194 3.14320149512125 10.466934388841725 0.9666391436058965 -2.8203248186950267 -0.8197970143069558
Ni 5.584998760147146 8.126718911611237 8.39039720914447 1.6691578583139577 0.9752739364627591 -0.5544190588529355
Ni 0.5583387996552533 5.778845827222913 2.443984756045475 1.923898645769106 2.019635471751799 0.28160675860805695
Ni 6.251456826049043 0.9242422646955346 4.1105853780924875 -0.2458110890656863 0.12286993475405937 0.16571094117898558
Ni 8.757536518666825 0.9278183450208148 4.56463741798483 0.4443362485612154 -0.3640113862582183 0.4441986945420866
Ni 1.542241341007101 2.435789301963232 10.462734369055083 0.39516724303573236 -0.355799025650755 -1.5508328626181034
Ni 4.182866080085208 7.338638937054067 10.172285921160356 -1.5076195604554228 1.6195000860775142 -0.1970506318325316
Ni 7.973113162614665 0.20344684780917574 8.974857225092356 -0.4162322912361477 0.09437131309373424 0.6387550991978548
Ni 3.715133658353106 2.191277239753478 5.7982009106919685 0.7768552206381073 0.3255613098121361 0.684725138170066
Ni 4.707928725618658 7.673529648540836 0.9743147950590888 0.10715226690848642 0.24671123228245254 0.5964439971344696
Ni 7.6661886397447 5.223373075894625 11.429722041211095 -0.010597830120504328 -0.2511386719261869 -0.9830867476389584
Ni 6.895836321990304 4.785745270310106 9.288570098214787 0.6342844650210109 -0.7632620553347048 -1.8102414878625661
Ni 8.147806954533806 0.06108959791498074 12.761989238946024 0.5011956807524207 -0.8549067135258954 -0.38059628720009286
Ni 6.974754480864274 9.383716237441375 1.5553635099459695 0.5504868136780648 -1.0581264502836165 -0.501386199496672
Ni 4.896156634637359 3.4834614185900614 7.950774463590762 0.0313304346821654 -0.3412285840357478 -0.8789336725681121
P 8.677775948947398 2.5745186308647336 6.89151873497578 0.3545762089872474 -0.8257529747800747 -0.437867095897104
Ni 8.844860271471301 6.302288451899713 5.035124800899442 -0.404742031208361 0.44472397091793736 0.1246915613438304
P 2.4528782076853837 0.16572443073052032 9.725835019127416 -1.854135361032039 -0.6407916700119093 0.050774916560022226
Ni 2.3100941980112366 6.873304146189807 7.311684567178015 0.48354402910892846 -1.3348789661231657 -1.9795643147625261
P 7.119676918069199 1.4411150105039645 10.652623030883401 -0.39623039419292405 -0.7178355475707895 0.09811046842119234
P 6.444202278942288 3.6209317598543955 1.154006582752547 0.5740661436599017 -0.43983810358054576 -0.7534059884762315
P 6.354786384917223 6.795098796492764 9.892161171890406 0.6327245767330587 -0.010885279453936093 0.8095380555831091
Ni 1.002320789902657 3.8265540642425013 1.3816398790884112 0.6704583438384066 -0.5257065214095914 -2.896109627035825
Ni 3.0902129272157253 1.9370450524038214 8.516320967468804 0.13635768482784905 0.298980216889498 -0.7772228883901712
Ni 3.8219902340577665 2.3952054651886296 3.3256408381875877 -1.4643556075604651 0.38571149693947115 1.7737896727934355
Ni 4.365123055089397 0.7669613826698761 10.23194156918565 1.489766591434402 -0.4253710203126223 -0.4695266317839139
Ni 7.936685836495126 6.632402416174874 13.218588877351225 -0.5760608054924273 0.8351359586568714 -0.1869477390705748
Ni 6.907518986682263 3.0736887144778913 12.05145549702879 0.4679006661447167 -0.5626723000006633 0.22153190480334753
Ni 6.614813618302669 4.722101593798841 6.321284353601693 -0.3561895762209544 1.087351665697321 1.146800455882257
Ni 1.1637026390111507 3.6023709494682006 8.12581355138392 -0.055641500623704175 -1.3967728754144846 -0.9533743081761904
Ni 0.9160338504464379 7.8639885577106945 3.4820774579153806 -0.019238022294005574 0.813438933299412 1.1587067204015398
Ni 8.39820663539973 7.5660065499694396 10.890379143257821 -1.1014150857689224 -0.22077702891519396 -0.23551279246347182
Ni 5.940977514556485 3.5299884175930614 3.5373701583421644 0.994956502493351 -0.04545453278837333 1.5902411892123969
Ni 0.6378966353360486 4.695588795322003 11.695173104424605 -0.7959811428342807 -0.9676056212842239 0.7180088399238601
Ni 5.461719801587069 1.8083968818617042 1.8424386115540499 0.26915773421142675 0.03371847529836774 -0.6181950156583159
Ni 3.4984766976157013 8.766016170693636 7.772186141532234 -1.597849597687274 0.5735514088070123 0.017794090758627416
Ni 8.30232917247214 7.084749268399817 8.615024672496595 -1.0692732109290553 0.533747646546513 -0.43234128098286834
Ni 2.618259193994294 3.848188285625313 13.227029648877476 -0.5263225577270355 1.4689974772078507 -1.5792494660875835
Ni 8.068768451253343 4.449836259999156 0.12423430800239797 1.090433132836122 -0.6560460250678185 -1.1906675895788528
Ni 1.3191413258912466 6.026746047338575 13.387272854755295 -2.746361636943999 -0.3976684121910313 -0.29928772082758776
Ni 8.506479572196204 2.8428959146084574 9.636140481515008 1.0001994960598453 0.09627161544024065 1.2681141018927902
Ni 0.8051901719820103 1.0543836316043818 8.104636638745786 -1.0213329356043506 0.005258420185461911 2.621966266684349
Ni 2.3046601851949298 5.713119266753097 4.67890906058193 -0.8316572560796516 1.47443073240828 0.2566722001499063
Ni 5.72478341692098 8.239592707640599 3.2346197349251344 -1.2540959332368273 -1.6038276696475797 0.0645190056189921
Ni 4.921965881199309 4.2385670257678685 12.876748739252527 0.0592166195694722 -0.2542484211997621 0.5162605455053432
Ni 8.149621377893254 4.468434099433503 2.391089686486534 -3.4840746401650056 0.9252047877205098 0.7295476938013952
Ni 8.252043725081712 1.8452222702488772 0.607042180963387 -0.3495882688543528 1.7576873679149343 0.054143061701306755
P 2.5779901041289843 4.588611875210848 2.838569996058099 0.020178531830403957 -1.0762460427024625 0.7137186971889387
Ni 2.8974767315845185 0.0339436027147429 2.784320589062998 1.0003172525846322 0.4077823606965816 1.4261024776165374
P 4.094338883215793 0.37093663841034313 0.9456357972653577 -0.33577887377508625 0.9253688241021999 -1.4796621560105485
Ni 1.5942578963986358 1.1128154695882522 6.151245113035261 0.7140616823506541 -0.24945177114206712 -2.8668463592953337
P 2.4032037395894634 8.0583077451504 5.238453155754531 -1.486073458853531 -0.7692336995371075 0.326758672554347
P 8.526456743674213 5.379783775288712 7.4439356641053225 0.22144731550934119 -0.6654068974574282 -1.2849903088228387
P 3.005823726477297 4.78623590519812 6.654872568319716 0.10301664747355807 -0.6002186336855534 -0.10492209202638704
Ni 4.987803528813582 5.831436332860804 7.8959011171343 0.3604036143023019 1.3262817113724579 -0.9407219095195024
