# total energy = -340890.1373999502 ev
CRYSTAL
PRIMVEC
9.11169617140832 0.00000000000000 0.00000000000000

0.00000000000000 9.11169617140832 0.00000000000000

0.00000000000000 0.00000000000000 13.33588837121860

PRIMCOORD
 96 1
Ni 6.519345574060778 2.0377670221605197 11.363376457673267 2.084349624100733 0.17044305654733224 1.722018196648099
Ni 4.596431479621373 0.5062121149030216 5.847373486043712 0.5750776156435515 -0.6495331636499652 -0.07114293869341295
Ni 2.949355757328047 1.6416542631902666 4.474270060561495 -0.8226200855780479 -0.7297770362033819 0.49110667194753493
Ni 3.2234537955435636 4.362361121808781 4.685017210195766 0.1456841044350975 -0.7500121323033341 -1.2824719132763591
Ni 3.67664221807947 2.8040606533660557 2.523577138613692 -0.04445051700389119 0.45520198763112574 -0.8164455813362197
Ni 5.23079686485515 4.5495153570639735 2.5565696785569996 0.9612567962480606 1.0530441506647024 -0.7331636932874277
Ni 5.334305731091713 4.479883776449554 11.39575669164729 -0.5287242251899926 0.2316111434162205 0.328902201259911
Ni 5.698828240128677 8.081409172939745 12.363101716803792 0.711909926114974 -0.7145090543007179 0.7162844010335858
Ni 2.0064865698902627 6.8168242241392365 0.0030378394369075593 -0.5865948722545317 -0.7860569417420333 0.38891920524349155
Ni 2.6632485038220564 1.6163055249974747 0.4258752026916532 0.9353393050513504 -0.553056374177454 -0.9605592559604037
Ni 8.351297607616415 -0.09144589193985589 6.721461214101221 -1.4890572240722033 1.1498323007300455 -0.03437256394259886
Ni 8.624156455179802 2.51792606477215 1.163719385565286 0.8199996172360651 0.3951621008294098 -0.12207674942880267
Ni 7.03069395198295 1.1991356366370198 4.7097153732961905 -0.6954929182095312 -0.5503474598867232 -0.6108658289867545
Ni 1.029621644782706 7.458105386615403 2.571759786911134 -0.5634060928428942 0.9637571940724111 -0.3480309516695619
Ni 7.649396331841669 4.100682325202458 3.7399429923328724 0.37823164362265826 -0.6865971583817981 -0.2194372270578479
Ni 7.94539888717274 4.034276284961958 12.472189674483722 0.1949238152975159 -0.9561739824085146 0.28868911937613506
Ni 8.157728738397266 7.600502971258448 8.613903063703042 0.5275669716570979 0.5111142254177133 1.3979041608054505
Ni 7.188244287026647 0.7220399462110171 0.2969984637007587 0.3567115101626953 0.5414105624084096 -1.1055643320506057
Ni 2.2277823299507724 6.54237082978083 9.129949432068134 -0.16534173076502492 -0.39895576354388707 -1.8373046626279455
Ni 0.33426256671551835 5.078121287156221 1.1353984121465817 -0.17952907800900048 -0.29423113224028685 -0.12684845978583315
Ni 6.2787239068446565 2.230206041079199 6.833988837010401 1.2729763150810978 0.12795891924119254 0.3067086958820073
Ni 3.7390937822683257 4.552704450654009 0.4951149803792973 -0.0810447711881572 -0.6140853643653166 -0.9093076568742792
Ni 6.276154408580686 6.005354804306862 4.80029292060996 -0.8886308452512179 -0.6073832697547927 -1.1343876840402012
Ni 5.308838540851291 2.669754254745728 9.680334137871528 -0.2735957153781224 0.6845744715248147 -2.05433070914114
P 0.2535657425132744 5.865490271143901 12.25405385058614 1.8853331267910822 0.11545487323691084 1.086930261889186
P 4.233357730243882 6.18139277047679 12.450718874096411 -1.0815509998551438 0.9814538400212259 0.033118894041155866
P 2.469770751562623 8.627263543506094 1.3282583914191455 -1.0091968144624492 1.2026584433921417 -0.22296426637449987
P 6.485468288438636 8.342422815740145 5.72648405974146 0.08171351512040766 -1.0303384815370706 0.3315992884760999
P 4.853681991985534 1.0833077574469512 12.430888178983977 -0.22861298001984495 -0.47870906961413046 1.0030313090816854
P 4.181029260279395 6.11408467233511 7.996465387245171 0.5280377406459293 1.442695091867896 1.222879655535023
P 4.8346021006211535 1.1905433073358687 3.4261234266990748 0.3192793334581663 -0.5306402112657829 0.9012549617731317
P 0.29497931187346804 5.709261132016076 3.5632025144035393 1.2676261065127783 -0.5312693602093496 0.8556078533579781
Ni 0.4893026295190593 0.2513415775266244 4.569648560482663 0.35083705365978934 0.22967227452229477 0.06238447577449256
Ni 2.2277823299507724 6.503409217806575 4.786649978231791 -0.9850608406461939 0.5572657842731112 -0.7843083344820427
Ni 6.254249891465131 5.597770420108454 9.244477983412663 -0.9794864318822097 1.2085280147990412 0.2313884858824531
Ni 8.973125299193368 2.5474844065037883 10.116617630871458 -0.239114136661485 0.5434954699618961 0.793098421969847
Ni 2.745918921371733 5.053219022066034 6.779125493226634 -0.940399236072761 0.8836400769048458 0.5167896785359358
Ni 0.5122677480456994 0.4700459712528312 9.264628499053698 -0.08257946266512875 -1.0376730675252712 0.05534119577446597
Ni 1.7380833416569514 0.9649741618647122 11.47442525232627 -1.1172232564457727 0.6693486557139957 -0.33595859388606014
Ni 4.190040727595236 7.416574276377176 1.2873013180271253 0.6694823530783824 -2.091288003091779 -0.33171653078025454
Ni 5.71673272271273 8.133145382666083 8.038366432339842 -0.7301033091945491 -0.011778994912799068 -0.11014528809853932
Ni 5.192591523646532 3.2186792668544824 4.4998356571184095 1.365730918507016 -1.2379285794483454 1.0469362379947518
Ni 0.858401943442522 7.312883176221184 6.582034042344893 -0.08052643679084195 -0.12120951633250095 1.36471584697894
Ni 5.0672510338621874 4.535702025971136 6.868009176259296 1.6152166282108118 -0.05027406566420373 -0.7057379929763071
Ni 0.7113646832107745 7.554224667419055 10.697796224380228 -0.5577470947849039 -0.34760826230984654 1.0172677643960415
Ni 5.043679076383843 0.24537706134366188 10.348236031298113 -1.2211094510084777 -0.394294867733108 -0.18819832364822425
Ni 8.263360629795194 7.227123893737159 4.679616707993441 0.5075627606210291 1.136186942032469 0.4371075920232601
Ni 6.9823564048539914 6.308391588927952 7.1301790932784845 0.6676882372924371 -0.6915707003369895 -1.9253533759377615
Ni 2.526582175945102 5.4584525887037865 2.336087592946747 0.23791651680895798 0.41944822707028406 0.8534985203244592
Ni 2.650328118934429 5.463573361839785 11.11183533400487 -0.8646969601434398 -1.386586421799786 1.163723456889841
Ni 1.1497411327753644 3.6567604974695955 3.467104190500621 -0.5377611385812804 -0.2076060387508747 0.6480164698951227
Ni 1.5074207581377108 1.3651962957181243 2.4772213853585416 -0.7122500830632121 -0.5812220379783926 0.09960453646821554
Ni 1.1373036677742283 3.8085157938754004 7.984755946752159 -0.22470516032500654 -1.1477553635963587 0.6358728925540533
Ni 3.8512040895020108 2.531967188264275 7.07715540091137 -1.1725909345828 0.4132593246507528 -0.9424306646804931
Ni 4.416812616934634 6.978511269154008 5.9267755382484015 -0.13786897926605288 0.7322722918214098 0.33183582996693817
Ni 0.4270168981968857 0.12575324961185452 0.3156081915530083 1.6621518593097695 0.803101813039462 -0.25837067089825183
P 0.180669441232256 5.826027515891212 8.245566398732397 0.29775637178472586 0.2478720853597731 -1.4532638685226777
P 8.504319429762262 2.0058123043883698 8.008493737097185 0.09988581515406024 -1.6771352200924794 -1.0832561554717088
P 1.9639987315750258 3.3976420874312714 10.311415667877165 0.6198479778807068 0.1058551453636177 -0.4284792269243008
P 4.226205048906232 6.079788248698278 3.7346090055111394 0.006532916022511329 1.4598914011415245 -0.03664336225464657
P 7.1497564832429115 4.0260848702835546 10.333206288793077 0.17742540140243634 -0.6856895589658643 0.12931851859288052
P 6.695474657190421 7.6661982992131685 10.29607886121789 -0.9940586732694299 0.9580781414097629 -1.1464009064509935
P 2.3037374275694327 8.693851817666024 5.718428409333031 0.8752875911750925 -0.0981048119942375 -1.803998592276648
P 7.220144334622968 4.221412296825208 1.388545927814763 -0.7928971045923183 -0.009911602686757124 -0.0921056569880091
Ni 5.579911496004259 2.88099070245367 0.16545199779020647 -0.3448936915921608 0.48910892479121576 0.09649041631926608
Ni 1.3206583258092937 1.0545147981769216 7.110615370858016 0.44244211686229606 1.4264408347925628 -0.959940134319166
Ni 7.072370849356721 0.769697760820499 9.29567386956789 0.6697649173158079 0.2173302080171741 -1.1453956051149305
Ni 2.9132552178888513 1.6064375582603094 9.267228977083972 -0.2755155581086546 -0.2995543442254131 -0.19974231973208179
Ni 6.406178310094395 2.211700186561025 2.3116964940005627 1.2995507231355168 0.7295260965348405 1.1575335260290451
Ni 4.368593521853306 6.878574187738283 10.318323244593183 0.7168685556718299 0.8063396032504694 -0.45299315290526504
Ni 8.326422677614142 7.295598288963194 0.30960449507736826 0.26461433781511845 -0.2545924348027422 0.065298564097494
Ni 7.671428412700825 3.9909866174012274 8.033058869436426 0.5752156838833126 0.47802489906291223 0.2344460417618543
Ni 3.319481959387501 8.50931263915466 12.357540848752368 0.13237838846512684 0.15887232099059734 -0.38453470302255066
Ni 0.2296666751495527 4.953810419016659 10.248790070295255 -0.006638845472756308 0.05321772167355996 0.1813846431605005
Ni 8.705378113070006 2.788479653254742 5.6711268620360356 0.7441708430312087 -1.0666558279108662 0.5601017110600096
Ni 3.678455445577804 2.6608430160855727 11.55472025073617 -0.3983235292765269 0.501621969656562 0.2280445091108847
Ni 1.4192286528292877 3.5228276783841 12.545696459394833 -0.6430920360103118 0.22432926504282655 -0.3650123167189069
Ni 3.064035562825703 8.475344236572802 7.701248260106846 0.9416382506861848 0.04155622617523166 0.8949804416183296
Ni 5.795512446082563 8.255105433244989 3.5364779101190464 0.6125378173725387 -0.3961321780521629 -0.052745924243464
Ni 3.3836738575069183 8.340974056080672 3.4851480820330383 -0.6534270993877327 0.3122113708677913 0.344420094389852
Ni 3.6602502770266905 4.102240425213589 8.911000844889891 -0.8162203526992909 1.019323618483806 1.0555478909231626
Ni 7.3737584170069645 6.187734510872974 11.686505443081176 -0.6435329802024724 0.229284809275889 -1.7784598245755951
Ni 8.090602874175016 9.090411049738881 2.3533970817838594 0.09163771621265508 -0.16730348247708607 1.0942872164748898
Ni 5.271353023624423 0.43363472298100675 1.3224387512021303 -2.2138807729250516 -0.21306706186544594 0.3264984769144248
Ni 6.006603106654961 5.696960342454513 0.19785956685214143 0.4510270303178297 0.1506054529961148 1.4650732024527802
Ni 7.899995306146614 9.098228884882452 11.52895510803748 0.9015238991638023 -1.2413730863535202 -0.7749243221639815
Ni 0.2559101818867487 5.0790780152332315 5.966343078004764 -0.14754969688892652 0.40765586242104634 -0.40181997246555956
Ni 7.605678414570276 6.198923673526011 2.509934196235523 -0.9576233132605314 0.012496332694797833 -0.6290281017180779
P 8.593623161979211 2.051115656758809 3.3940365893353377 0.43251251645340993 -1.2015351284209759 0.3325128014293047
P 1.9457571162400262 3.486517569937559 1.3751435342102418 -0.23223386460188392 -0.23808492406602222 -0.2869402550058284
P 4.900889688814022 1.1443287853682766 8.209359252450334 0.5653382768686006 -1.6842872577562285 0.3019984348905315
P 8.714808718400539 1.8310226405665408 12.284752976653413 0.6413292876829342 -0.09034753664632182 0.7289509407576608
P 6.473859987770909 7.637405339943138 1.2984950365281482 -0.511213727110055 1.091976308953526 0.2628721583130311
P 2.0937583939055613 2.9714516200590033 5.909599080172473 -2.1409100369942804 0.7242419653177656 0.8611951176377686
P 7.115186708726933 4.317476907453032 5.879886750778916 -0.9684944516470805 -0.1361882491295203 0.24549767159032557
P 2.4925408797954725 8.597705201774456 9.933609217283312 0.27968691587752476 0.1599835517769051 0.7481910199341953
