# total energy = -340869.73637511407 ev
CRYSTAL
PRIMVEC
9.21444776413424 0.00000000000000 0.00000000000000
0.00000000000000 9.21444776413424 0.00000000000000
0.00000000000000 0.00000000000000 13.48627571345949
PRIMCOORD
 96 1
Ni 7.174046627399617 4.796728284265167 6.6087605206668645 -1.416452099010967 -0.9846137258064461 0.5131076016986583
Ni 1.6567945897811498 4.802597887575941 9.80851441090214 -2.5574068947457245 1.356347934630219 0.2746573238734173
Ni 8.401936310890902 8.238490434083166 11.763997172173767 -1.547365472894793 0.1835978487617354 0.8546442038931281
Ni 8.209815072225815 7.1139499982114325 7.034225673556555 0.21825014872828222 -0.512563299159414 0.8036677128452611
Ni 3.387507480596895 2.5922637692419066 4.918499056121609 -1.076007187218779 0.701634769441211 1.6877608181271258
Ni 5.698592372243355 0.7445015896724518 11.844079017407072 -0.5870389017704858 0.27542454105674496 -1.2626286532981867
Ni 4.459811211337101 3.490736940393775 3.1520396361318914 0.008480269556869266 2.5768310649086072 -0.9653553917974664
Ni 5.134520729743505 7.440298099400943 12.405648015857931 0.5142604843561789 -0.5479869300743465 -0.7114589546204844
Ni 7.689042120396818 5.106002013500415 2.043683456547513 1.7057544264910687 -0.8042184431424085 0.5832940900160728
Ni 3.6264934012692045 6.263226096064958 9.089844604465837 -0.1917464460107988 -0.285561886601063 0.981948263159141
Ni 2.192402802725294 3.2672128632936484 11.8221099307296 -0.46931502999374014 1.3060784969517054 -0.45974127026237593
Ni 5.581163448236264 5.078893107785658 10.675695316993737 -0.33139719976762283 0.25030280628845275 0.10881062844751584
Ni 6.539429171795698 8.755642107888406 8.091765094430427 -0.7801488037877145 -0.7671369649090788 -1.062538463308383
Ni 3.805917130731389 6.331357723819856 3.7016593385491356 0.20281581645108296 -1.813538413446283 -0.07904342448741226
Ni 7.120390897291859 8.352841732492458 5.376155804186377 0.6259101249143866 0.39547243298097695 0.12513970462484253
Ni 6.617908624539608 6.817567281584935 1.2526498264369403 -1.3708368722750133 0.17894723736360152 -2.17592409117562
Ni 6.902128269941265 5.999149233767468 4.526897920700411 1.9360170262991947 -1.2450016842450429 -1.2642708168873
Ni 0.4854327798073102 3.8651844596087903 7.8218785227334955 -1.261208890132525 -0.38854073885815016 1.183742066103613
Ni 4.81049466942419 3.317192028690264 12.268465158447952 0.07933010248989564 -0.6164350955444158 -1.5107377943694305
Ni 4.988259798264806 3.073073660538988 6.667371780853958 -0.20593996390236144 -0.47604489251840587 0.42552091562692523
Ni 6.696388077283518 0.9807581908774903 3.7233317200043046 0.4789967760578782 -0.029326773988575295 -1.5692378474878523
Ni 8.298458061000785 1.0409561789925503 1.7818070044079704 0.1262841026419309 -1.0649144197397273 -1.1119218988375172
Ni 4.107579726003214 7.2532540215274395 1.3616014583782339 -0.4131179139768821 -0.6882228669106792 0.16574076597565648
Ni 0.9108583105710408 2.1539877694401746 13.492344714214196 -1.6569785426389463 -0.5241317207233038 0.88861876106636
P 5.624646427865066 2.674816007956559 4.738591568144801 -0.1890989810856227 0.268214396461551 -1.546425734689343
P 5.788617528202964 6.72024428289042 6.022215761189544 -1.3396195661319446 0.726762160636458 3.5233310145624674
P 8.322203693232916 3.0756721348461125 0.693540164129952 0.5937409963810097 0.4079345700037297 1.3690772092714292
P 3.2556487311821534 8.31052898774665 3.126442821317132 -0.3094757171041831 1.5296390021493076 -0.9986684041272993
P 7.825968816155243 2.5440077056021435 7.246931067380102 -0.5891999139775465 0.7788367698445103 1.6897968747205476
P 5.794505560409536 5.449406057748395 12.937505948507749 -0.05363938259201085 1.381095573888544 -0.5428005007774006
P 6.173569518021251 7.505177027047988 10.418107268905743 0.6121752918267974 -0.005693965060983743 -0.2681881712093058
P 8.713817728881171 0.22480857113705272 3.9730976232720234 1.416524089899483 2.0336549259593424 1.8040168471090932
Ni 7.460155234620284 4.17656829741259 8.974955182299325 0.11241660063121929 -1.3094232450542225 0.12869734006911385
Ni 8.350261687081126 5.961056706158764 12.92768795427285 0.41015497469381623 1.261621295079595 1.3628337994648787
Ni 5.5701613974465225 7.774718056948758 3.705179257646021 -0.15079982839510803 0.6677761690205531 -1.4223954610785954
Ni 5.032387789246441 4.534171805870781 8.276109339069933 -0.22219139276421732 -0.8449192632958805 1.3416502234087282
Ni 3.5158463109147515 2.068413191815108 8.491107287530404 -1.3747467488523808 1.0624772710531443 -3.651909055444898
Ni 6.456572856300425 2.0336102221058496 0.3915025408286941 -1.3191913801845798 -1.3728222781361583 -1.4268000179041942
Ni 5.722706582391389 1.9571118756599248 9.12935892138514 -1.1005859049994078 0.9873437231430997 -0.7169102075430427
Ni 0.4852742913034714 8.202231581606085 5.648443661005423 0.12879787020272013 0.6075750740506246 -0.6404435426438712
Ni 9.007519041169466 0.3656486429175912 7.602429074493691 -0.9161984704568413 0.11979695225569047 0.19248872349346202
Ni 1.595702800220022 7.411733310918365 8.011670348970066 -0.01247524964887529 -0.2878391126710139 -0.8317289898578515
Ni 4.584326045777451 1.4386425358053276 2.1459905501098424 0.36550571141555765 -0.46663311228620286 0.37792696789804586
Ni 6.773494577290686 3.0418366821661036 2.319558497933098 -0.49561047335515934 -0.5250454907868248 1.4869409490601488
Ni 7.58080000094364 0.9375147868940252 9.474931125223428 2.445461834434285 -0.23303064947156643 1.6717785837662562
Ni 7.563707200093582 3.5534504727848817 4.52120615623406 0.07710789802759624 0.48095389978424913 0.8925101257009661
Ni -0.2163377291847835 2.78292912513917 10.27193018890291 0.9689978736460602 0.7418704770328062 0.6949167339910871
Ni 4.0701690675389335 7.81966613379328 7.581471734195376 0.610377062275794 -0.28366801201245984 -2.075307568503123
Ni 4.036057181421996 5.270129759452573 5.802861221763084 0.39481834433674584 0.4518382133652154 -0.32542144180016214
Ni 4.654687569923571 8.793338414237512 9.601392051059753 -0.24154588603142915 0.4835286024899608 0.9033054165442572
Ni 0.07758380840826302 5.033364520723587 5.862578215697889 0.5077615068953966 0.23822222097483492 -0.31084534375820017
Ni 8.037772115529615 7.752870600983534 3.008100745523388 -0.6359050313435693 -1.4368124078348739 -0.164799999328942
Ni 4.571416604272905 0.5383559613072102 4.5874377648324725 -0.1945098676885489 0.11264542881257374 0.7084736467399153
Ni 4.703063421386002 -0.0512433876481665 0.36970852866127635 0.9125873560668154 1.3149498312994063 -0.5095486807028062
Ni 1.536159037905692 6.7656622965777204 3.7373164875785014 -1.0954213300793327 -0.6429429120269572 0.1943586868226653
Ni 2.4291127547668947 0.4049298343050856 1.0854269474359763 0.442657832417528 0.17200140217338764 -0.23751671026737803
P 3.545378616426579 1.5872531514979173 12.660160281237708 0.1362422422959073 -1.5664268604016185 0.7050612786242566
P 2.573493938874483 8.155090466161933 9.959439695906608 0.013736118639169893 -0.962485269338523 0.42922356128949307
P 1.7572689296566457 2.782901481795477 6.476325868258522 2.1732773975813924 0.3195055905363594 -0.022591769257586897
P 2.4200180946919576 2.472936668967909 2.8394136907514946 -0.7091696443656753 0.5322589778161285 0.7100307068143901
P 1.119896354131341 1.2511100921932505 9.457520425920901 0.34899305847251505 0.11018668285943603 -1.6584636118249048
P 2.1510944328003263 5.987373169354327 -0.1272865403679498 -0.1944407050135103 0.6306083017210043 0.3765288019989386
P 1.8588950755193423 6.3027284342019945 6.036159985192991 1.2552904677655607 0.0980968415744375 0.046044086743256184
P 9.089002403927996 5.968916630215421 8.670825879325312 -0.7060310987366937 -0.2312506747530082 0.2573980225723373
Ni 2.8996116788665547 2.837165365464479 0.8385709668143217 1.1962137162080626 1.0206947877997194 -0.1489244657492661
Ni 2.8162669976327086 4.532513205249212 7.5918020517333815 -1.1463790520741226 -0.6498704923847259 0.07737760674921512
Ni 1.7928643418850976 4.378558209776011 4.284818709868875 0.42652416008045896 -0.3557905410103227 -0.39940570659711216
Ni 6.4558817727081035 6.18431356426986 8.39832240442546 -0.08834207618051883 2.896011153784748 0.5707165104613784
Ni 2.9059420045722097 5.15852436651677 1.7476186383734829 0.18704338410817464 0.0311172902300948 -0.06181420509331935
Ni 1.0623705559065866 0.851486858432396 11.574555494957307 0.4192327686253683 0.12203098379253176 -0.4835707685818059
Ni 1.1235268466029975 7.099464886116396 11.378870107845426 -0.1882281484448952 -2.1582495567139928 0.5483409709796556
Ni 2.116180889716297 0.7823425628535504 4.271925854370545 -2.0140577205537054 1.2967523344547731 -1.0441105956204986
Ni 7.873063859359908 6.085341179401674 10.7116768145891 0.47017043601549996 0.24129674613510055 -2.065082548341005
Ni 2.901261065040226 8.2052631349644 5.276087821463165 0.9737904099386971 -2.4481460661346675 1.7974057695504786
Ni 3.329373528810899 1.5511233012914043 10.513172727865342 -0.36349433741248366 -1.105800873541444 2.5613805346814917
Ni 1.9806455755904104 0.5792865388683761 6.872012689877519 1.1553123500080102 0.5785203227765133 0.026082298909348624
Ni 0.9687517652669096 8.724340628380238 2.603255684138961 0.05698747312863734 0.07769153844520812 -0.7943232955158835
Ni 3.3021632641692684 6.135265058110902 11.437885882295225 0.07928330841236023 -0.9346803313111129 0.6753992327834497
Ni 6.486464525280258 1.2922618165039588 6.097886650214265 0.24201459813773157 -0.9012091961368608 1.5652793770607365
Ni 5.024546294085578 4.1404753049976675 0.8672730505705746 0.018430695901361805 0.3733468047265312 2.0237227544472955
Ni -0.004178752121564323 2.009726373155255 5.739691574201046 -0.5692545812038712 -0.8157966348983111 -1.232941153536083
Ni 2.7474995729728753 8.429395365625767 12.30265260303765 1.1196863732742846 0.6081211763620816 0.36666347916908465
Ni 0.754889036787423 4.353153976922312 1.744854304004201 -0.41744199527353265 -0.9743259707271928 -0.16181392011742457
Ni 7.3144748133591335 4.007824113063731 12.504785339343485 -0.14714963323703045 -1.3579057660356422 -0.9509435872475107
Ni 8.000776107220727 1.294058633843992 12.063932058464792 0.0938781755073996 1.0594078880992013 0.6635580171741475
Ni 0.0493350754885723 2.5867903871907285 3.294373369916632 1.352899313959986 -0.6486715869806183 -0.07687315630897083
Ni 9.50617731804421 8.452827706629378 9.69123752528536 -0.2787014120358039 0.15908572255298406 -0.5076635478649516
Ni 0.2754806630155676 6.724206495486391 1.3275835596298518 1.1887276922436625 0.5552132726194567 -0.5936720908162872
P 0.5239786582525756 8.974273313154903 13.412479408506487 -0.09409003440788957 -0.42587855607666003 1.0206204829183585
P 8.928495935999596 5.494363349040815 3.8437636325812257 0.6836167355972356 -0.24416095505677307 -1.9648434636125836
P 6.4944995238469705 -0.36731737943184767 1.6486702110698308 -0.6980766197763074 2.308187808439754 0.44675282842250796
P 3.474390509823422 3.959955056235668 9.915986202511078 2.894702719385969 -0.8078012753976603 0.05288373537290891
P 5.676145977164786 5.54757678564949 2.8517813227196616 -1.5681487281887316 -0.7784017391896207 -0.988808223503768
P 0.1824939835016664 4.663063503062494 11.527273398460322 0.8417439508916923 -0.5068119984979337 0.08688991711502454
P 4.332688688141729 0.6169441445363124 7.002344605275628 0.7154063693040066 0.6315251571083188 -0.3019310719877058
P 6.760843140327272 2.7218004777864517 10.852635752747517 -0.6502070497885383 -0.6723010534741002 -0.6457693257321587
