# total energy = -381167.9591091554 ev
CRYSTAL
PRIMVEC
9.25048215170503 0.00000000000000 0.00000000000000
0.00000000000000 9.25048215170503 0.00000000000000
0.00000000000000 0.00000000000000 13.53901568209063
PRIMCOORD
 96 1
Ni 1.7440674167206112 3.9155996168093465 7.71592527448726 -0.6520011655744836 0.4194286866862583 0.46834649543288376
Ni 5.586856487979416 4.66376011776687 8.900440272225952 0.4613158138383474 -0.26059904600813827 -0.8862348342152156
Ni 3.774233747529284 8.242235160564793 0.6732519460395752 1.6129674271653187 0.7029938545722667 0.5321319653199609
Ni 1.700553148359571 6.888010816025156 6.830189751863269 -0.10893841227463175 -0.7954882623582622 0.07178211493930864
Ni 4.795042961427559 0.6652419534856159 2.4788988978479005 -0.11564076399547181 0.08239614300972907 0.5155522065844088
Ni 1.895960334766588 3.986624819291503 1.2755730445156337 0.16482339636770968 -0.17105626465129897 -0.39265193281304633
Ni 4.9715699136243545 6.301733753910787 5.090520939438083 -0.4785620025133049 -2.0483590649387367 0.09842825677192726
Ni 3.296316834135413 2.9460935773010224 13.162048626170435 2.001543647247095 1.7630208643127054 -1.4087213060256125
Ni 6.864625596973985 0.86932794231107 4.2180395077383475 1.228748455610974 -1.0756842566617217 -0.7279685222397334
Ni 7.489292160299731 8.985280144854872 12.17351156959171 0.2887955630470123 1.3571958844528111 -1.5068189189309984
Ni 3.317583692758294 5.620232227827765 8.46999498348667 0.22051091973800088 0.31897234374070876 0.49612058022235844
Ni 8.227878412159958 2.9708478677206958 0.28683895266563086 0.9820642199117152 0.10107135082172916 -0.22549577454710196
Ni 2.411008683789969 2.1707551595822885 6.173303758966626 0.5303360497618028 -0.6838417071238482 -1.1009859686513037
Ni 9.292201894419273 0.4325044460813673 0.23775774410483028 -1.4354042146334376 1.9735042246113754 -0.11698853627261789
Ni 1.9652556970736779 6.481267112828955 1.7763321736543847 -2.7388352466599675 0.5557832861903138 2.2514978119468774
Ni 4.964844813050698 6.080702731755454 11.819588119869476 -3.1914077670880454 -1.1054337200100124 -1.280280562051995
Ni 4.117861410541094 7.251897035097909 6.925260657827077 0.03942221055136436 0.9638268709680821 0.5125267894945237
Ni 0.08543467863564133 0.28623767132135625 9.329843956667306 0.5925744868767342 0.12234285860599575 1.3640026229619993
Ni 4.360205543730406 7.4230124551962335 2.922748135323396 0.2734620180137355 1.0700054611093894 0.1031976531361126
Ni 1.5771702165144286 8.229617502817247 0.4969174038729476 0.2082516427546736 -0.37487841087970925 -0.8217924474704299
Ni 8.012804700554053 5.2551804479953415 4.400681028682304 -1.4043013225810461 0.5184009888871136 -0.7080805250665547
Ni 4.759400853435406 8.682743123862565 5.13644495841733 0.8543881220182641 -1.121201267256914 -0.8601281098258349
Ni 8.71124385958118 3.1177455253680844 7.738874795825887 -0.9405131359428061 0.43348696455153735 0.8254493274967268
Ni 5.307528926876108 5.967541582762978 0.9100050877753558 0.03878431985704933 0.05241605170787101 0.5391616184732329
P 6.010843090032968 2.6077294386721706 2.944072346936038 1.2090008406704018 0.12429355457446335 -0.20584200487191645
Ni 6.838465233256931 5.047294361074072 12.765599784636436 2.002454074876506 2.13235083457036 1.531427718618614
P 4.7892521595580835 1.914267039079194 11.703341935056761 -0.7463400827683856 -0.24404705518672806 -0.2182763739805273
Ni 0.8983161784426581 4.664046882715677 4.807433982360725 1.0455678968923154 0.13984230094233982 1.868757481820588
P 6.7235372421605115 5.9588553799587665 10.711757769634897 1.0933917012438137 -0.02086347371257052 -0.935596415367479
P 3.4351110693584244 1.159945716963411 4.418498382485493 -0.19957005582027565 0.5838746451098912 -0.7579923222953333
P 3.2186220339729186 4.840296320445885 11.58288493073768 -1.288593967013697 0.621616125524723 0.5296367097019331
Ni 3.3630683138321107 0.552930923809123 7.652034968941087 -0.5830719467029377 -0.8101147540221855 0.1534822603232776
Ni 7.975293995153541 0.7458691565117265 7.526406945061245 -0.5255846511197464 0.20910190657011082 -1.4070878841872476
Ni 0.5525368532665677 7.022374070264975 3.668545138073809 0.5883499072724255 -0.28116427175399966 1.4192322328592655
Ni 5.626698314899272 3.9845342103098718 11.20093622008292 -0.9154186548680234 -1.9113087249192373 -0.9526968224931913
Ni 5.4576920047470185 3.5893628603704015 13.597639958168486 1.2949510195799763 -1.200605674628171 -0.004847557900288426
Ni 5.231212448564335 2.1166398385975764 9.547754791169966 -1.0034773954801686 0.21659153007893667 0.27955861782977665
Ni 7.841125001040333 6.721548388483296 2.062209076169176 -0.667839932378953 -2.731905352309353 -1.216834734892524
Ni 4.197193546056459 3.361477230890338 1.8158252573945608 0.04666860770113253 -1.0912504865310948 1.2697176989344843
Ni 2.080960728676545 8.850472867468513 2.902453502381796 1.6032687118203162 -0.5408791153849717 -1.4794369273736199
Ni 3.1783731858354005 4.4931997266017225 5.827395852087683 -0.07525284709672846 0.7375119429537943 0.9520476189449669
Ni 6.538712607412727 6.966945180805078 8.686348036783546 -1.0976905857294839 0.9752130013178366 0.4476300888211388
Ni 3.1649599866169678 0.6434505925208833 10.229890900333253 -0.4221139468279053 0.150017955923761 -0.8155940319692019
Ni 2.7435080166915893 1.4070353475313826 1.249286874240393 -0.9342213893968234 -0.27355894860291596 0.6806527678729051
Ni 1.0212717380092549 5.914092296498079 12.118570180544786 2.2411223822498245 1.084312878870997 0.5160448299501114
Ni 8.637748778346387 8.604687554893506 2.449533242041752 1.1967593042988873 2.9271451561853907 0.5467013784937036
Ni 2.95962703278831 3.2820433400705564 10.140032641100195 0.5836321900817819 0.0659570236170993 0.19808138708989112
Ni 8.35933701498282 2.6709934865720757 3.3072564544083227 0.5226245400501579 -0.39383155494344435 -0.32164551969749766
Ni 7.274949236789174 5.479698901947468 6.651826578945881 0.043420275967163934 -0.4879804676137274 0.6837319210188612
Ni 0.8696396835618708 8.568305408323784 11.68544317701004 1.2111078597110756 -1.325338373622582 -0.7639310563772714
Ni 3.917468214217707 3.139669168228557 7.673751400999841 1.4828582943503428 -0.2791590683985128 0.895849217376528
Ni 5.523555438150633 0.3607863824809619 7.917453504978992 1.4791109114927685 -1.4629250457615257 -0.2869117157607381
Ni 7.544267776130866 2.935400019855155 9.940954863348436 -1.762206081720894 0.701470733059521 -0.8508173739478702
Ni 6.971292907448294 1.9506306846844763 12.076274200692069 0.2047451722633119 0.9056119531902468 -0.06256599565767934
Ni 5.29423598392653 1.460355127045208 5.65240355489112 -0.5596453402488812 2.142840164137458 2.1501534099694197
Ni 7.39849867731427 4.353378687852334 1.9634148511119758 -0.6038143214566117 -0.7812852313850028 -1.35324307045265
P 8.625686149532017 8.886031721120688 5.619666098315926 -1.6936918388995799 -0.5867668790560218 0.9957661428788399
Ni 0.1843907871316849 2.1637617950242642 5.781538436580416 -1.1512065553697528 0.927920643989776 0.07836645302504569
P 2.7037216926650514 6.305193434260921 4.887896526803326 -0.677445316679201 1.2208243156678908 -1.2723757053826215
Ni -0.3186929881888539 7.576894226919426 7.988655391671542 -0.588026976715368 -0.5429092584411229 -1.0831013750613991
P 8.934291486860388 5.3952419992824385 0.3358406070793428 0.023959081918758736 -1.4660265675049848 1.0155034734067672
P 5.365723710519667 4.36863273303247 6.412646110675675 -0.05422045190646146 0.4670416605785311 -0.4537392870426702
P 0.6482478925999725 1.4047412279409195 2.17241654618893 -0.36656037793231705 -0.2533773314487185 -0.5261353814168939
Ni 8.585113534516813 7.151880821339499 10.293903312244723 0.22879989921967045 0.7781680259122599 1.4500667017416187
Ni 1.5940245951185557 2.6604664378061607 3.7452704876996887 1.3124856860296301 0.35730414944137173 -0.6703074200828392
Ni 2.9991820947593575 7.4355098566749245 11.512658044871076 -0.1225863420753695 0.25758956975785313 -0.5109823278255393
Ni 1.7456584996623836 1.7976184582899266 8.778982365730709 -0.506814826711411 0.31749807318802736 -0.9465948233605116
Ni 0.6956612392165775 0.5445074346999472 4.324564360786475 -1.1824572858539184 -0.32458943281717006 -0.6605999629870881
Ni 2.507805729735956 8.761085457780432 5.415754943604422 0.5268028397975637 -1.647178525829389 -0.5149837356754486
Ni 3.126191215634587 6.184206377310657 0.07250805478195994 0.7780039895305698 -2.287689688486402 -2.90839564349203
Ni 1.389505683725224 5.124942908825469 9.87181120894975 -0.22373585443320176 0.6770357399456082 0.19954922988466922
Ni 7.211574183102634 0.993316780741597 1.5157877166979918 -0.7758787156574509 0.7570646682747413 -0.01552483510847649
Ni 3.545941096831558 5.363892115040184 2.662623650259773 -0.654751474626111 -1.4163248294044835 1.5026205645789348
Ni 7.163869446296111 0.7235014905047122 9.736894775873196 -0.6804452798477894 -1.3943313558525277 1.1310758460581487
Ni 5.238141059746821 0.8154263074656312 -0.03246826754260506 0.4657249986496366 -0.26818174345140267 0.11629819507381262
Ni 6.726580650810763 7.806833463452243 6.452058715220541 0.5376017301852807 1.0961713208714798 -0.5320072668166386
Ni 1.3236792522504874 2.3128980693687975 12.756717471609168 -2.5818208048137152 0.1837379738840255 -0.14609316694805807
Ni 0.2576028036105571 4.85839026366744 2.6320119544986436 0.2846085215488582 0.26881577749097574 -1.0536586443202498
Ni 8.11456000496975 5.182693669322487 9.210145491890234 0.7354514608803399 -1.0774179515233768 -0.701564835435224
Ni 7.218502794285121 3.1219729957424454 5.343768616019648 -1.1948574592904841 0.34390124577190445 1.0770099174516805
Ni 4.516353683597403 3.405389269986821 4.382335472344376 0.5792050075483638 -0.33451903322605614 -0.7575804315688952
Ni 5.784835308443484 5.275448254538505 3.0770119519622585 -0.03432988363012152 -0.0655998973879967 1.5002811178124809
Ni 1.853065848714262 8.083691145802916 9.147148782926475 1.0732103411999323 -0.8634263209611324 -0.13481656559297425
Ni 0.364733563244069 3.032853850038734 10.474256263887549 3.1992578592600838 -2.071169892185665 -2.1791264001630015
Ni 8.757616526948079 4.393035505127798 11.765038951268663 -1.579692724272589 0.48142492588339675 0.5393678209467678
Ni 5.042576615142072 8.864080326813557 10.97532158398777 1.2452467103763134 -0.3209855175159956 -0.01747707373884087
Ni 3.027063048169259 0.631918016337697 12.537263656672279 -0.15347840366853568 -0.8362471894431791 -0.08542567386467224
Ni 6.577250116339617 7.431948421020375 4.018785970824418 1.6549157465726467 0.7896477444170852 -0.7710926071227172
P 9.311257887791667 1.1401866869423265 11.464608265077763 -1.8844710359011028 1.1778922921910553 -0.30942892302664776
Ni 1.0926947112268548 0.18335103293020089 6.952285016583442 -1.5067512989178566 -0.04904199302931554 1.3042830956141795
P 6.248413974396962 8.203577395369047 1.7921865751305721 -0.6279538948172927 0.15743018922743207 -0.1218026698318096
Ni 8.642068753542945 7.328065505694169 13.00708177288288 -0.508662421443111 -0.9391766765195696 1.2201000359073566
P 4.269809831480389 7.80928484124044 8.976354354561172 -0.45545909794725437 0.6010632410740359 1.258497661848949
P 0.2126537854572558 5.169891001930548 7.013684167267874 -1.0025376572747187 0.879455349399537 -0.20380466272691353
P 6.2704116211151915 2.4086683117884076 7.601696619846641 1.18899482986212 -0.3469184353316735 0.22593980406305603
Ni 5.96537696992359 7.522085119768244 12.809344390004744 1.476989751384708 2.672054441589992 2.730457307008917
