# total energy = -340863.37109568337 ev
CRYSTAL
PRIMVEC
9.31982958732487 0.00000000000000 0.00000000000000
0.00000000000000 9.31982958732487 0.00000000000000
0.00000000000000 0.00000000000000 13.64051266386159
PRIMCOORD
 96 1
Ni 3.1287505762301104 5.120071904732494 8.775869079985707 1.7328361131992094 2.0729190136662883 -0.45309933946582615
Ni 7.760090632196241 8.774954804730863 6.540952576983684 0.31005472953610475 -1.2065739763964638 -0.0156814152909988
Ni 2.463342723324465 7.424222623694292 3.413360455536214 1.0007160306849474 2.645725830997792 -0.4155612333110521
Ni 5.578607506549906 3.63119189390447 2.8182250475749484 -0.49290978659454465 0.1357892139188887 0.2678688401966741
Ni 4.2562914850649864 5.865378654271892 13.052101271832168 -0.21857179373375904 1.9510749490735817 -0.7470234819886554
Ni 4.651955518389303 0.8041195323700646 5.875828046888918 -1.7124048419280509 0.38412898294369974 0.6473767794285947
Ni 7.674562558662128 1.35491678439462 12.785347253491958 0.01559168379066992 -0.36837480543323653 -0.6573174355810745
Ni 0.793382157027507 2.7335711740296653 6.4069483433013374 0.292729865104412 0.6688118093739192 -0.0014313331298878575
Ni 2.2120614855968017 0.8744609440513027 0.37432535214705787 -2.981512160972046 -0.7625894547477124 -0.16336326688241543
Ni 1.7280175109709703 5.3885668671869205 0.11003642865808198 1.4641928567303557 0.6515959597162648 -0.36703243247272915
Ni 5.274268480587556 0.5278406484799079 11.806095080715558 0.09637394534605984 -0.20009404664454572 0.3515294517411236
Ni 5.255824538392502 8.157795708138403 8.398695588002969 -1.353037125089431 0.718388334750466 -1.7744357910178665
Ni 0.5757473670575917 8.193938006184093 0.9126470806636297 1.5043930830983252 1.753386169436419 0.09620296698583432
Ni 2.8526972322091404 1.7995099215714045 12.04155777216345 0.8025089166504696 -0.313002499310519 -0.8550051867769726
Ni 0.6140136542019434 3.8780555325414534 3.3017135603741883 -2.0889146177635958 -1.107944402247008 1.1885222611010757
Ni 6.971064563385999 6.618998691551558 8.457239959749645 1.3861735026320838 -1.170791933700848 2.32533912340806
Ni 1.1570754479031562 3.9178046045282677 8.468616675382542 -0.1375326789725567 -0.532539999391657 0.8326219339857659
Ni 3.6158234953801425 0.9777898915584092 9.88990369219144 0.44014740729084845 -1.0090582320020558 1.452872289511214
Ni 4.4624740687846325 7.652101770036518 5.226566798254588 0.9702584855260388 0.7194352879577416 0.7468532749593783
Ni 5.961149220212455 1.9459430796152088 8.81538608822282 -0.36306959117023924 -0.5736658228976894 0.21574383736666072
Ni 7.750891960671977 0.06242794461816565 8.74504188059279 0.5593139250513917 0.39186003303937034 0.8005134834869955
Ni 7.046461982465326 3.522886157548369 11.068143540463847 1.2713722038187716 -0.09717124443637458 -0.8667713261739652
Ni 8.78312829503155 2.4821594586917284 8.871884757436998 -2.316279584308953 -1.7544043262882882 -0.8620556658658508
Ni 0.6212495696745255 7.812207117671098 7.939406011994764 -1.3527992980470123 1.377252031772738 0.7863389917588264
P 0.02736208685723046 5.989043469323015 4.472328856291985 0.3833255132057979 -1.1012767604188454 0.7530835721398063
P 6.283624634002786 7.236474662340395 6.610178405097086 -0.07403105887448541 1.0577207302047655 -2.2534017138378095
P 2.863340477275715 3.2771129389400975 2.491862332981406 0.26347302512182363 -0.5812485203409538 1.6789105668253472
P 9.104997919917041 1.0441284365530503 7.00058325874446 0.04015111829758891 -1.008711133075282 1.312407781603843
P 4.010415748334358 0.49710291944832247 7.917512800973844 -0.45589772814656965 0.1703594956945905 -0.7152860416760585
P 2.933015521161629 6.9409615147301 1.2089188623793699 0.23286275643513443 0.7345808853499285 0.34959161128846244
P 3.3957264065077846 3.880282971745404 12.684202873973996 -0.733810068622175 0.052245073347645506 -0.10840053749329073
P 0.3430815563841983 4.3999007348293055 1.3110287762133521 -0.9741236249083998 -1.4810430955184752 -0.319386805570308
Ni 7.447820431495139 8.664831701660242 0.8080804598247883 1.2385597852744412 0.4948329717591865 0.4509987481830556
Ni 4.869862447374931 2.7772904933005083 10.933170976516688 -0.7187832561960396 -0.49730200212496933 -0.7148954911058591
Ni 6.294277198898666 5.323300102562381 0.5383869673217083 1.5261764975220038 1.2493334788511772 2.3295076529634526
Ni 4.8025360004739355 5.9898729341311805 7.214548831916906 -1.0714110832076646 -0.37147375607353444 -0.17145555697224663
Ni 1.0893389285127304 1.602805604255179 2.969170866968346 0.5308659541233438 -0.9700455981842843 1.8115116128242414
Ni 7.1514405397594585 3.63081910073226 7.613820571165278 0.5464774354083556 1.9813268059795879 -0.004945516930733419
Ni 1.481256390456344 0.6495622791208897 8.537378375996543 -0.7765914254537594 0.03931088178448069 0.5222998097208876
Ni 6.3464682430079655 8.250938082214892 10.233480131511747 0.8744157300931006 -0.09366708793785804 2.090763498046877
Ni 3.2245025025120633 0.90561154152111 2.3759860992806656 0.12780825259594117 -0.9700178302701424 2.7761005587693286
Ni 2.5409023428026054 5.87153906144265 11.398475570358489 -1.2568752957541771 1.1315890382491416 -0.4851417126133515
Ni 2.5299701830275687 2.597315269587175 4.760388936406885 0.3711184296166447 -0.1784885525596281 -1.03620342495828
Ni 8.265449056443137 3.5763633381017903 13.450390701071768 -1.4485880603135632 1.3542995367416224 -0.04185164592846341
Ni 2.9038537752655587 7.835301654689463 7.125299350541214 0.7651692996597468 0.8010277041192527 1.659852778862948
Ni 3.068963871237047 8.232307743433733 12.646364366994757 -0.008619109127578704 0.1283283867654693 0.8072772845733902
Ni 8.347221238767244 6.287669439921257 6.473705348631783 1.3169691757222803 0.5769149259626065 -1.0721451331602114
Ni 0.8524959703447321 8.13979911775 5.646653444273264 0.2783975076421399 -0.5343292300815959 -0.5266704279847575
Ni 4.267195685352108 4.336302219650403 5.040892498921104 -0.10339254275573806 -0.18149931436149386 -0.06827898688205661
Ni 7.666258590751165 2.302230834124921 2.919833554592309 -0.5399028675146315 0.4582500304288301 0.704814195610457
Ni 7.172475394501366 7.671841168504999 4.527477082239834 1.3059201169969703 0.20806446644453197 0.3141569246299364
Ni 2.192433925079983 0.798364537774084 6.477183508928496 0.8132057342426833 -0.025504314918691564 -1.2231645337652934
Ni 5.412146035329158 8.009340147135363 3.176616287558851 -1.0861823279795682 3.8785080903585074 -0.14366090335748163
Ni 5.568765766803581 1.0221615988806185 2.1566057052818803 0.8327954834491527 -0.5919198840118709 -0.1112392924936665
Ni 9.27757319916202 1.8362020895461026 1.1275148133128214 -0.8232435780946595 -0.31136650636899277 -1.9693369806075633
Ni 2.8289503071394093 6.195785242800976 5.562123524457741 -1.1205394653031993 -1.6678134284709212 -1.069370655738868
P 2.194754562576986 7.408360274216788 9.486676617385928 -1.945947140928713 -0.6611365522168485 -1.2926696797449673
P 5.9639265293454145 0.9162324189973523 4.316390404339775 1.8195748494483501 -0.9653420220610278 -1.107534568403099
P 6.633435107145362 6.430365346413662 2.7293297197128545 0.5727507672825878 -1.6088775733666616 -0.8790473153278409
P 7.272206887896655 1.3718229547543106 10.502962995872528 -0.6207679185918148 -0.6634495166207413 0.5232156366669376
P 8.485657983267158 0.36886113622540034 2.699347828837923 0.7586628659997966 -1.2709587704304368 -1.7549625127846034
P 6.347213829352383 6.985855132493403 12.804417488216323 0.0010541522961272168 0.35157907403213645 -0.04954592924892757
P 2.627781791585978 3.995737017178617 6.596660924672777 0.6893685504793482 0.6780343564134516 -0.04772070311473072
P 6.2388055748739255 3.4446275508723367 5.3478177775156555 -0.39046983756006304 -0.575826063773802 -0.13290983548856466
Ni 3.1769247739088544 2.527062396284336 8.27325720943506 -1.1467757732919088 0.08033026161963586 -0.350732409761125
Ni 0.11158165635688945 7.823260435227103 3.443751486917645 -0.635990391968524 0.5296102273393718 -1.4509437050299334
Ni 2.775091013584474 3.8020616443865918 10.469652061969768 -0.9029464905429417 -2.538948173819905 1.0972743241276717
Ni 4.852098852719159 3.676709940231223 7.370214212870473 0.4487176654583627 0.20221752074545174 -0.4343842795548261
Ni 3.922678875254904 4.986425552495468 1.3528645579816079 -0.5950219199759624 -1.932150601365253 1.3245549584893381
Ni 8.835449816751122 6.302031296880619 0.7924893173800658 -1.8529146012510604 -1.01857619879482 -0.5456801363180408
Ni 0.18507596629208747 3.804736435397194 10.690560907974612 -0.6396159045362532 2.3532651603943666 2.0170473993096487
Ni 3.9136572804874397 2.4323542908845694 0.8269848015875207 1.1383127301262201 2.065896302491552 -1.1704980566095131
Ni 8.5945695085281 0.8739930886201801 4.80257887168874 0.30703702575570346 0.3391927845526416 -0.5256862096946172
Ni 1.5418166412817413 -0.013286348657538657 10.73610598180635 0.8692976921402449 -0.11053326756557738 1.1347561231232135
Ni 5.283681508185841 6.042958681853782 11.063738057151264 1.0891745778386728 -0.08017085322363612 -0.5552245854733664
Ni 6.572185188951377 5.483396130367656 5.178306858146236 -1.1760210433102716 0.41270653747107633 -0.9791653010973653
Ni 4.460600783094281 6.037627739491189 3.3362370040695586 0.716262803767031 -0.795297743614011 0.7189143824572651
Ni 0.08740042724153464 7.53102786753225 10.206022050412672 -0.3018325987366286 -1.257410342322041 0.3027296566296012
Ni 7.705057040148846 5.91008587544909 11.350229609994093 0.6494331477369912 -0.7501360594757082 0.0032766138687427442
Ni 6.9259938688658975 1.6638411663751431 6.371414630109279 -0.36444975934721746 0.19827473404761983 -0.15727515170680653
Ni 3.929752625697575 7.683910347455275 10.41961855834463 0.6185765673674509 1.5923258396555673 0.4319653857006883
Ni 5.5887381610046925 3.6825814326935187 12.899300806407028 -0.10184885241770202 -1.0709595974925428 0.3932093479784131
Ni 8.004782750605106 8.175540663135566 11.9539858600627 0.35363647078179744 1.2549449115006839 1.7309265548813222
Ni 2.2612795041577316 5.253792815603961 3.1961497177996865 0.367913806636418 -0.45268410630527844 0.13606277929524954
Ni 1.389717027020356 5.848136970057213 7.379040091222528 -0.0924859231455633 -0.09368302877745802 -1.377934402551743
Ni 1.1513064735632177 3.1322455122195723 12.963001839708287 0.4734123399915654 -0.0013629417857976528 0.16879600786221252
Ni 8.441742947580906 3.867477526280015 5.4570508368876265 -0.6750696173581728 0.6565247644764499 -1.1299849269868154
Ni 5.3272517101878 7.910913429842809 0.9594596512808792 -1.8644251729938213 -0.7195152492660576 -1.6615425078605448
P 2.351942803639028 0.11932923045832876 4.485409236721878 0.3268489182753081 0.07551124296443769 -1.1867682545244465
P 1.0849586087392715 2.058424099500053 10.105559882399854 2.64746929605146 -0.28973915790720417 0.9105890946898642
P 4.29742921161828 0.42912222053009963 0.22451189201424593 0.6557714312501931 -1.2255178644888185 -0.5550867743439214
P 6.472174100676933 2.590017843241178 0.9848999893353708 0.9323923066078844 1.2463859661870793 -0.3368919043336069
P 8.665745044932155 5.196708861109416 8.223932944820051 0.6189465491123599 -1.168594154718581 1.0949551890761917
P 5.343375014885851 4.486565827538658 9.708238783425069 -0.038500727178359506 -1.4352612612976703 -2.2692412519732272
P 0.5999835831658474 0.1070596751779909 12.64459080347797 -0.7292779850797764 0.17120924528939546 1.2028677311894702
P 0.40201642897876305 6.19958773315751 12.270909451535903 -1.0655844492235584 0.3529803252550372 -1.2991578585724723
