# total energy = -340853.80324630754 ev
CRYSTAL
PRIMVEC
9.39460093889160 0.00000000000000 0.00000000000000

0.00000000000000 9.39460093889160 0.00000000000000

0.00000000000000 0.00000000000000 13.74994809488043

PRIMCOORD
 96 1
Ni 1.5808201133835504 6.93913412659784 4.695029818150523 -1.368886947637494 1.453414535167929 0.7206727599092685
Ni 4.492883370345474 5.115886334759776 6.465995716039073 -0.3199989852330102 -1.336939191086304 1.1741873325356422
Ni 4.823733033284152 6.3048482463988496 10.460987781146766 -1.2207428116976784 0.31983494885132013 0.41735097822162315
Ni 1.1396496510613667 3.3076980883029394 6.543394075725775 0.8502758996221034 0.8894327723272232 0.31092273396335485
Ni 1.4315117199064111 7.689208463954429 2.334342269302156 -0.8818109941159071 -1.6095517166155504 1.7092056182644626
Ni 4.484221548235997 4.122670329273705 8.772398442007622 2.230795289292203 3.009623574496281 -0.4851507114744161
Ni 2.136895940370611 5.408603312294583 1.4872489480987297 -0.2915235035011366 0.22490622059221912 1.950748161861782
Ni 3.6755530845271185 0.26528943995496135 0.605433181649503 -1.0867469422337865 0.5032067976451785 0.22954166248170146
Ni 2.8295128980942694 5.80334565654189 8.984064438992208 -0.4409961284443889 -0.26580552990974227 1.0006566382019217
Ni 5.434034497164817 4.151502359701021 3.229353692296905 -0.7047005528507283 -0.1127521295937671 0.03393444796391575
Ni 7.95878653925969 5.446388397461957 0.2746605544389132 -1.336988813377317 -0.8847201973429021 -1.5965504192598763
Ni 1.8971551177982133 0.6083614787769694 9.624345014080632 0.792982465217273 -2.9388963831840482 -1.2811117997040389
Ni 8.3186655192464 1.2041247976311527 12.067793360858749 0.3475758664100143 2.9173070870490463 -1.4518890996623381
Ni 4.976489245323307 2.128393826477903 12.79623756890421 0.8352408596658518 -0.26774928389967434 -0.6188349632351601
Ni 2.711836126138399 2.33947172144074 1.777469780151447 -0.4375526499804787 0.3641656524478954 0.002066138500409345
Ni 6.949468187682899 7.242748841276892 10.271555046856637 0.2808295141224002 1.6332603730864004 0.8011236062671686
Ni 6.024541536767099 7.302583054959388 6.155150916440872 -1.060612964150896 -0.6219879070418449 1.2921397753834263
Ni 9.455571946819735 8.917909537766052 6.408410569832726 -0.7341222005459551 -1.5057912489974326 -0.7997354676703904
Ni 1.0305783336090553 4.519977399590303 9.284418287668876 -0.43488872999507033 -1.5943354138864283 0.5395082031793741
Ni 8.057580163232862 2.262426598751127 8.51916509349853 -1.3941737472287408 -0.7857214127794855 -0.5867254842951249
Ni 2.603394246952177 5.037920541173493 3.8637626417688167 1.039176391543675 -0.5187863972509904 -0.3220977767435679
Ni 7.680161463204509 8.12280687788156 7.884330568601935 0.619936423829455 -0.18244188078042128 1.1994844165395342
Ni 5.792955227850912 6.555383465504642 12.733524849479476 1.1201021206554644 -1.2296730243077727 -0.9240681030129052
Ni 9.066165735932712 3.8555160610229393 11.425904430081452 -0.14609059584489678 1.338124983864289 1.077552677329028
P 7.50090308178267 2.780895837989557 6.2442915879004985 -0.2998538777437029 -1.7213659077760808 -0.812331559167846
P 1.5304274736924048 8.89590738225586 0.7271796947526897 3.446250627338697 -0.21447011286055967 -0.7083834010189543
P 4.638001771782671 2.3043453083525236 1.0807483212568225 1.9712475673667145 0.2487051227840298 1.1321888766166697
P 8.481539716547926 4.508440829578982 2.8120154537570663 -0.341956720451024 0.7185572562281625 -0.10525813520956712
P 4.266783508405355 3.139807174074666 5.180155739567959 1.2985518495573574 0.26780661950017104 -0.5965036467278114
P 7.246703968292175 4.917519334931563 12.081213548367847 -1.3842176644572937 -0.8327905983531464 -1.1831828511660334
P 6.708383937169444 7.936840751355418 0.8108527084382205 -0.13450957587551673 -0.6177895526897813 0.2889914811079023
P 6.777687908646248 3.8583062575159053 8.63720825489287 -2.2961776713527553 2.0134560824139647 1.649677895212475
Ni 5.9431842922247204 6.362653226268279 8.443911521217029 1.2395928545246457 -1.2707335417935084 -0.7110817737867238
Ni 0.12838661708038676 1.5976364491492383 5.122378004041391 -1.2750959325272622 0.3564415443307603 -1.5936373593781392
Ni 0.8027320153455609 6.849669341404182 0.07322433846843689 0.5107743255797913 2.006956847842866 -0.8940304190002344
Ni 1.9836512090801628 7.811272514570957 7.7734921267040775 0.5223954547584875 1.4067654678508223 0.9578341437197568
Ni 1.7916067757158083 0.9818861166964512 6.5261108282910625 1.6340694992512568 0.728715427708087 0.2310061628423699
Ni 8.232920996043363 5.50160986206012 9.412967431346328 -0.3045003753767788 -0.2034693908746818 0.3990611787734998
Ni 5.096899846166225 4.199161170505119 11.592732814938161 -0.4178729121633642 0.5524817326209065 0.11982369172856784
Ni 4.935660309436335 2.166160122443303 7.134765418618808 0.46268106961699024 1.3173358150330796 -0.7058053558791328
Ni 0.036433202085427184 2.6932536053872647 1.2441777394766467 -0.659194083778497 0.056720335510179735 -0.4220509548004538
Ni 8.65753817142748 0.6321796106578348 9.8725456748413 -0.945585922480023 1.002884499091176 0.19602424745054628
Ni 4.548978532835375 7.395101085473631 0.7208120342040956 -1.2303944758548293 -1.9638667015216114 2.5541878735877948
Ni 4.698146007297718 2.143227901435457 9.554756386193938 2.3728888481625647 -2.4371453441487896 2.9213601740724977
Ni 7.072471698398068 1.797760239361912 1.7421874166868556 -0.7296723923047176 0.5985458739688208 0.3954847742761512
Ni 6.636947391268722 4.654104117873391 5.525430812321282 -0.7541359246637206 -0.15785956345536686 0.23680142936790832
Ni 1.177857493273128 3.2816374651666163 3.201084398468675 -0.24486466599201698 0.586653236296293 1.1293519213885066
Ni 6.37872738855604 0.3873534905714888 6.415272386393206 0.8943968012007176 0.4608684418882837 -0.24296616341772354
Ni 2.852435724501129 2.6058274486076596 8.538689892728604 -3.7742717115452353 0.46961096396760416 -1.782798046939633
Ni 8.555869799552466 6.724805699693702 11.939121147908375 1.3404767719259174 -1.4974912137721694 -1.1432214802817473
Ni 5.778365412519006 4.373891354251505 0.5305375436655824 -1.8430032556746194 -0.09546300349601625 0.5374240669568356
Ni 6.8967175031441625 5.96875639610975 2.398554367044322 0.08643071809041888 -0.5322733759938317 -2.392094988777371
Ni 8.840422868830077 4.167351051565108 4.887130619120796 0.6699171266229559 -0.29115969240381473 0.246012406443215
Ni 3.9122218725769575 6.734735792936346 5.0627720791628645 0.3242631598260028 0.43190033679070783 -1.0659742284628093
Ni 7.414021811860277 6.580326131123582 4.453676882048856 1.1066038290587135 0.6968910841086385 -0.8745185742195519
Ni 1.1748512209574746 0.7087174248941812 2.6566963945688165 -0.5382434775343375 -0.04549875576274745 0.18498958690293948
P 2.45628419010586 1.9326573149258863 4.303156585044469 -0.1361278282052301 -0.9802461928663699 0.32867517285076947
P 9.158420717619336 6.153407278497793 1.654916270823527 2.060557920997774 1.2256723877888118 3.6396981152010026
P 2.939833697477775 3.6478671954201447 10.426434438718722 0.25784925117714297 0.6938782654242436 -0.04228179148734654
P 0.5872405368393049 1.6943068932994785 8.086481713707478 1.4816974412730224 -0.027017409129108307 0.4124057184012059
P 4.078759964263187 6.9560162245704324 7.877235765936992 -0.31196325941272723 1.4110103591701055 -1.7504124315200758
P 4.07363990672559 5.618262622508472 2.140619020741529 2.0164892128133336 0.12107633318874632 0.6712265894629988
P 6.245061005721286 0.8023599891464988 11.682533926847132 0.7884179857750422 0.4989914740122503 -1.17454677275759
P -0.01167936794631471 8.226100515727225 9.754571094034159 1.3516515575958141 -3.4139426592346105 -0.37487429711465114
Ni 2.910992272449472 0.86356675403311 11.985898745139947 1.2064932437571996 -0.49617740160222285 -0.46280371123778363
Ni 0.9585593224471757 2.351337102486586 10.349860924998627 -0.17941337836674265 1.2502894150065436 1.0948793415329339
Ni 7.477632655139313 2.9939935721644737 13.51782183930939 0.3823127556705674 -0.01393332225164052 -1.4349398734025092
Ni 6.206674666090783 2.0537631162417993 4.497773260158905 -0.3670442595472711 1.5301277688602681 0.5847213093809027
Ni 7.317614416537657 0.10730795084716097 3.9604941508254683 -3.012403965454896 0.1713912793932145 2.100792857258421
Ni 3.5924390496002796 0.5071900812941367 8.029625588537677 0.2710726918459525 -1.5792021577894158 -0.6977534321089338
Ni 5.2761300437851055 7.371915210239152 3.128704634628917 -0.4243556916742305 0.7308113910051672 -0.0570203832491018
Ni 2.9977232287560818 7.835285114692241 12.607698261167888 0.20582323581883907 0.21454673173476596 1.972663216767319
Ni 0.6622291813729909 6.051419490189241 7.62741265758597 -0.9541890907680017 0.08166337860876259 -1.66912649085539
Ni 7.08589658320766 2.7942361713902706 10.753421981191883 -1.2362203385079868 -0.015968093293482175 -0.5012884975765431
Ni 7.66552467486767 8.610715480111173 12.598568587929288 -0.4210819060189651 -0.9995577487107882 1.0583388234047384
Ni 5.09845934992997 0.7653292904383354 2.6331563428771494 -0.39190297046216377 -0.4573809975603155 0.4295670606718408
Ni 9.48694991411437 0.6217600587037987 13.769885559995673 -1.4380339389468009 0.5044764083862215 1.4947468182578127
Ni 3.0672996436614928 5.348008135932188 13.069078389132054 2.075800191868825 1.605653924223041 -0.8458088649896852
Ni 5.406442554067708 8.829280872060185 13.070095824418885 -0.7308867243277929 1.7139351625296482 -1.665542115938241
Ni 3.1781371460992505 8.782674256566567 3.691503238081858 0.18684643760602015 0.7470509927924811 -0.7665728648754927
Ni 1.1709900399520567 4.321554032156171 13.63465497609668 -2.5265706260911585 -0.5436785325069798 -1.0889971717205438
Ni 8.110631475003164 9.119545858737538 2.022672623737348 1.0062320754071703 -1.1009808264449812 -2.8295604783606816
Ni 0.9139283915410003 9.187055461425937 11.707173146854212 -1.37446984104191 -0.9382289678943195 0.18560588033069972
Ni 2.3637849487935894 7.738436173123259 10.488597573985752 -0.13177186522937953 -0.5996887293240124 -1.9096135966050016
Ni 8.534281006485678 4.2412583775252575 7.420558575226626 0.03195109898529981 1.6270953819262686 -0.6230299751531141
Ni 2.8892061927619688 3.1137935239432744 12.57391527602073 0.6069775496759418 0.2371395294336174 -0.3740330321602784
Ni 5.797981339378645 9.496720299140243 8.695178579739661 2.5414603987187974 -0.1526816187988532 -0.5856829019632236
Ni 3.097926042877215 8.695943300259957 5.966666097390272 1.2087231615289828 -0.38680473000364995 0.26598190758660645
P 4.358521787037725 9.279714410954977 10.0563961372253 -2.8068900333463596 -0.3683408668715076 2.183025992327724
P 5.225286463246611 8.785464453059532 4.881960770197971 -0.9905704576105135 1.0717311855512444 -1.317762618157853
P 1.395135824887001 6.232368899788636 11.934817481196498 0.6982830793601588 -0.525329597686147 -1.6923893180380722
P -0.18615589746606762 8.848765274506016 3.9829754309859666 3.322365621056562 -1.4271777129585872 1.1969799049501257
P 2.3196491133593984 5.289771004417385 6.028416809673997 -1.2015569827978467 -0.023232488165379345 0.5772111170467866
P 8.505674446482034 2.3303307746809554 3.2815078196730036 -0.5424564871744206 -1.4484217099390282 0.20846658697895712
P 0.9401459045137965 2.317911112176911 12.756651538727741 -1.079130049118477 0.03589671389660915 -0.522656678839674
P 8.049998720236822 6.5722279850732885 6.412040643653878 1.5919658852129874 -0.812493024446375 1.6423980737216102
