# total energy = -340896.7030031942 ev
CRYSTAL
PRIMVEC
9.01619498429855 0.00000000000000 0.00000000000000
0.00000000000000 9.01619498429855 0.00000000000000
0.00000000000000 0.00000000000000 13.19611273048327
PRIMCOORD
 96 1
Ni 6.472681188602477 2.0466942591536923 11.344909353708092 -1.1540193422281997 -0.9787760360787466 0.8817174059608364
Ni 4.50278687702401 0.25096758637542776 5.967585839563161 0.5723054522150531 -0.16080013414092953 0.429675304114931
Ni 2.6896661611767017 1.595767307042902 4.835847818960271 0.8999426707196113 -1.4419276175742521 -1.0334610863264524
Ni 3.4903222946088572 4.071821780270294 4.984514953918374 -0.2550585758058833 1.1210871102765532 -0.7312374227989923
Ni 5.060681964616424 4.636316722479409 2.6037120709889945 0.5082541302610989 -0.5082657002253247 -0.2440095170805733
Ni 7.29077464283887 6.11148340745537 2.5358309433411486 0.05991364563649682 0.09876172885194603 -0.46287595923661573
Ni 5.002888155746127 4.682317348510026 11.256706624529395 -0.9317227913446857 0.0439218981939308 1.1514274131313071
Ni 5.611111642888306 7.835433956418554 12.278282973441323 -0.46650995644477716 0.4824618517883432 0.057462098772210715
Ni 1.9273468881683378 6.349123254630785 0.4819976611198278 -0.3287525630559241 1.001531070387075 -0.5889114362028502
Ni 2.7335660138115654 1.587003565666626 0.5037907056471904 0.521668861005108 -0.11185070082542027 -0.7875021588289922
Ni 0.600083666448247 8.980039890285045 4.809046278203978 -0.24929904761428678 0.010779350003691113 -0.8148260434549258
Ni 8.695651072907992 2.397902096427433 1.30127404011812 -0.3717398652507275 -0.6804977303522797 1.1035074495215769
Ni 6.978895447420391 0.657438386630247 4.644608916865994 -1.546063466253918 -0.9341841084009848 0.7664921322362284
Ni 0.6229748835060936 7.520940064498923 2.6420065552970775 1.1395028937795795 -1.021071711523164 -0.08236271866863235
Ni 7.4875621112324895 3.928338055720854 3.736083028469059 0.9264916248527334 -0.661217541966429 0.37491286366207044
Ni 7.721189751707862 3.8034637573037537 12.612488070501708 -0.18965665336130563 0.5065975684942823 0.15463951385617236
Ni 8.028073975189656 8.846744465895268 6.723326896822419 -0.5263402983388484 0.3677585120054763 0.5893670356830302
Ni 6.720653595054862 0.8850477170555533 0.43784445341019723 -0.014954564427303278 -0.7625100076600287 -0.6517342850663421
Ni 1.5980754529197811 6.71006858232261 9.243758179391264 0.4248773685056554 -0.852356436300216 0.08185389735301386
Ni 0.22363769660200428 4.6885385229438015 1.6209179825255373 -0.5808751961619351 1.109549541950599 -0.20957833198589712
Ni 6.444712952234981 1.925354309110563 7.132221250247961 -0.30837168540672694 0.3295812296048066 -1.041380598283845
Ni 3.396103058619059 4.347996844155795 0.277851174504689 -0.19583552847850788 -0.22140052143180577 0.3712444136715477
Ni 5.9578023665514355 5.538846841313356 4.862542968617553 -0.4345688847618064 -0.33540477826511916 -0.6040027833183339
Ni 5.162763322499341 2.937232838861665 9.381736615376553 0.08039351075740347 -0.5369054754492043 -0.7918480945025137
P 0.2277499830646786 5.630370235048517 12.40051913325071 -0.1389771247285671 -0.005753357544009447 0.10573018974997919
P 3.9829130830362844 6.209408299520938 12.50859535907713 -0.5326050483016377 0.3296521920520581 -0.11513297112111784
P 2.386740047225962 8.417591624302693 1.3588956396671343 1.108502331633007 -0.0954635177166485 1.8470103199514833
P 6.312373244497349 7.778262264991634 5.851116437968041 -0.562114113504348 -0.17565185444178136 -0.08866320696536344
P 4.743943040183735 1.2185297152904482 12.470880616096716 -0.41323772738419795 -0.6996151679080209 0.7631363283901179
P 3.913596577171254 6.131138712188169 8.11968662925365 -0.194000275041982 -0.06955322560878989 0.7735498104139581
P 4.700629240212923 0.9946936624021496 3.888102384665536 -0.15313670405840077 -1.0066719911580662 -1.0564935426658837
P 0.2690342375789069 5.538973068040997 3.817252224059658 0.15769784106652196 -0.9291262342621031 -1.9993759501718145
Ni 1.4694414012579204 1.1297111800047546 2.653553596017856 0.03974822643221542 -0.17311674672475347 -0.3699935719835822
Ni 1.8802823511475966 6.57293225893459 4.823205310567459 0.4726222399901021 -1.5303303717893773 -0.6693067467324667
Ni 5.997149040796361 5.567329000786252 9.328741225395612 -0.25690925586137686 1.2022843478821745 -1.8134016307581027
Ni 8.48029925935619 2.355634175057082 10.265810583390298 1.4030651361810997 0.09005468799625135 -0.8466601572463871
Ni 2.2398662334198565 5.12546332448118 6.816900573262278 0.5614158018857428 0.23045414699364186 1.1555704887654032
Ni 0.5459576456354284 -0.03486742865260728 9.102150724986272 0.9059251135552915 1.0878080365084493 0.26862860118083415
Ni 1.576743135948311 1.2229476507579125 11.338363596260379 -0.5427565349133426 -0.346649497941003 -0.048807508421006264
Ni 4.215855492704458 6.807019725346371 1.5866609502630267 -0.4480172969572284 0.7075305661003557 -0.14402779977859712
Ni 5.439073629307317 7.908239729683397 8.10749402898293 0.6381601459263332 -0.3696606141241956 -0.6584093830936726
Ni 5.373210326062774 2.7495787758324153 4.853886519959773 0.10097647711507772 0.23979316500638057 0.19448801331167795
Ni 0.7670690044456296 7.347847156122643 6.797726733333482 -0.2720417406274412 -0.5732534179506192 0.919558645178326
Ni 5.105203934694665 4.522568408484452 7.204140731560862 -0.1926699862663327 -0.3246555101684151 -0.005309070917739245
Ni 8.12505216679791 7.253844308808802 8.817167740369818 -0.8764165625732132 -0.5335069912906167 0.5250022962537152
Ni 4.689178672776842 0.3748320709713935 10.40861809332737 0.2081832514105834 0.010571604868259213 -0.094998662265088
Ni 8.023574893968707 6.948321530746573 4.716568069436153 0.3629294660479492 1.738108417341742 0.04582322898170173
Ni 7.2662325605073645 6.034999026699249 6.83313152719805 -0.6186354456298443 0.29671301812187606 1.0742089576677756
Ni 2.4426855361557895 5.209602454649294 2.546348334612163 -0.3362028486863823 -0.29385960783348103 0.9162334374598349
Ni 2.2032154014295666 5.19472573317722 11.370984189160964 0.26423150055440303 0.5313626912541042 0.3566554601137793
Ni 1.1397371886574488 3.311846717918135 3.930884229141286 -0.5708165263743524 0.6289687092350522 -0.6390777726445962
Ni 3.772267723186557 2.638760725157716 2.6632126455409058 -0.7767230659356171 -0.12078965518626296 0.30701260027567123
Ni 1.1017519598320882 3.3339183628657927 8.147662980196495 -0.6982571112182296 -0.36141945716132595 -0.17439201389275125
Ni 3.6550301417917876 2.5910380059142715 7.001844368125161 0.640265365194794 -0.06891610624542324 0.4192206844405103
Ni 4.2339329633417355 6.68382243916794 6.08789433691756 -0.41162333170922655 0.8882372093572252 -0.7227237289010262
Ni 0.8732229775339629 7.685864300357811 11.460467218005743 0.9811471074140845 -1.5036495200640814 0.05434566463041608
P 0.22548241006454137 5.5155760424531 7.951383123571893 0.006162677167286161 0.029744835362600388 0.7017065032194109
P 8.521259832475966 1.601231121110827 7.952782437009751 0.2922482974823032 0.318962830659012 0.40793868376878784
P 1.7788681916822142 3.262077322447926 10.218831700220456 -0.5396562987214641 -0.7195098499494189 1.304376169548618
P 3.9685142198902836 6.020681309306732 3.8410324379278964 -0.11747010389472673 0.6046612428379392 0.5230361736662799
P 6.819507155188081 3.9347666026357557 10.423292852035217 1.7137495288814033 0.13498754395319978 -0.31825269196586475
P 6.3304687475242885 7.686603628333999 10.108842237850778 0.4879079625045791 -0.28388784133274975 0.800316536984841
P 2.462755585850841 8.349456239960597 5.861528339759526 0.21395486378703799 0.5368501967312367 -0.3327346876321237
P 6.99564753741743 4.034206215433027 1.580973534563279 -0.5650318013717752 -0.13494614919230308 -0.555925725305449
Ni 5.175043379859926 2.8891224232404635 0.6076464506729591 0.7421736100955217 0.15909266453151957 -0.21347278194429686
Ni 1.558088628841814 0.9062718396890446 6.9763492739999595 -0.8264952522627379 1.189187148378584 0.5719100165488473
Ni 6.9102371237780655 0.6720707692223852 9.115175520039942 -0.4669871531915119 -0.1868523511432911 0.19330350608527355
Ni 2.8344932987560436 1.5771218161312366 9.147650952203739 -0.28515282408810244 -0.1791570393815624 0.10504781897097393
Ni 6.261539938037015 1.8811479058514262 2.6335610855983558 1.08233955719471 1.2327902297805156 -0.2452513599074744
Ni 4.084796084632908 6.9643883899364125 10.274268675761784 -0.2292724679807148 -0.2830982555519189 0.038054383669560266
Ni 7.845387835512596 7.361759144747738 -0.12388972994149412 1.4026200782238811 0.28061148457432317 1.3309845161647658
Ni 7.580483015166543 3.9753935765467636 8.187514561351989 0.2987285058900081 -0.7526346575278456 0.2486860966206362
Ni 3.1446954819358517 8.42809549128146 12.42836294612953 0.65981217697847 -0.2862532562411328 0.12375413713122557
Ni 0.12201886951394551 4.794163245395522 10.178306609311045 -0.6505646902382731 0.09339506522339398 -0.16951514541642418
Ni 8.503912673620045 2.243986634457879 5.642512344628178 0.6061105736899561 0.41055786655918963 0.7136325652330354
Ni 3.5882111218950996 2.8679523977759613 11.428083751029229 -0.33554181806361566 -0.8836835285482717 0.22196076481065002
Ni 1.06609290927327 3.183329876789084 12.54624338221579 0.44499882184587874 1.0745910235975429 0.19328036615682198
Ni 3.0130139564209233 8.164561132549805 8.02320973807803 0.4836466161250638 0.5386697664384789 -0.045176339426322196
Ni 5.51118515557013 7.702571309380691 3.585819125406287 0.4894282558038474 0.5269625053038796 0.37053324653713604
Ni 3.069834016249412 8.29026492089141 3.7130430441964917 0.4971657336574212 0.6219603962380191 -0.9767044982616987
Ni 3.321899775155324 4.490425673909942 9.329928658254929 0.3506527055631251 0.023626124059372214 -0.7352642845701982
Ni 7.162636481892744 5.95632371059906 11.433665677249449 0.6519746832119223 -0.04802203640523342 -1.265150391278776
Ni 0.688564094427757 8.913924133585217 0.30047010247862255 -1.2587735412181549 0.7628493932773185 -0.14902036789718207
Ni 4.633170070483194 0.38947166651939685 1.6726601214248915 -0.8324836086356888 -1.0409311694512524 -0.2308416122400476
Ni 5.931276721356987 5.58564089248915 0.2924294599278377 0.12155147305295196 -0.29329010848325615 0.5571529128443308
Ni 8.033438611114434 8.822337626486236 11.0509786973408 -0.9958342771126141 0.9908437658765581 0.7201675381380759
Ni 0.030779485915978157 4.739759525781891 5.899533404213516 -0.06675483692804632 -0.9537648587463895 -0.7497488513396185
Ni 7.834388077818093 8.90728821418919 2.4554398453645137 -0.2540918410172398 -0.7662478774359062 -0.6582281203208018
P 8.474033003948257 1.6517668931417184 3.4579090741894003 0.4904803512174456 0.6949409023608032 0.652299670651509
P 1.8794167964437667 3.252925884693893 1.613488637984332 0.17346384565152706 -0.3958912656859504 -0.01685718076665484
P 4.761037745584373 1.0307133607542303 8.21318096317899 0.09289010056251745 0.24189735583357697 -0.18029603808201206
P 8.457425173068524 1.5977418537110133 12.501376993494983 0.3524054265881737 -0.6847364510239755 -1.3720787151019145
P 6.300688255995647 7.695619823165559 1.301983614651364 -0.6066363642864392 0.5105868921593335 0.7330940163917569
P 1.7757485882704944 2.976011492832203 6.049282482551405 -1.0513901600010473 1.6078702151480695 0.21626448575682108
P 6.7976518989163806 3.830836924812368 6.027905084605778 1.2448507604894754 0.7393374261983073 -0.162552598055662
P 2.568993409551108 8.613919266759904 10.265321905630428 -1.2464911243063759 -0.09682800216434292 -0.5483985636904685
