# total energy = -340874.6482280007 ev
CRYSTAL
PRIMVEC
9.23421602476681 0.00000000000000 0.00000000000000

0.00000000000000 9.23421602476681 0.00000000000000

0.00000000000000 0.00000000000000 13.51520856110439

PRIMCOORD
 96 1
Ni 7.847412072123775 8.86427468636304 3.995973932658278 -0.753016980567929 0.9715975160524363 0.6373484486583153
Ni 7.6024929653622895 6.911755151993792 5.501527870813011 0.3940372431963472 -0.2732848690059229 0.7249929845511771
Ni 5.392818988241699 5.504432955116717 6.776173777902418 -0.9190958466092944 -1.2236908385824086 -1.1185725713848154
Ni 0.3322729417779732 1.4972726933881655 1.6149590806004879 -0.504227268489893 -0.2800180739646984 0.7738629707790028
Ni 5.015398118371947 3.2627347174581476 3.046949561676283 -0.3120630182153851 -1.0327324356905438 1.052850803706974
Ni 2.6258231482291787 4.910294273665118 9.804567182845407 -1.302598508822905 -0.5268321503736024 0.4959048646671266
Ni 2.2310234841459096 5.859229996175036 0.7576129279135089 0.16478920069566458 -0.4744988881875248 0.4987775582292313
Ni 3.69702912269509 5.318511253365944 12.457264669437816 0.5082834408371375 0.27146632773994533 -0.38149308798274945
Ni 3.4803297795449266 3.1275088606766674 5.814701683966216 1.5851187803841669 1.055122887570602 0.4714896690475558
Ni 8.749040906878195 7.4479860659039625 11.79674952109664 0.07232744591981737 -0.001655276215235859 -1.565384278069717
Ni 0.6843939070854541 7.681934924245865 0.5993126125875353 -1.623485038867191 -0.9872496207673964 0.1438845893325135
Ni 2.8535112082306093 4.235356203601259 3.5815441725393575 0.36223783929756326 0.7966100346675313 -1.0965065927237116
Ni 2.9395279287932623 6.223492108470791 5.208328589946344 -0.5303278222316866 -0.7349662937138052 2.1478710416931466
Ni 8.128732457732063 3.1433640092763535 0.16805903462716631 0.8815240590031077 -1.2459167398601445 0.14681796092922456
Ni 7.960411171375003 6.7078451977839695 2.9445855088095976 0.7088127752468889 1.0559731513860395 -0.6680263373581463
Ni 3.8979010198930917 0.8384030823099284 6.396978091747949 -0.6248413173302401 1.5854620226561986 -1.237783569230049
Ni 7.21817413625901 1.9993000718217862 9.909945283762726 0.13877812134388356 -0.14376246193235243 -1.1663197568621075
Ni 5.745196664749572 7.5703578942342125 4.295322277853734 0.33677903290482647 0.9492908821354361 -0.3899633302372897
Ni 1.6812829124597684 8.589722980966497 8.296053678513502 -0.18418637427535375 -0.2731277746027683 0.022109687414845793
Ni 6.793751107756526 6.927887327068721 10.169869991266486 0.6022487767417047 0.056706451553108786 0.15800585922524402
Ni 4.9900317274556185 1.8403792171912705 10.494843285421833 0.300107902736038 1.5071865866830623 0.2639957303945131
Ni 4.697593345974282 5.961692855151224 9.462253878183077 0.6462773757168289 1.197438332643783 -0.7730031938818688
Ni 3.9884332720021893 6.58099477477064 3.3349185826903813 -0.030651149226953663 -1.9055162866071762 -3.038795310964231
Ni 6.752252541765269 9.200492485148459 11.188227625050475 -0.6914586002391576 -0.011060371579219661 0.9255644850527738
P 6.929503314840965 2.023410609383685 12.2597937339342 -0.025673236396388046 -1.2348553398396604 -0.6134587865249111
P 4.555820430161249 4.301251567845498 10.748821157923732 0.018166643606697747 -1.9442635825787034 -0.08272524421437366
P 2.1442218552367374 3.658550145283971 0.9928961304444922 0.05307965343379891 0.2316152571812785 0.5044121308071893
P 4.970704513699565 0.5638449129622973 4.119313506808706 0.37695791911655724 0.516868097182355 -0.054714617934060614
P 4.823705031720299 8.072015904034178 10.893649675758684 0.4803005824709664 -0.23464607358780235 -0.5200207838787239
P 1.0026603902751898 3.903746278520699 11.44351583278027 0.3019225873472736 0.44260641035430226 0.82507985997245
P 7.501886183770223 3.250222354993049 2.549373998699802 -0.013970089026846906 -1.61857191783629 -1.715120698197317
P 8.324193104447005 9.068978783135224 6.2014934360718215 1.5309677482630601 -1.2390086998864016 -0.2647724606595375
Ni 0.8073327162683657 8.805545073611729 3.1894944579336575 0.3962854158005756 -0.2011515413747826 -0.527963178654252
Ni 9.316400362389727 5.14076183263481 0.4866948864505581 -0.19807264533914273 0.20851878037313124 -0.31979535386263636
Ni 8.754239770396902 9.09070689301004 9.815622386050732 1.420664851540734 -0.5434414767955092 2.6337470613693603
Ni 6.175150988541056 4.112845862033389 12.377903971653643 -1.828254122389903 -0.01434752697092368 -0.9542703376278985
Ni 0.5683539805576535 5.310966899023518 7.129002084143351 0.790565114025032 -0.3190936998099214 0.9700687381127358
Ni 0.48623963960957706 3.7929633910714076 2.5876221207148857 0.118178442815661 -0.1583334177679918 0.18968570682702815
Ni 4.293596402912977 7.072716768325257 0.6323240107989607 -0.9587052334708005 1.0380541050137737 -0.9382683057726873
Ni 2.30918188702753 -0.03308434851657242 0.5826254611405393 2.6873679320186104 1.181704981068926 0.6970258099142899
Ni 6.296571692639641 0.4298148871322788 5.946637389643403 -0.5051117279773751 -0.20876406361471786 0.30712727147666463
Ni 6.102329962415765 8.905523928526579 0.21184953299025935 -0.6404414857613422 -0.09887485739104261 -0.4265017914829558
Ni 2.9091565928908936 6.252727635824668 7.793328193362272 -0.4020531715222882 0.369517403678112 -0.3080667525717985
Ni 6.388535248204156 4.126124664413323 9.102830494988217 -0.832901670009714 -0.17524716280419497 -1.255088893277716
Ni 6.742482741405066 4.914809805211564 3.4782465404511065 -1.215114152656991 0.7672063846944336 2.461843875336734
Ni 8.563100736695738 2.0704866417431482 5.9967791816622125 0.19120445746439974 0.06500802944026869 -2.379786346613346
Ni 8.573479995301472 7.7357334657378685 7.969147662982552 -0.8791419319241762 -0.8759524784526012 -1.5726710415391172
Ni 2.4910128311605617 2.4440476093911947 10.62673836054932 0.4280421393868822 -0.23399738426020988 -0.13977622359109476
Ni 3.695422369138686 0.4571435489149058 11.832294788134945 -0.936646196788232 -0.47972799779694797 1.222740044633365
Ni 1.4640295163591208 6.0179754007045645 12.01370926913353 -0.47989640505401227 -0.6296683064052382 -0.6270516947179975
Ni 7.966773546089727 4.480229139283538 5.807957936137239 -1.7234081350170898 -0.16936396455054056 -0.650532294338441
Ni 2.8357353427359118 7.390013658851647 10.42730792444416 -0.8016308849208904 0.06302185224817533 -0.03558920995851935
Ni 5.900405364611844 2.992864759493196 6.421521714032809 0.4451644008894656 -0.23004457026004899 0.5143242477145786
Ni 1.4710105835352203 1.912563082423504 13.10619734084912 0.36223706796661487 1.363882038223735 -0.9519745996151863
Ni 6.535239235276498 1.0673460722442056 2.1463771212141203 0.26885280137649825 -0.16449198117021993 -0.3877357264583516
Ni 6.81064972274629 1.9593251514443601 4.226556919325988 0.36708565430816775 1.0309573460679922 0.4731434026008948
P 8.213179361601679 8.829969574512235 1.7424208087025177 -0.37073302125276797 0.004839587480488439 -0.05588935496845213
P 1.16826681717488 1.2157953261105723 9.314924734698273 0.7633109062947693 -0.23881897401856933 0.4948841367120961
P 0.4095171572912947 5.409209721360187 4.999924342886511 0.41523238921672356 0.07637461940599749 -1.297941469666868
P 5.755760607672134 6.628449409979601 2.000602096255424 1.4687293111481285 0.09737179048295487 0.9268250969327522
P 2.2916461111447086 7.586019124301229 2.0541633184003034 2.489797937347499 1.8934123042547908 -0.347303329474918
P 5.382227342671612 1.2330817781656755 7.85756601586298 0.05656529798955419 0.880435196814303 1.323168876775089
P 4.452932797256356 1.136048638104231 0.4148803898519805 -0.3178737113598913 -0.5503438603422973 0.41025370505520964
P 4.754125215355341 4.8233356630866435 4.706062968744015 -0.2051969150887498 -0.5013882563792011 0.01734389059508626
Ni 6.916787799627357 4.964286733689791 1.1353265224254334 -0.24159576543275812 0.26866176841161477 -0.19676549649194502
Ni 1.4192620379600076 3.284776790671572 5.088137883397834 -2.8282944671640644 0.06289561108295619 -0.009936542387421596
Ni 4.748233785648527 8.164238017642253 7.245732730016088 1.2271129768900804 -1.9291588657267809 0.8561511274559578
Ni 3.1124293862076593 8.503678557756322 4.1532233942214996 -0.061023590871223936 0.6167706245069635 0.5078903191637769
Ni 8.97776319905386 2.0283970859380416 11.386630292932486 0.663061022933071 -0.4505734877201788 0.43250043226855195
Ni 1.70679705082956 0.6163635921386827 5.437925362362193 -1.7038829204999686 0.14023310862285526 -0.10245074766775904
Ni 4.33928730289623 3.509999315043349 8.509202465672647 -1.7260849105183047 -0.9409319686477795 -0.6610761312925582
Ni 0.5228616162149903 3.296005597134716 9.430844616420135 -0.35800734615598345 0.4461856430651283 -2.481757840651842
Ni 4.280696203382539 4.806372408585989 1.3820112112557947 0.20236587339785797 -0.993156987390767 -0.30109957722534597
Ni 1.8000626308277126 1.9993000718217862 7.264370147848788 -0.275478534223132 -0.015677301525940743 1.3836777327934235
Ni 2.65818907475329 1.8794584186320806 3.454987397589785 0.2807742354044326 -0.7589024928144285 -0.03140628222542333
Ni 1.327123032294506 6.267031436162998 3.2479479676313114 -0.9630606822260189 -1.3894807126284459 0.6471978306485694
Ni 8.380429478921139 0.24117924934571802 13.068274263231654 0.18736888576839345 1.0792604040487541 0.6901463091856371
Ni 0.8379542994200364 7.391444962307063 5.869790245411262 -0.26128733032441454 1.1616534617346896 -0.3217144252622201
Ni 8.62400039016978 1.1176540801481598 7.976892399808735 0.04849331961469713 0.8194095490605502 0.7507202141139523
Ni 6.6438428477872185 8.89268836850703 8.78720961463704 -1.3933329964950005 1.278218537316644 -0.7440916530538412
Ni 4.469914520188692 8.894045798235718 2.1857204212279946 -0.4077242537651365 0.21447731194941125 -0.2966924492965858
Ni 8.191405080647655 5.446866853561421 8.888574525349688 0.7243509800918041 1.1020180094602439 -1.5722570939301503
Ni 7.665885857113509 7.01816102113426 0.320600892954442 -0.3933155345389743 1.6062542768112011 1.9061035265692141
Ni 3.8256525151499683 0.18197869158649457 9.2623645015506 0.12933420232216433 0.10073736452107812 -0.3405233304386071
Ni 5.798856693003954 2.929499570389501 0.8117125048419422 -0.6097635970615112 -1.4536238229652578 0.2133113166657681
Ni 3.87627448639253 2.9255657944410633 12.762924601160869 -0.6775749002785298 -0.001612595902758513 0.12566266700784812
Ni 5.792660534174374 6.72393120177969 12.33670921136357 -0.4642340159264069 0.14218431881195512 -0.014417460976910655
Ni 7.859287273695816 4.252439502907851 10.66654060109051 1.8446379630645653 -1.1115323767085825 2.795003309211103
P 6.376761623006369 6.834261612652753 7.928007384565941 1.7607176701008258 0.5947804933891176 1.209331227426627
P 2.3106962984255195 4.062473214618545 7.590019386603725 0.6928197422527422 0.3187813107758252 0.33700503287270345
P 2.827461485342017 8.145981972923803 6.448538259319997 -0.8429073750721742 -0.7346639319820379 -0.6463236555737321
P 0.2915583607116509 1.5712387622777895 3.9676729079475512 0.3192765052446888 0.8945832061799109 -0.2801882809939755
P 7.719582822231257 5.562663920212593 12.330086431762115 0.8511197356796375 0.16400475712115625 0.009747052084434826
P 8.080779174867667 3.4407149935853156 7.65513538303095 -0.45189323497286693 -0.24838013534444317 1.4619966204099855
P 0.668886888422989 6.738484325945739 9.328305113452462 1.6191771555204566 0.14525832975158856 0.954279593599279
P 1.136759672724019 8.918710388748101 12.306313866500012 0.7876266002219984 0.37178665932826294 -0.8523075853401514
