# total energy = -381178.85967279144 ev
CRYSTAL
PRIMVEC
9.11174884232332 0.00000000000000 0.00000000000000
0.00000000000000 9.11174884232332 0.00000000000000
0.00000000000000 0.00000000000000 13.33596546043692
PRIMCOORD
 96 1
Ni 7.687218067903985 6.510335469619669 8.489608698015049 -0.18278589438340134 1.112169496071949 0.4561198714597048
Ni 2.456053689599345 2.4383040027630876 11.749426158283066 -0.36981436609324053 2.5608668282698672 -2.550783990112569
Ni 6.3633356247894115 3.0984775450358604 1.8261074630917675 -0.3165524214453065 -0.0700129388540278 -0.15745924269315462
Ni 0.7408845027588533 7.522869453188598 7.520964186495855 0.39760387750168297 0.6613319560571062 0.7946040599810961
Ni 0.9449703655551459 1.1614108486703716 12.907561333227754 -0.8751860326002218 -0.36901783833387414 0.6878348874436412
Ni -0.053484143630114986 1.7627771636119298 4.350152111727802 1.2111991338733012 -1.0557867464068462 -1.8648746018264142
Ni 1.9131119085356527 7.3559239900397735 3.238785721481853 -0.18210429493534444 1.462091751226953 1.3899103439666967
Ni 2.6326029360774377 6.146940700418632 1.1824708338780934 -0.42138503908168073 -0.05445905027982879 0.2822670178998752
Ni 3.70201245621306 6.678647695101881 7.408928855678314 -0.6525650084977536 0.5239962235867041 0.2547952948421677
Ni 4.389466574660245 4.38782645986018 8.687714520015327 -1.3509229069599056 0.3802350472059322 0.4685953782188962
Ni 5.083845622263259 5.196986208221067 3.2234096452312455 -0.4964720500245063 -0.003393856172897381 0.1569195681396007
Ni 2.088121269451462 1.9385883584299934 5.722969202252088 -0.7959065808426034 1.673021712144738 -0.8657876221044574
Ni 5.219720021699744 6.139705971800567 11.671970825675114 -0.7402645659982671 0.6880459750131828 0.24190506914306079
Ni 6.523474611517966 7.467205779224174 4.120026692955813 -2.758121605693405 -1.238521732947654 -1.1798545581237487
Ni 5.673311993155458 7.961827955928178 6.546678591239328 1.223047548571455 0.5495514463479891 1.1727225750646577
Ni 4.464729620485444 7.793980429639319 0.17338473608885635 -0.14400003186445523 -0.7520566735371887 -0.6462359809559322
Ni 5.368688004290078 3.4016345423300707 6.64699165711085 0.254726132167129 -0.923147648081165 -0.7186230764690914
Ni 2.0468541587320526 6.51018968163744 5.696003892589244 -0.969589484483472 0.05952283795598136 -0.3629317800407943
Ni 0.31332662022950136 6.956027554788404 1.6165991985314827 -0.9178534895617612 0.9605438293414359 -1.3214426381126014
Ni 3.3336882308629394 1.31956347414107 9.753685266120145 0.47580243749029666 0.11039545643613245 1.7342422495181162
Ni 0.8625545968518868 4.856671498956498 2.442202008937908 -0.6323126860066207 -0.31639892658657764 -0.7191946327018452
Ni 8.434017006866851 4.381521129628819 0.7460563314283912 -0.6916082384431443 -0.8526464567368089 -0.14586073922227782
Ni 2.9365982142694587 4.355497974801124 6.754852895762227 -0.013383363285441466 -0.49275834861834494 -0.7425770161815275
Ni 6.438461994381271 8.133675539979418 12.355478645678366 0.249441486729422 0.21687049477193618 -1.0778835783058858
P 0.39167125952904386 1.894560387797141 10.392171023686728 1.0330697644253046 0.012302214406120747 -0.7237161747212826
Ni 8.816245761021966 2.2155855246631693 1.5440778779470594 0.13453734378965862 0.17179185726574284 0.43036307421057496
P 1.223507417350605 9.11849158342725 4.686378379265763 1.1585347136000501 -0.3094242950409574 -0.008553803107282043
Ni 9.05867295196933 8.920083251363849 9.613336997979042 -1.039916355033493 0.21648097264300137 -0.4900759166901753
P 3.632371359452528 3.7814760182762024 1.85156568948833 -0.6129273395014734 0.6209892905740014 1.0529096819693673
P 4.279150630858105 5.562194215451064 5.335506659534988 0.47495243078517557 -0.29162403363474293 0.3028880365843364
P 7.7604674172246595 7.237817500937325 10.769351868957198 -0.36222369823017614 -0.07301984400115166 -0.05249215636144508
Ni 1.6420738260760457 5.530612893800926 8.374826174907398 -0.024126974955190707 -0.48359262295867683 0.056815466327147304
Ni 8.011395869885693 7.179903224997257 5.915021178290349 -0.16328253424315103 -0.41531389318693634 1.2548466953599227
Ni 4.784497336004755 1.1564631690235092 5.739666482091637 0.7002193771509231 -0.13935250579011482 0.14596769711378732
Ni 8.123115023016778 3.715789420533605 3.4673111171488897 -0.35613044084824474 -0.7733569776768616 -0.35349197478413313
Ni 4.377402619130879 8.399893507276612 10.815881014660151 0.26485010797500835 0.2884348372734839 0.6390998841317831
Ni 8.949878670231694 5.088611066932337 6.820999636823732 -0.5623835651156508 0.3306011862288887 0.5646867593275308
Ni 7.929371906384672 0.030928920429667505 0.6901120155981789 0.1141019587534422 -0.5605177155515058 -0.791176779467102
Ni 7.235065752772772 5.620272502871138 2.389244524393592 -0.016652520955016483 1.5538567370460918 -0.7142735412511441
Ni 5.8747089788545335 1.2993991738491617 11.713845690045439 -2.175860070706904 1.890531640272886 0.5005030255607703
Ni 9.009451284469606 0.5034642178261314 6.431002205565643 0.3628739302196654 -0.020025551192307447 0.021321387185595536
Ni 8.160145170502688 2.9362975265561135 5.922982113294886 -2.0703728502056666 0.5255512267786497 1.638784902449055
Ni 7.564027222921336 0.5307037911305419 2.866126126010228 -1.1962597389546494 1.0620838922694678 -0.8199145137214265
Ni 7.052694098754449 0.3208766153591333 5.045556231080855 -0.6107187618859288 1.9237695763904097 1.5787851248566551
Ni 7.986539018915822 0.7271430742589765 11.586206489255057 1.952672889688321 0.39915296715635773 0.2779269957636246
Ni 6.929220789556233 5.150324942159221 4.8630533678785275 0.05964085159108437 0.2630644768294953 0.781113481693829
Ni 3.2034631157377897 4.778155558777837 12.590791383093004 0.6211669538024462 -0.0897412705208906 -0.9668420036453219
Ni 0.19899330634209125 7.813014873068959 12.350504541959724 -0.778976380746168 0.7786159120829558 0.11668900275432807
Ni 4.392272993318134 2.8457905248392015 0.1299235162369155 0.5098255885132768 -0.2669913226877273 -0.03731313462816155
Ni 1.3283927588147526 1.251444039445043 8.245467587101617 -0.29145819748083995 0.042793441016442425 -0.04569698781648259
Ni 4.141608781374888 7.791274240219211 4.963780107149622 -0.7446192434225369 -0.8876509978364518 -0.9057165970889111
Ni 6.72367795811255 1.3812955728657335 7.427945986785066 0.4005588463649489 -0.4182634627335635 -1.0352773135995845
Ni 6.272272806390254 4.109025167346933 12.349944169403036 0.20897335141204654 -0.7325939368268867 0.024304381073319434
Ni 7.415806403739919 2.9462748915898413 10.248516101873713 -0.2967801239143857 -2.2126445865251054 0.025812075967097482
Ni 8.658931416449079 7.932232995535897 3.8433320367857595 1.7843443083808304 -0.3535953331312168 -0.32750069292669404
Ni 3.2474090806306384 6.133218406591423 10.013603370235312 1.4431818016963274 -0.20665267369866988 -0.0066092777864015205
P 4.681671249789577 3.1716175533698636 10.898791551328095 -0.41412501508515775 0.2958162173392196 0.36392448297136676
Ni 3.5074857291764783 2.0848045928557752 7.612462546491918 0.7092241517526947 0.9747995679295017 -0.4239332594248312
P 2.4793250962624875 7.955996436639058 9.025354930980901 0.8974337882548286 1.1316273476862446 -1.2862663473217846
Ni 7.57381324122839 6.273885585943652 13.195257515006686 -0.7727594533021788 0.41705247314459787 -0.13377089793727928
P 0.13855780948436805 5.9108917336937425 4.207150502310146 -0.4843356717722885 0.16883765973342535 0.38277118336422467
P 7.539425500920363 2.4293198183582883 13.1251107161828 -1.063468174211504 -0.9445052878213347 0.812165465903627
P 0.9069051233954185 3.1900141743772576 7.075343172968456 1.2323724255168067 0.08534854076983366 0.7924361057954997
Ni 6.468785894684692 0.06638455770751402 9.79027896083426 0.8463899343041358 -0.8304460093803698 -0.8529776148239825
Ni 3.0736844763082134 1.2034433462964782 1.7479049670748974 0.270339927444986 -0.09517144039752641 -1.1227292738656665
Ni 0.8373414765004454 5.702241795878825 12.943767778614074 0.3933240191794065 -1.1394188187062053 0.2654404332608396
Ni 4.002007676642701 3.1933035157262766 4.430794734097213 0.962101146526227 0.12428969791972144 0.371000930202174
Ni 2.785598311676821 9.16778614491809 6.6184800836615 -0.3110757146014514 -2.819183763112048 0.18941908342920283
Ni 3.2511631211730094 0.7031591288326948 4.0289684304311 -3.1113808956414415 -0.11895131642594352 0.3382216788886239
Ni 5.562376450428848 2.3775650846673524 9.012899170249298 -1.2566505813378808 -0.20436953409144804 0.7597126474205497
Ni 4.070045105598725 7.630761671786197 2.3680806652485327 0.8008271580726725 -0.08797517975940332 1.117883772847907
Ni 2.70805732862931 5.251264896354324 3.683940213466123 1.6711064973998961 -0.3425120787338617 0.06967740989148
Ni 4.47970022391048 9.11193112422699 8.372945509936658 0.06699626351489107 -0.18065187875953403 -1.0592597925571112
Ni 5.219720021699744 7.080002010175529 9.16239472310032 1.6225604701703926 -1.297275811058411 -0.3894853621596066
Ni 6.2627419170521 4.93310996038841 9.942122611374044 0.3348805303305329 0.5946460246937824 -0.1616676243475474
Ni 2.720522201109803 7.133560870146535 12.163654463362336 0.08154047987765312 -2.3647379369206565 1.012637721823198
Ni 5.833168515668446 5.608336111826222 7.112897246015497 0.7426510639525725 0.2688636000097757 -0.0240873799665069
Ni 2.1299624203508944 -0.15584188595238488 11.227429554391092 -2.111002450801571 2.0262347222358716 -2.1561317390400414
Ni 0.9857089948389791 4.100350782404368 4.927319443969291 -0.015123485904999762 -0.0270325786377599 0.9052663969253699
Ni 1.0776465411315037 7.01785077100196 10.26798699807515 -1.728868129690397 -1.5159468493741957 0.20348867414839147
Ni 1.9871722035074701 2.9452452639653566 3.2686585902152565 0.21442537566555328 -1.8495533980883114 -1.8114000269470416
Ni 1.6288891254333022 4.8319877712155215 10.970192126799141 -0.8166250443368773 -0.7488052564794264 -0.5519194323595333
Ni 1.673718929968408 3.296229831179236 0.41163236782072216 0.1016678467551475 1.0345172955051085 1.5688344414018467
Ni 5.187464430631802 0.4906048066187339 3.189215985174559 1.9016238935313057 0.15425333416134723 -0.3837690285011197
Ni 0.7558906420045578 0.33408318419921107 2.356211701145397 1.4897390806305764 -0.3012019071311651 -0.35469499395329884
Ni 4.855751212318684 5.3734534489591566 0.7392689896807894 1.3768563389962158 -0.018962914255747986 0.5764852946243556
Ni 5.484553003165772 0.6264181573376602 0.7776176072309725 0.8138526237980629 1.0244164596256808 0.5766107644586264
Ni -0.15999502109610467 3.382554540155983 11.857380336773113 1.3290708440818206 0.9601100842381273 0.5585446509855349
P 6.314596879980817 7.805315445257544 1.9076831285474378 0.08305768785312792 0.13812891779565886 -0.5796510939468469
Ni 8.640780812661694 4.669179042062416 9.536162307236879 1.5531386279331445 0.302929174234917 -0.43987152792164247
P 7.192504773711089 3.7486463870282374 7.929938657165584 -0.49857958328581237 0.39406218289701167 0.27592410640098286
Ni 3.607204709020422 0.846046841389234 12.564253414453066 1.2798691855461894 -1.7167392076373464 1.5818686488779852
P 1.8302952228812666 8.49483793070259 0.35474863068002827 0.6120883885399458 -0.46648604518537723 1.483650194124019
P 7.553931405152047 8.550711174891465 7.709548230906869 0.3535791351813007 -0.17374255323421045 0.22753260247147267
P 6.174230388341933 2.3736105856494185 4.061134726359928 0.433330384369015 -0.22600665274524945 0.180971723992798
Ni 2.101387975834209 3.261477620915639 9.247811901887697 -0.8118605330686987 0.6976413320111018 -0.30342719691725806
