# total energy = -340893.94734172494 ev
CRYSTAL
PRIMVEC
8.99779427194817 0.00000000000000 0.00000000000000
0.00000000000000 8.99779427194817 0.00000000000000
0.00000000000000 0.00000000000000 13.16918142798373
PRIMCOORD
 96 1
Ni 6.368494827858035 2.0439389490243225 11.331711445466452 -0.4093486767424369 -0.7348930172737086 0.53469355539955
Ni 4.819821469479714 0.2541705926480629 5.84298135217534 -1.25438132568773 0.4059159969118041 0.5046885243970276
Ni 2.843815867282005 1.4759891761709845 4.86124551479367 -0.4608998093468514 -0.32686331645301125 -0.279165496156416
Ni 3.6552729467801983 3.8887567105952723 4.849735536348557 -1.022768896719929 2.5412498253698876 -0.38853096866613734
Ni 5.013202064181381 4.439529694164901 2.718856299857019 -0.5514571480111341 0.55149262923476 0.39611623721256295
Ni 7.052669109447714 5.872302464401021 2.6085379432871667 0.866728902971804 0.32571249067801966 -0.4843737240990755
Ni 5.1146971836786275 4.726181424390366 11.370692589632933 0.014482766997207316 -0.33229528610186 -0.43600433165675234
Ni 5.218099835563587 7.956308591361624 12.288676355190683 1.110469482661707 -0.7171210380022682 0.44386008025574525
Ni 1.7835697758956168 6.454216813979512 0.5834079834292483 0.8031347231599265 0.35141169521633675 -0.8914006946868713
Ni 2.506290608187973 1.689947726394833 0.42950341157955507 1.0096421295299836 -0.8984730281526203 -0.08224470503352932
Ni 0.6158486309323841 8.99414117719237 4.777265501645124 -0.44943988833636794 0.1492975328179687 -0.14492357211998913
Ni 8.689394882666464 2.2294284781409646 1.3933129434138531 -0.2765689390738334 0.9796841497153128 0.8866055872910731
Ni 6.97455925728853 0.6492898331596415 4.575566446130053 -0.763008287452686 0.0737001578976279 -0.6728024185905509
Ni 0.8483030470816346 7.407758062979567 2.7104811529396398 -0.6929814646415872 0.40480090947075453 -0.5686858531845949
Ni 7.728943327658086 3.6456273113102475 3.5561532449733138 0.46095663072671583 0.1577960572072831 -0.22611669596055253
Ni 7.35483303701478 3.9675503951198623 12.52103359516169 1.62136387875913 0.1996502742389078 -0.3574280766137457
Ni 7.6244519426650434 8.947784541053203 6.703955992943852 1.673137668897312 -0.07765271478747272 0.8683052463199885
Ni 6.702978832484862 0.5225163104074699 0.3593359124328022 -1.0144246385202917 0.19106587500400643 -0.009182180719900315
Ni 2.0320528627782357 6.28046940640045 9.064887234511435 -1.1386618859355229 0.4394318692810626 -0.5954224978484907
Ni -0.010530118647839252 4.706971133599 1.4642812462516746 -0.4593810587094798 -0.01216697437983711 -0.020855760403086662
Ni 6.375819032403315 1.99001516789427 6.751562422708743 0.568646258195911 0.2065475155793733 0.5146664615453459
Ni 3.3877955161689726 4.350811442547627 0.6214506576521522 -1.0247681865381446 0.06324065312720077 0.3014217364514551
Ni 6.056703260409581 5.556695832177139 4.839634612487953 -0.7622549542264291 -0.026295186251103102 -0.30679688472043937
Ni 5.41350493397863 2.7717885240572313 9.003440397582477 -0.9979718922809071 0.22457480539472935 0.11808099800584826
P 0.2936034260874849 5.4727014225577415 12.570957856733541 -1.4116587913873817 0.3668555405752327 -1.3157134489383082
P 3.8043663980274824 6.058457830294507 12.548254622202029 0.07109974416030336 1.2099367222211097 -0.03570490960077722
P 2.3188755510950534 8.475148403025603 1.3367510090004147 0.3755525541285984 0.06350239142901967 0.7496218388434509
P 6.1650996881208675 7.688669200453328 5.704651962227219 1.1979026738747112 -1.2335600180670048 -1.3713986583157542
P 4.47975883239825 1.0901007728129721 12.56677028327485 0.8510539154387086 0.10574664481021143 0.45605559388067257
P 4.034871891935323 5.978053540593496 8.13518294212238 0.7089320744335726 0.20979173354828384 0.15014445419929626
P 4.740604888623885 0.8624952680021138 3.741575290632843 -0.019001995023799536 -0.9853572888406901 -1.5098929298706318
P 0.13146497269063467 5.428891162200287 3.629189240937063 -0.15681081047587833 0.8058063564548188 0.35308214094022417
Ni 1.501470929576676 1.110273827592478 2.627844510477347 0.5574935840132011 -0.09203726564391891 0.042137295489682265
Ni 1.4974219221499243 6.529501358734251 4.968995900875533 1.0210022917378094 0.786564220395755 0.06830649768588237
Ni 6.181250728856467 5.674314999027138 9.250520728336584 -1.1975391198877054 0.09591268943892514 -0.6917149392243378
Ni 8.711997341902022 2.4123806292701757 10.232453617413023 -0.8414894116787249 0.09547817300466782 -0.02911517219840147
Ni 2.4859735886999608 5.169781680271015 6.744793382070642 -0.12871610912219125 -0.3439027884338013 1.0803749772691715
Ni 0.5170339543516479 9.055200209187788 9.321739169855435 -0.7211813241145709 0.5481180563355722 -0.4200305819363153
Ni 1.3548248783740067 1.0492327911856236 11.378409997788323 0.3106208864522199 0.5464548097005363 0.2882129510706649
Ni 3.9423835645140293 6.708800405385103 1.8231015850721373 0.5554503283309273 0.6126044089444159 -0.46050565923222625
Ni 5.817505897225646 7.948975389022062 7.893317732933931 -1.5767326132030006 -0.4509858926672491 0.846210471303478
Ni 5.423240547391398 2.6322777237199264 4.54746363525011 1.4110386413048797 0.4730192183182047 0.07564956831451487
Ni 0.6712534490011997 7.747721724323932 7.302179744437299 0.6398640159913174 -0.8428937482254193 -1.0050671085647918
Ni 5.355487156450417 4.304445808614179 7.04927874056238 -0.6764094192155189 1.4650539191790706 -0.3175420390520854
Ni 8.087010551097173 7.130949919698248 9.006877554998075 0.4291397433264352 0.37502882041464447 0.6453448366002305
Ni 4.460683508521108 0.6005163894764172 10.414767824927662 0.15339638547769063 -0.9753119887895462 -0.41677633666507574
Ni 8.050848415879138 7.28799742109053 4.436933830514638 -0.528791073872186 -0.5966684544404498 0.38551943553332313
Ni 7.286602762976871 6.306706974525802 6.838887815771214 0.8579694116116192 -1.3319599927041577 0.10508098620175452
Ni 2.125656916690456 5.337752503921244 2.628041562172116 0.003225963136465412 -1.3472935377374344 0.807526424469719
Ni 2.1490421840285183 5.401312922726966 11.292441472103526 0.8031984865183264 -1.1682791945813233 0.7106277169684406
Ni 1.337459135410382 3.281837490708018 3.965872306486331 -0.6377138024175341 0.21525661331759702 -0.6835154341326809
Ni 3.728137084873168 2.530377703480006 2.6654813841781477 -0.8711054347729449 -0.3808467126480022 -0.5124355153322981
Ni 1.0166967670631022 3.3884433573572528 8.210049989222451 0.042828665129752044 0.5930064322078303 -0.3086748184694426
Ni 3.9081649528608358 2.4822574996616305 6.75760714090717 -0.09734273701723235 0.003225191805517026 1.219752936980583
Ni 4.143466271120808 6.767340054981653 5.985919412354534 -0.4031528323443702 0.36966652766146657 -0.22080865348407777
Ni 0.6044493253569354 7.255137476373869 11.218206969941459 0.49856312822558 0.7331076432385116 -0.16277139893468742
P 0.13194185578756323 5.57636501047687 7.849372505662251 1.1836135109455486 -0.07748842129546654 0.47220263595418027
P 8.594216214754951 1.652372937474576 7.954751972950895 -0.657484557286558 -0.3932756824399743 0.8578539690796774
P 1.7540480128574552 3.2708511838900978 10.544787751856662 -0.29410386263380317 -0.05461048825602852 -1.7061076960654293
P 3.7787676732961293 5.950205367291726 3.9158166771179688 0.40693415376367337 0.3433214620090345 0.3795225945199399
P 6.756317756986607 3.8072906811690252 10.170782735406451 1.9951048336002866 0.9919668237374077 1.0667275616890661
P 6.335787845644162 7.6853220209805455 10.204706219407207 -1.0718875086234505 1.0250816040135056 0.33052251047215336
P 2.320414173917219 8.549983058066259 5.913304513163166 1.054282393947178 -1.5659136682106258 -0.5333218718630042
P 6.714532000342527 3.9620167516366354 1.5166286138235787 1.6362009437719627 -0.37324036105565395 0.132414641019701
Ni 5.237445093269179 3.116269078130995 0.24090424475916758 -0.1200489203654965 -2.0616930630434815 -0.1656006408533664
Ni 1.694473616918513 1.110489774655238 7.203068140645268 -1.297941726777184 1.3311390394647589 -0.8704660014167331
Ni 6.900210483139085 0.6231710359188077 9.291449894965046 0.3381466026763144 0.29801296788022225 -0.35862286825279527
Ni 2.640546696664782 1.6387952659035347 9.201557431194017 0.5135398041400705 0.06553973357402261 0.638299756827991
Ni 6.389783609128467 1.9549687591671625 2.2643750113515457 -0.756644292907871 -0.05460766004255112 0.9689356529495571
Ni 4.030642928622938 6.903260735400572 10.306846480754448 0.82731132040613 0.13525956666766384 -0.14146518125774346
Ni 8.365069387783642 7.1930976848017485 0.48324183814740534 -0.8405026222854235 -0.6627080104690264 0.41085817140842784
Ni 7.4979339572704715 3.9014795917095544 7.992060427160414 1.2157762117210222 -0.2466549251232204 0.10530081552204446
Ni 2.8584642763725654 8.322707772305536 12.29319414769951 0.02839192087913175 -0.13594836520457232 0.6673665922869604
Ni 9.008501656865917 4.931160175921107 10.20352120990031 -0.7071276742349821 -0.37710550043801505 -0.46499172002803785
Ni 8.702477675552014 2.1371111088110233 5.716596534136137 0.11833373744660265 0.7043552536961676 0.9311527777738285
Ni 3.5627396303874965 2.815652771180376 11.605894032376376 0.05018356283292648 0.08208452530658121 -0.5932362888304492
Ni 1.0068081911475462 3.358480702399289 12.607344936808616 -0.6645710318196941 0.08886529567384051 0.10482490432689043
Ni 3.2722458420037572 8.401915355367084 7.87347129808685 -0.006607735124504749 -0.9868403011441199 1.2072018397884499
Ni 5.711727827650325 7.726073031282232 3.4093560308267117 -0.8345908847866788 0.6151114916369858 0.42754643069738624
Ni 2.9612550782463716 8.368146633427974 3.6573316421118447 0.9878260620961568 -0.9783093808549732 0.030776361950908288
Ni 3.3750456416718455 4.094707223908434 9.18883544985916 0.13505927773139967 0.45223570591395024 0.17343324952390776
Ni 7.345718271407447 6.371329133056761 11.509587940841373 -0.30692801098166494 -1.1471323853003792 0.48505378088523565
Ni 0.46017239338862975 0.2091474296214389 0.3417929129218288 0.738279160137122 -0.8313860046961359 0.33148358883384205
Ni 4.530119486992762 0.3138817550600862 1.570767442236963 -0.5262305122338614 -0.7816739821829892 -0.3109931821899741
Ni 5.7267811374835595 5.544773754753925 0.4285775385479711 -0.04362724977164745 1.3707517687603747 -0.39374902253196703
Ni 7.870406649354513 8.841817517797967 11.615599953068017 0.010848512678729704 -0.3971703895086902 -1.5626085150967925
Ni 0.2955361522991877 4.577312918000125 5.826599068126702 -1.620503330531048 0.2675091428644103 0.1510826497428495
Ni 7.899154602084451 8.943483595386564 2.3624590670366103 0.42738470830854136 -0.626754732302869 0.4457264440405227
P 8.677472805243251 1.648899788881851 3.6186141333178155 -0.5786265093370744 -0.8516321565396818 -0.792710442502809
P 1.708717125266398 3.2437678231022695 1.711770076866169 0.9557338095473025 0.33227883104162775 -0.03638059551156315
P 4.750628431453666 1.0241199473454807 8.099099087714597 0.16733742103881502 -1.4046468788459228 0.21976427137996346
P 8.25195811586876 1.7205312291582318 12.579241226149245 0.0505039222868227 1.200196097894578 -2.3361544688560087
P 6.294496967685574 7.498284871247456 1.2548818783903488 -0.24303506898244595 0.7732793303613908 0.10293745749619047
P 1.9720285771252102 3.1615009899849538 6.088837083127712 -0.4376359537229044 -0.6704215770632003 0.4984615696507093
P 7.023705209655016 3.7558412934664323 5.563676320980859 -0.2742312920795923 0.4033778038709827 2.1527605085749633
P 2.324085273984141 8.363089873041675 10.183833136232588 0.37060420898438756 0.13399715501547244 -0.6522878435769669
