# total energy = -340866.1329457016 ev
CRYSTAL
PRIMVEC
9.30893106207319 0.00000000000000 0.00000000000000

0.00000000000000 9.30893106207319 0.00000000000000

0.00000000000000 0.00000000000000 13.62456157051922

PRIMCOORD
 96 1
Ni 0.01843726854177966 8.648089895990468 13.522880984645614 -0.16738884310204075 -1.4405466780663254 0.8619787898813285
Ni 8.40107741454236 1.3645310182064463 3.130392388973037 -0.04166652650085082 0.12303911334207196 0.5429439683338004
Ni 1.5827044317244157 3.0142969881389714 12.9625987751711 1.744084175309203 0.5907047806578473 1.387029937095108
Ni 2.3702306769864663 2.6558938395339733 6.374850831843804 2.657772734859997 0.9594932765897346 0.8959214653753603
Ni 4.820322672169402 8.120329367510383 4.424657734955379 0.11750995599372664 -0.6551142572821685 -0.6151654848033727
Ni 3.529090175874484 6.977723261974859 11.921096037254184 1.090660932576212 -0.1944291350492845 0.601225477683513
Ni 7.851999434299842 1.2728939024206851 13.254027889518456 -0.762860449020912 -0.19436768568372975 0.9775709600270519
Ni 8.886445071700994 6.05726548345187 5.71384133555907 -1.5716053192787645 0.4853623132645899 0.007879402748076752
Ni 3.984771652391023 6.529712344520436 2.501033257750431 0.26787269685141607 0.18712797340218096 0.6527228742318565
Ni 0.594110864367386 1.1804748364392712 12.168627026153457 -0.7169091791017782 -0.5671753300773393 -2.427118041819775
Ni 7.91458337674475 1.548829232177038 9.996572317324235 0.9489982905956816 -0.26300868389089543 0.25079337277162617
Ni 1.5261061318486102 8.074492191755702 11.692747962261832 -0.6069850058751095 0.6132600402505438 -0.8478091832491658
Ni 4.568413693067565 3.937109926179818 1.4517920055758238 -0.6752855900237208 0.008673102293965708 -0.6274311895446033
Ni 6.666460539450631 3.22636374298613 10.972322352717672 0.6106765957940838 3.1502006967221163 0.855095432497934
Ni 2.4977537213941408 0.5755870227682306 13.372357433768672 0.5850830635956956 -0.006642445017182109 0.8255657984699332
Ni 1.5785247217500347 0.6036329697856362 3.8922241231631802 -1.2032292282939472 -2.0025533194585314 -2.213946336055664
Ni 1.9679079923923155 3.6136431952448693 10.749997156018022 -0.2031893977404178 0.4606185306610068 -0.7111900172298139
Ni 3.2744443710878626 1.7016725686344147 11.284107306265426 -0.3890819560736009 -0.9285338520937428 -0.8503676880049613
Ni 3.1210145719837463 6.8893349630734155 8.946105078950016 0.28784065533291076 0.6742723182678582 -1.3338158149659738
Ni 2.12919452917656 4.69759372717555 1.1212318692945977 1.2706882903778698 -0.7176720254097317 0.7323316843044355
Ni 8.1830436349879 5.549993911884063 3.3105099620761576 0.8339427096797186 0.41263248970003125 1.1565976444783372
Ni 8.295681698885474 6.330408133938035 8.927099034730208 -1.2245508725898588 -1.5137953502488317 0.2051588627619628
Ni 0.7914155165923321 7.722353953646825 9.127543589347935 0.07799724261108502 2.3967173180407304 -0.04249956392510745
Ni 2.2517093687596974 9.219332440707376 7.580528667803429 1.5961254159073157 -0.5226875320776095 2.701778965237618
P 1.5129619214169265 8.794845191638837 1.807897710034547 -1.53999720545518 0.2575520316516984 0.32677744160742433
P 7.306626408555773 7.168770450848404 4.610033923124263 -0.14407022298075836 0.40113811590718657 -0.18084394016568212
P 1.0742971705867321 4.804059969886009 3.2125353261332497 0.44869503975054337 0.6119356650121655 0.38984891614661243
P 3.9081405332170704 5.871906051358606 0.39916695701883864 0.33028468342973444 -0.8682152577093434 -0.4766771267857662
P 4.4425848740838045 9.168701165538874 12.108501572359405 -0.8801947986687229 -0.8046177354633561 0.7667821526728213
P 8.225836790338079 9.044901693491449 11.211760157091941 0.37848926815941913 -0.09419853496129582 0.7472391975438872
P 0.5746430971749071 2.4124280607590034 4.638767800135225 0.6284125796212662 -0.6155254392459528 -1.1873935468132713
P 3.525980992953675 5.481024042841326 10.3925705142645 -0.249171520897487 -2.3742918991576785 0.420607794596024
Ni 4.3300957530806405 9.075984213768638 9.669378290456676 0.5187925678985775 0.7215237950556542 -0.09316700837298794
Ni 2.0842789375810398 5.876225395296498 4.995418077051634 0.10401140728665959 -0.5358580080212965 -0.4469924552371399
Ni 6.996908968561049 4.511778157468156 1.6902356161299057 -0.9664128865277034 0.46449678266949035 -1.3306536151879083
Ni 5.938064623269356 0.8085104372982416 4.880985251276421 1.2236404449604474 1.6916316139364416 -0.2162737417282017
Ni 2.7364998722024927 1.8992360091383984 8.947140232066166 -1.7639613738491042 -0.0015791715616617964 -1.6610622257900167
Ni 1.0542550423576846 5.522607037174422 12.541599582511026 0.8301477614136606 -0.32139509424958845 1.1888300221494816
Ni 7.967225380987789 2.5991652146255593 5.285906989378026 -0.9416421073409266 -0.32640128921492817 0.60597816187715
Ni 0.49025763856073323 1.5198505302833896 1.0841674300206656 1.3012707911504169 -0.27656508241909145 0.2609836830410667
Ni 1.0838388247598738 5.8008789085868315 7.67572365697941 0.045611112970895644 0.05254409264530306 0.20151149581736263
Ni 9.10917055242937 4.210671478556511 0.6015691798049674 1.4611743816190061 0.4994277902187206 -0.7364937861019251
Ni 4.064381629453176 4.016673358587467 12.066020266194398 -0.1576212221923156 1.5991606031892138 -0.39488699279115214
Ni 6.866695643123093 2.23895613342584 7.412374932693794 1.1409748503394157 0.9310941566217512 0.6107688983975739
Ni 1.112221755075882 5.764062086874856 10.31297543149179 0.816398015927736 0.5071112749059073 -0.8815299725403786
Ni 4.444018449442501 2.1002251362138122 13.164323307787665 0.25451761570074877 -0.9600761456763983 2.3614389544544103
Ni 1.068004333297909 7.805613031622023 5.9650782098498825 -1.276713413526027 0.6404576837112583 0.6399421775274204
Ni 4.261004867936196 3.3246101997113358 9.448143169565492 0.3947815775615394 2.221801570434025 1.4702424053585454
Ni 8.625683299312662 6.753750384505799 11.672298102859337 -0.7995315791897004 0.34567967782856596 -0.5341561948388414
Ni 2.811883594635762 7.677978280043542 0.600284547340681 -1.7929572468608217 -0.6586616083137946 -0.6105799223152194
Ni 6.5889543807720194 6.7296774891967805 6.69679927614886 1.2147151174463595 -0.4698428774727521 -0.1132493809451598
Ni 5.910901162901329 5.863313908137329 13.038228253380145 -0.5583559320134964 -0.7952625195007013 0.35650582190979246
Ni 4.548520507732928 5.8531020109393435 5.394972285595939 0.1686139737583935 -0.33697855051014225 0.4596731360286018
Ni 6.84061201873954 8.760197350826706 3.2307380096163336 -0.2535339116312408 0.12342606436784549 0.1082789243137619
Ni 9.151349318340106 7.937408875313085 3.456210555853484 0.35678632926468873 0.5956042748419935 0.5948977356932722
Ni 1.105454162311127 0.8600409551917462 6.153097203501454 -1.2456123212458483 1.1678973857618726 -0.7619441078542297
P 5.812459218627209 5.302515983890923 3.3788505473900123 -0.3538413877037519 0.3742796009534457 0.0990059836522682
P 5.143398428006525 7.6326530954883935 7.8686745222221335 -1.5023374861208771 0.3454166539751664 1.9999595905894263
P 7.784761026404621 4.515213152970488 7.396815054693397 -0.0047927934029530364 0.18199270905814463 0.8193902657868405
P 5.878161652923827 2.006614527077118 9.535816542573766 -0.713121687034888 -1.8757660519279373 -1.9071659063954576
P 8.957965587810504 3.350973092021908 12.040733486295938 -0.11059985913745468 -0.350878448420686 -1.129586663107132
P 2.1717270344615196 0.12370359005914741 9.83524389035094 -0.6498460669046937 -1.6185978859782189 1.1005925898676272
P 2.5341609501464886 7.975147281184222 4.3807735729036485 1.006475301766228 0.11787402420136472 -1.2721167952942802
P 8.561367895720238 7.914369271334036 7.414363320334167 0.12399967748312839 0.19602913254655271 -0.25912014746976664
Ni 4.033075694834371 1.08527240011857 2.7113694823431636 -0.2733954264418582 -0.7303619621725744 -0.34323275894997013
Ni 6.417102207415565 3.1434863311778574 3.488514407864836 -0.7156871337692191 -0.14829968768107363 1.674331689205413
Ni 6.687117057119119 7.904045666965241 12.435763554422538 -0.37955961840546243 2.2429964593440856 0.41449422549911835
Ni 3.384094268166335 7.722828709122757 6.297204108308593 1.3034179194004067 -0.6635356485766443 1.9808197844361821
Ni 8.38842657744841 0.10230235791860846 5.679412254623104 -1.5865454855283645 -0.9956399017136206 -1.5600921764328421
Ni 6.712223243758108 6.878005994167354 1.5997825963547039 -0.2984120030908538 0.3569452234400562 0.9244072315198789
Ni 8.674508641886446 0.766458272847754 7.977139392396956 1.3385456163414753 0.14407305119423575 -0.5696489884288125
Ni 4.918150227004079 8.360993158084264 0.9874932517245757 -0.43974657230800396 0.49938305302371416 -0.4360053600980168
Ni 2.6714118273453167 2.598364646568105 3.881624043546637 -1.4517973112794804 0.23896244157496907 -0.3957933066555055
Ni 5.920805865379595 1.8972625157874654 1.6896091250802936 0.9018216329098792 -1.3946784547793012 -1.767454217493711
Ni 5.840302230950982 5.1526608142526475 8.812557294463456 1.1067614376825003 1.0917603362879778 0.8695388616167734
Ni 5.087656549773577 3.776316762733307 7.260951208198762 -1.7191802129786713 -0.24826983501882405 -2.1540620009952063
Ni 9.06841605294643 3.9963798892241034 9.352375681139122 -0.22105856471135474 -0.6978426493886304 -0.21819821244442422
Ni 6.269453254400736 3.5569424971291568 13.262175065842685 0.6440579994680069 -1.3203324357675583 0.07692792080630623
Ni 6.24406779983473 9.273408020309112 7.004142007870835 2.273085822530298 -2.6054464146524547 0.2245724914018842
Ni 7.225145336382594 8.50027338221943 9.245831243409098 0.09107901549570765 0.49540041422688225 -0.07117919124798709
Ni 0.6948297731397981 4.1372891762668775 5.910961670952183 -0.4595060143231183 -0.73143282663925 0.4828374899602071
Ni 6.640898215197511 4.544899333612584 5.6026647738128945 0.18397451537486378 0.11025661686542303 -1.155771549032616
Ni 0.6488911300382992 6.483260779326312 1.706762692050877 -0.20755333113606833 0.6123272440236293 -0.7414678422777489
Ni 5.620909347485031 7.072665048230342 10.278437436064287 -1.2444764078691923 0.14342101943253366 0.07974147899570137
Ni 3.603421989115982 0.8010446747159395 5.151079226892631 -0.5765598566160329 -1.1581937853208633 1.293738487329114
Ni 3.7839035414173168 4.398925988159869 3.673576885062369 0.7256535009533116 1.1071501884804869 0.1797550779768775
Ni 6.155744663449592 1.0390256314042607 11.771607639493393 -0.3588167294311562 -0.2778807159067214 -1.3704555776761946
Ni 4.767466562515648 1.387440297152887 7.372931130681661 -3.197980792319873 1.3660106545309636 0.7800225626224954
P 2.5642381058864108 2.4067589218405225 1.5579277812393098 0.860612248551105 0.331923504584738 -0.7116435598274647
P 0.8108842146779011 2.6875907492506044 7.882898568638289 -0.23470366629861514 -0.7517563686879505 0.7525325847323426
P 3.0212507595217386 5.090719188039883 7.1892724402639425 1.0524756797557422 0.0008173536949727859 -1.07561663664858
P 6.844689330474014 9.05712431976397 1.1715066124096083 1.5799524056918788 1.4741545959287579 -1.5308145105146476
P 7.954174259865112 2.6903555017280905 1.3134147477380196 -1.05296264669449 -2.102425507765837 1.3600765484347155
P 8.19508939157331 6.0808822411467585 0.2923693163683179 0.20892861421704018 0.9318289779052467 -0.922230021362902
P 4.774075903455093 2.613072757391094 5.0896458683070405 -0.04019611260291142 1.272780139909892 0.2958092753606841
P 6.796189800481754 5.49209236168217 11.05663147809846 0.8177930965030498 -0.4130330675725597 -0.686552935407424
