# total energy = -340872.1064296409 ev
CRYSTAL
PRIMVEC
9.25355814436541 0.00000000000000 0.00000000000000

0.00000000000000 9.25355814436541 0.00000000000000

0.00000000000000 0.00000000000000 13.54351770827075

PRIMCOORD
 96 1
Ni 3.0364441222135743 9.110618611248137 8.873265765523577 -0.16502317108334158 -0.2460645998373891 0.14705424530974676
Ni 5.368535145272126 8.975276067161516 7.969913043840754 -0.23238196014397397 -1.218072978174999 -0.588618844663096
Ni 0.7219496656691147 5.71310064312591 5.309099540139598 1.0027052932008345 0.528554789491664 0.7735127865284356
Ni 4.567491615161197 7.20622705405063 12.666128132817468 0.9591474632145417 -1.0870145940728764 0.3530474310475468
Ni 1.5693109566286139 5.528279322666312 1.1149825259707644 0.9341308865655461 -0.5825515554230934 -1.6232217579034753
Ni 7.940200793409486 1.1385670700780781 11.212204421743902 -0.10176837688875376 1.0629791503902273 0.07965226171600476
Ni 6.181867400840942 8.039648784746756 2.9432913266059724 -0.0903501077494831 0.5752161981039449 0.6844741985015244
Ni 8.931432707809511 6.178101202601966 10.244899433109278 0.1043163401215881 -1.3683079352055725 -0.20852906478577635
Ni 3.638841515724785 7.21751639520923 1.4352611346402355 1.5389561657851754 -1.6294299435967163 -1.6672213034128769
Ni 0.6653234408445783 6.240608989098967 7.526430708897655 -1.796524909607422 -0.39679038046145215 0.5082700711006988
Ni 3.3282088162550876 1.9441078295357943 4.708363160348034 -2.8261717643941067 0.48613775797803377 1.5973281779661652
Ni 4.458808572613859 9.154933902074806 11.10827123068567 -0.05910580502322079 -0.22611463907802348 -0.7838835882397984
Ni 0.10659358907716451 8.376848450172469 6.621655715300014 1.0206467081706034 -1.2271610565191962 0.03098384997602406
Ni 5.794818816709182 5.93513977517558 6.021922421231068 0.8042837491627053 -2.212499576306809 0.7605839942819095
Ni 7.8286769084558445 2.956289799987517 9.729460503261764 3.0872639479885797 0.43679288899631874 0.06702660253219424
Ni 8.02854451475469 4.819438247722829 12.148860699844594 -0.0687978355000041 -0.7531406506299868 -0.3739679832502979
Ni 6.760658967060687 1.8703847303468082 4.4124917371211225 -0.5228415411569705 0.47223194653021894 1.3100271971868085
Ni 8.51484676549886 3.3278386739220185 7.432276678279101 -1.289250112540457 0.575362493873822 -0.39001860895525736
Ni 1.5854214016754353 7.9950743942869416 1.2197550147692302 -0.7570793235627608 1.3027705156243952 0.19657549196832597
Ni 8.880279037379399 0.6632959862151937 8.60465717583885 -0.7521060387178853 0.3492082598071147 0.2084467894846152
Ni 8.585146048106958 8.343498625962967 0.7776671910659673 -1.1705165685522745 0.7489875476935617 0.21969922246998289
Ni 0.8632061588823434 2.6580198544423195 11.105291584904467 0.6012614731277709 0.160181269610008 -0.4795896724468708
Ni 0.8125077635219045 7.501498846697969 3.6706182350187446 -0.23069403091858978 -0.48795861323685635 -0.9224462511387661
Ni 1.035797051301515 2.5890993520249013 8.720657932310958 0.3131333684614284 -0.9857789497591409 0.3295192660186196
P 6.510581553281052 4.360563543859062 4.583668685827971 0.36619888082784025 0.21744616476974807 -0.24798649945045032
P 7.266116083541168 8.54428233453616 6.280820326807733 -1.1299777278979637 0.4899746152256207 -0.9973250027255275
P 3.4932367754538296 5.2829952520999175 13.289767069467667 1.126579500849692 0.8563434459724221 1.350893596383867
P 6.959120032493873 2.8462557379244777 12.446384808588657 0.10723325665806693 0.35266176557335394 -1.0137049867454477
P 1.6954554637384744 3.370747423883024 3.9722324165432195 -0.14550489854475585 -0.49016384841829125 -0.3946882465167848
P 9.181214007722692 0.9496834375130492 1.7504993300891416 0.3083133213649658 0.16850675875656784 0.61344027458215
P 1.182752811088171 4.659055574804102 9.70428249641059 0.3184614655425612 -1.1186425053908025 -0.26036327584824837
P 6.446833789968271 8.906309296952465 12.067301687464541 0.12719401605070998 -0.39346671540485784 1.1882145000526698
Ni 1.1044677076441114 2.883325492581322 6.092253165937478 0.9315749529129117 -0.4568292388219035 -0.7092593758660043
Ni 5.831472161241325 3.519461359751757 10.600037121351342 -2.0027551510566926 -2.4942379753967234 1.7565787082317876
Ni 0.60293409989416 4.984771574346354 3.100165050207208 -1.7736076386896167 -0.2760737446049697 0.11592949888048422
Ni 7.657846968186248 6.608188086511305 4.32998423501258 -0.08837112964624136 -1.340410694574672 0.6756985091914234
Ni 3.0952597389382133 4.17233691393523 5.50101093698913 0.315525779953005 1.3971546842339357 -0.18060457046136638
Ni 9.196871028411504 1.9081762625531369 3.732349647972133 -0.5783732556756878 0.7343862528406191 -0.33631854832864017
Ni 5.0037321153578045 1.8697554883805911 12.929440911071813 0.7160735705743604 -0.5320507184600644 0.5969908707768751
Ni 7.466696213831172 7.719568202225478 8.309138313184187 0.14170249407953017 -0.665914433221466 -0.09899055703330048
Ni 4.404425410327719 4.683938393144654 1.7295076330249752 -0.8891738622388815 0.3619503899641315 0.45483123455526825
Ni 2.662378280414205 7.228602158084642 11.55283715730883 -0.9923429761299037 1.4426081885810444 -1.01556106611758
Ni 8.189556429639637 8.868517764746136 4.109604265970891 -0.7004422917950066 0.9914446326853507 0.30974979670117625
Ni 6.861097089138917 0.8543958459994724 2.2415606858807426 1.0366196865600923 0.6154904722429594 0.5142301453388757
Ni 4.751350565554816 3.5830055447813502 3.8952650198048846 0.35768313004734525 -0.116352959571148 -1.3368862263611814
Ni 2.111550967457811 1.1868984052185418 2.785184103679785 -0.3994807828094217 0.917217398639659 -1.5345536658421055
Ni 5.9192976833202335 4.414308210620658 13.610964556478981 0.6810443468843691 -0.2704371151444826 -0.9293694606211607
Ni 8.5695075345348 1.2466578848925063 6.0343823375179975 -0.8920406422637153 0.407295393757834 0.024750724582118664
Ni 8.502558040040975 4.015313282689101 5.118772352475601 -0.8555993687175457 -1.1017264463617542 -0.5701629519507535
Ni 6.489724032812623 5.928699298580182 1.9775427864819028 -0.43025251677463966 0.11923182378083981 0.31290505450070627
Ni 5.67917709830015 8.635328094912767 0.6993395212536047 -0.2647490636207699 1.0935508525294972 -0.9115923391433978
Ni 4.705554705395874 1.093400451885353 3.2532883066186233 1.0008443287326956 -0.799634680426468 -1.3100837614563567
Ni 3.255994047073357 3.4486253707607077 9.544915864196133 0.31058206279448447 -0.13609157565065594 0.4447825920700146
Ni 0.19507518844143798 6.699576228546001 12.898263822357423 0.20486704255315685 -1.299959271427845 -0.14652254117599284
Ni 3.13331037077769 0.21058507755285508 13.0843787902711 -0.23134734823187253 -0.6670004671967933 0.5898915407279324
Ni 0.4861467909642796 3.1439149486201123 1.6070876831416196 1.4346940759402904 -1.3971906796781939 -0.6807916074436147
P 6.770032821645655 1.208551731703069 9.194802858125481 1.5414606773745838 -1.0860954246927166 0.6020266334285697
P 4.168191319804859 3.812641848217259 7.413071843327824 1.304663875992366 1.6698890800530273 0.5302414331654675
P 4.69966944230008 6.560911657020087 3.182605001339965 1.2003624482691133 -0.4562432844114465 0.8884033026214443
P 7.7954288733879356 5.4206789464432 6.838014087892911 0.5778312671292888 -0.42428524344761126 0.24889075643227457
P 4.828895384332739 0.8454134169317242 5.606176702016481 2.32411245008981 0.44100307042292436 0.403778124633195
P 3.587363970753236 0.0790651784110022 1.6462283841519842 0.48337330785901916 0.8597203328644547 -0.505999015678335
P 6.932145909971481 5.083007349542823 10.12617720513328 1.0787094166412905 3.3664045044443314 -0.31430681994423937
P 8.590975789852793 6.780202482246722 2.2614151206265554 -0.49718553115176306 -0.6937157717044504 -0.16346251146444107
Ni 6.314248806263013 3.982962842778885 8.322112727314082 -1.3181313143511815 0.9054828838115503 -1.7819639810741115
Ni 6.441161358713991 1.7322383580871905 7.184483968050333 -0.11458326926523492 0.48962340253378905 -1.6148898409990124
Ni 4.816930533416288 1.541115364407095 9.375134352084956 -2.187064424063156 1.3313760951762297 0.19675855451340954
Ni 1.949724739440114 5.115663156877822 11.860220932450014 -1.4358515865835013 -1.1332255454112998 -1.0662465082875896
Ni 3.152280165347468 8.267961829341944 3.5443117906381665 0.4794042959089421 0.632277204782995 0.6050021711171258
Ni 1.1577496964893708 0.05537421838293112 10.371599153718742 0.6444922587919482 0.5459012511899114 1.0301176237755163
Ni 2.0740185348846305 4.365162562347442 7.658791756491406 0.17587836863029063 0.91557163550612 0.03383134672714819
Ni 8.41548205618653 8.193193078062038 11.196466895097647 0.044803272357619606 -0.3152990086541796 0.5885663941586058
Ni 3.929773389516893 3.705430121443869 11.891560883790953 -0.8605675113560985 -1.2669005412006633 1.0244452559810873
Ni 7.514786956455141 3.2581871403967897 2.5073386120733256 -0.7084906160207798 0.5762392400518205 1.1529009123530403
Ni 0.874650959820832 1.3744957931761568 13.201638956031475 -0.09390825741438666 0.17074130451404143 0.6676275592578308
Ni 2.3842163171129718 6.49137116619478 9.032944242653642 -0.558103192572742 0.11555591759114937 1.2935083735961788
Ni 3.510975846766154 6.32907300670242 6.858031385265274 -0.2857074110399918 0.18120183772573312 -0.0207688571162352
Ni 3.027338620820081 2.917794997348358 0.7253281398142006 -0.365084564717739 -0.19062878746658782 -0.25759574040544025
Ni 2.7953334064525324 5.78926668171315 3.2835992622736305 -0.5099212335508766 -0.7501784826778692 1.21403171822609
Ni 7.681952487627356 1.250609154298016 13.692496733539887 -0.6518898368075998 0.11591972868847132 -1.2983744434392286
Ni 3.241623270991959 8.959359946839557 6.393393565275625 -1.508044049587351 -1.136814548314139 -0.30928108459487386
Ni 5.226048854157277 7.891499315935953 5.255386335476313 0.11187409786418799 1.5431717465284198 -0.8035000769191454
Ni 8.307779890821823 4.876902844931767 1.1022292718848774 0.9423013381914803 1.1834188784362394 -2.0326287986876737
Ni 6.140892644570222 7.3582722709169825 10.526388050628968 0.11463212022529934 -1.3211837280242602 -0.25473564524882586
Ni 3.2595103992375107 1.9348635247674002 7.365682520425021 0.2541273222408656 -0.5271424825251695 0.04850797490271646
Ni 4.415511173203131 5.458729578282677 10.573573795248585 0.14209175909814886 1.9839454745493574 -0.6884349829214853
Ni 1.1971976156361823 0.2828007720904184 4.692286953467021 1.4519901440165768 -0.2689055089913046 2.0818355994296276
Ni 6.95650127548741 6.829588723036432 13.233466569896231 0.2386459387758148 -0.25357119262707944 -0.6108578585669544
P 1.3425710169489693 0.9016713501348573 7.053003859209285 0.02966024606859408 0.15128756666480397 0.20728439374539784
P 5.659994471888858 2.664432570362737 1.640065514306388 -1.6911431043357972 -0.10735204162411834 -0.05066333068282243
P 2.3392532772034342 7.197056777748849 5.206534950357888 0.024799318431866967 -0.49656975194463504 1.4520438800726478
P 4.305504871815073 7.347445607674719 9.273896722567297 0.6446642655934381 0.7038803709422781 0.14884733265442754
P 0.7217479380975923 3.6891068445555333 12.994761779300136 -0.5338443200253773 0.5539850566393105 1.645725081212314
P 0.2729040914599903 7.817369060180591 8.974720853661914 1.1285975597209852 0.7790306310228712 0.5182194690039269
P 1.1208835201157143 8.565972675253994 12.551455261965245 -0.2211801778908836 -0.4389960672952246 -0.5191273255301769
P 3.070164088756146 1.6539902688764379 11.418838229891248 0.18781677193908944 0.7648623099422892 -0.7925847155582221
