# total energy = -340897.768363431 ev
CRYSTAL
PRIMVEC
9.03569031475832 0.00000000000000 0.00000000000000

0.00000000000000 9.03569031475832 0.00000000000000

0.00000000000000 0.00000000000000 13.22464611722839

PRIMCOORD
 96 1
Ni 6.13805281449156 2.000059072326885 11.486120651919107 0.43145270773032796 0.17170469686857526 -0.22593080520199155
Ni 4.652467873567506 0.45076438302550503 5.945682065519355 -0.036272866289105275 -0.6734259111071628 -0.060052485207206255
Ni 2.847127926108565 1.754008191153846 4.554633937395456 -0.3752116258494118 -0.29833152756190556 0.9672569796955534
Ni 3.457217731727294 4.3368331417862045 4.5582183957172715 -0.11737960106344945 -0.4072714824984341 1.1885806251428368
Ni 5.1928292575339885 4.451821335896157 2.58679342578976 0.49433752018000676 0.7461014843950182 0.5649040175446595
Ni 7.366509117997186 6.110394566639088 2.5392114809380386 -0.670379153861039 -0.23514615315267245 -0.1517817326924031
Ni 4.954341249099439 4.3790388509397165 11.493962727486295 0.30332460990112275 0.43487330337610264 -0.380914332661144
Ni 5.540576832460563 7.82002848297964 12.396267659329702 -0.1610680430903355 0.06197618459248036 0.19540692558152153
Ni 1.8665115704452975 6.472156497142006 0.41491889623833 0.7244389118199202 0.2426136651743112 -0.40029505118060094
Ni 2.583177342552073 1.5488257369774525 0.39301276879843 0.26228234724783217 -0.12501397768025568 0.5119562617030344
Ni 0.6195962553297993 0.1102408424530786 4.5990027907946 0.6212152905418786 0.021054506677454062 0.7459870703043411
Ni 8.708038049279958 2.4440457840965464 1.3188737451212214 -0.01286348622622946 -0.07839833470424563 0.7349099865545731
Ni 7.028637552512868 0.5888803298970341 4.804381319449399 -0.8090739714624968 0.45613966895404673 0.3476020916622594
Ni 0.8211517834402073 7.285766189931296 2.645100734967154 -0.08755146195842341 0.8733237825805024 -0.5932936244309459
Ni 7.502821541094997 3.909038386942918 3.7508532684591294 0.5013525180452592 -0.36180512263551884 0.8940571584731118
Ni 7.572468641535002 3.7376403786078813 12.664780362892959 0.6967815551139678 0.0048645271811529125 -0.4134395589823589
Ni 7.854047856767473 8.76238772612825 7.139007605336509 0.4843001905486627 -0.20293562985839889 -0.2510707948027289
Ni 6.741880886767667 0.8002007284596364 0.3429758269060302 -0.3263784063967927 -1.1517284893114939 0.6520983532739801
Ni 1.8934921415290877 6.4195416728215395 8.988434492658822 0.4887248019789196 0.446678780651463 0.7136603331471773
Ni 0.40807165016756763 4.928372675323547 1.5822496587778707 -1.5153511247717257 -0.8575680624081425 -0.94452817063947
Ni 6.355695485521451 1.9383543436158324 7.072738949480639 0.43169156321401136 0.514802730012894 -0.23086706616134436
Ni 3.522157237547522 4.27893243867002 0.3836192652154734 -1.084920687658325 0.4050197103497799 0.25995421333528784
Ni 6.175270822627572 5.782588760092258 4.9054970183199185 -0.4827066208092977 -0.40289546491792544 -0.6301771277208567
Ni 5.415522879413123 2.990352652246931 9.316353245333763 -0.15877770439426203 -0.4248262035527458 -0.22996949404773942
P 0.3117837205971378 5.537667340200356 12.44273911784981 -0.1943445457552782 -0.5685290158917563 -0.4464946896651149
P 3.9850556490085336 6.11375584341175 12.444524570243031 -0.43627918258469384 0.3972369810805675 0.7137557210744611
P 2.3020047333808114 8.44176529332945 1.4838049099449824 0.5406322894814882 0.3664652471153495 -0.1854279599919387
P 6.382639913844246 7.752206591969951 5.8397657044194915 -0.17233898801846448 -0.01910586759151548 -0.08389098238770068
P 4.529031309074652 0.9927964661190442 12.730295442182056 0.5879333885602972 -0.06401326962716716 -0.685153483956736
P 4.103893047164599 6.148308322924279 8.094316799750118 -1.5983468490386665 -0.1295180361981963 -0.2806755050430392
P 4.821019639474079 1.119106380111109 3.7695535329986516 0.5606894652426795 -0.3124931637742682 -0.3498402369641588
P 0.12226282832949624 5.5611510991577475 3.722526379528224 -0.28143937979225725 0.17891278458124024 -0.043742435193273047
Ni 1.4584869058670251 1.2404285930856744 2.5857624535323387 -0.3822415361129997 -0.23796742465155146 0.05366277963077854
Ni 1.8258328929438827 6.421493381915344 4.781198448977302 0.5361063765866767 0.7507904052302554 0.5121776336852211
Ni 5.8542779265285585 5.64496616190833 9.232958342179764 0.5827613574410544 0.1845697257567015 0.31896154510743135
Ni 8.504725982985127 2.3697001247270126 10.401938118189765 -0.1004576284971302 0.18051458185072136 -0.28253441262864887
Ni 2.2381224033197267 5.162306695872553 6.959932874565844 1.1730017968679733 -0.4299948922378788 -0.23245163703964486
Ni 0.6103057586156825 0.02240760824872462 9.210992579184222 -0.9857712364496571 0.6097756812463692 -0.7760103561393088
Ni 1.2752160005446809 1.0957942992684502 11.512808466638825 0.7530223798845677 -0.40887482242981193 -0.7870545297686123
Ni 4.100938376453145 6.771707700279922 1.6126791528297397 0.4102274798029645 0.7766132798306301 -0.5402203987550502
Ni 5.594158475637682 7.926685770679929 7.906619309774744 0.03216887142306073 -0.47584923156783215 0.679144815868811
Ni 5.2373571390815155 2.773062373136753 5.043284969635406 0.2596184272624239 0.544134646207792 -0.32756754160888746
Ni 0.8878198168050868 7.539840764045529 6.9683704021204464 -0.14481275757373768 -0.35307494185137256 -0.44030167348052557
Ni 4.999573914486396 4.459320958802904 6.9710811091951745 -0.16068263472645877 0.2109764978850044 0.22973809476322368
Ni 8.292613154387679 7.097390119618214 9.262197835825829 -0.8751518369281766 0.44226985295048993 -0.511831563199712
Ni 4.664033557086345 0.30843870806692375 10.416657257605538 -0.39257737082136906 -0.2768178218598459 0.3620236664042281
Ni 8.223661802096853 7.311165515221494 4.6644781130465995 -0.27075361794363695 -0.38699319186537223 0.6840062577261704
Ni 7.216959408684455 5.978084954321624 7.137420938128768 -0.13574499094451462 0.4000860204935884 -0.19703289122071874
Ni 2.4261099389520973 5.349743054399729 2.6452073561120932 0.8808159771924894 -0.38501421376213046 -0.16414719623629148
Ni 2.324169281561835 5.2481186461681855 11.17765574035046 -0.5936715765956551 -0.21861910203192672 1.234056755197765
Ni 0.9715625940336766 3.5817747218110347 3.8450259429422466 0.4700639923446227 -1.0321904471441448 -0.02943116077692351
Ni 3.747534459430638 2.749741256603845 2.5156454971993805 0.17811240016713195 -1.0121083316822892 -0.024502870237370702
Ni 0.9667736782016576 3.181132216166271 8.070419206179318 0.6817547426878323 0.7059850759901067 0.14335597052255308
Ni 3.5727119244911947 2.5238309289960337 7.2931149168108815 0.25119934996079324 0.7107128204830792 -0.9687541330663704
Ni 4.017927490134732 6.967240037270285 5.89562614867743 1.169042040889277 -0.8877885518555808 -0.2822860440632687
Ni 0.7549915558673267 7.286136653231508 11.136554192545388 0.3758795984507139 0.25264508126838425 0.8191385547873505
P 0.15460246730002336 5.592730836578325 7.9766829555352325 0.5458210327712794 -0.5621902181579223 -0.4297228695234147
P 8.48078140382503 1.613304422594977 8.028815273996397 0.037736338208509204 0.08119955159846662 0.09879643874462339
P 1.657244984276314 3.1932852195513006 10.330392619228427 0.002625353437989027 -0.23944580896929088 0.13072259802925876
P 4.309509214472949 6.122032535679918 3.7238880580487628 -0.7272115894690508 0.49603753359024894 0.08024001589867472
P 6.920236376594505 4.164811670823981 10.563979669271866 -0.1258927807407832 -1.3527633026027541 -0.8134093656130571
P 6.385612655936197 7.741408942122286 10.24117873155401 -0.7479020279388668 0.1450331011146599 -0.32205663909298726
P 2.5305986609926037 8.494000618659454 5.6534832035371245 -1.5570528753858859 0.608287783846933 0.480237847553831
P 7.054524805076519 3.9511898819549347 1.587433434273775 -0.22582564708269495 0.7577367546411015 -0.5446321546695008
Ni 5.308332485988138 2.8351646722187662 0.4922924154103344 0.1764470966495671 -0.16940561642175342 -0.054830831796950724
Ni 1.5628762353147916 1.0250990587595499 6.944010181208892 -0.5939608257012997 0.22356204785949885 -0.4176155447369194
Ni 6.77262934068533 0.7566161729741135 9.15142840549318 0.41949759225098077 -0.4056881971717142 1.0778491255235243
Ni 2.7135081387049844 1.5208422042760128 9.268334876643012 -0.13942064002388893 -0.4904073318876651 0.31131945518114124
Ni 6.4764213429395765 1.9749579248149063 2.555305852409722 -0.1195095029222587 -0.3242233077270029 0.24808702958405657
Ni 3.954551158727597 6.947831374615234 10.341276108133457 0.8274668721473878 -0.3015906579291516 -0.09591603187303481
Ni 8.200584649200671 7.039877951182739 0.386729349799211 -0.4542614780947274 -0.37878443080233476 -0.03035135859834773
Ni 7.611005860447382 3.778617233887516 8.361824734557677 -0.34311037443949294 -0.17038186429209368 -0.6547789854299368
Ni 2.941903281131297 8.382084559234194 12.479635455412954 0.5090704555148071 -0.3680125369978114 -0.5707563625603783
Ni 9.039575595899661 4.798936412505297 10.04406605233908 0.8188230804294607 0.11553046366985263 0.867352652598732
Ni 8.649649418890322 2.473212992220617 5.886263366441321 0.116620868520554 -0.3630842464582586 -0.3352749375554742
Ni 3.518642354040625 2.54646533307001 11.467328223339045 -0.25333773646003466 -0.06628046839478907 -0.08806285437720318
Ni 1.1855006320614412 3.336193696530948 12.612212524161789 -0.5243011564216327 0.872925261590503 0.054605346049705954
Ni 3.171256206724013 8.376021611077052 7.803373898712512 -0.013751545258137607 -0.25487448481953523 1.002422471853093
Ni 5.652004964612373 7.944766186868362 3.4968076085536928 0.12089327064366275 -0.32887751866956266 0.625237267217078
Ni 3.226518488287463 8.58723087064959 3.598042578535501 -0.6625254621445751 -1.220746154131788 -0.08053543565190646
Ni 3.3657223322649825 4.171498081608309 9.28190286912105 -0.024217477786467972 0.4083721717617805 -0.6871792561375133
Ni 7.3510129092199925 6.116403300654733 11.389144202751696 -0.04838559039223925 -0.025197839421866278 0.7521286644257046
Ni 0.4163131032437649 -0.08365422746414866 0.39797336274518186 0.6941304906443659 0.4269306514902583 0.14078743846442848
Ni 4.567297457279559 0.257464765095693 1.7068653808482306 0.045617283618482725 0.5084693315956984 -1.344951262757503
Ni 5.869566314430023 5.447400794611921 0.38016130655714564 0.4501672534206957 0.9423206214651899 -0.1729743076096182
Ni 7.953720555905213 8.933876091365777 11.26983152728853 -0.1652568843607025 -0.4634410877114664 0.07932110362883113
Ni 9.145293171814044 4.93222187936966 5.8397657044194915 -0.743953327703764 -0.4243703469622498 0.05900116112455646
Ni 7.915409229249061 -0.26698838261823654 2.5768225415998867 0.186720196440801 0.31627937028957787 -0.502913948995108
P 8.449264916236196 1.6918607136205874 3.5875819599341265 0.6953517646459767 0.3961398913616468 -0.027507204281333273
P 1.8746165845987337 3.269049482289941 1.7578863094087567 -0.4972595789228082 0.17279587305022498 -1.2995818334837683
P 4.746773372697285 0.9622739044576094 8.275692920827227 -0.04708384086168021 0.5770974742870577 -0.19352590650872478
P 8.443870609157488 1.5561085033182211 12.562143957353518 0.35453352867477006 1.0722063254154501 -0.8106222897862233
P 6.322380895573048 7.766916695695474 1.3348163169967202 -0.08270236139623821 -0.35915508660718143 0.0026312669752599845
P 1.9639163113305151 3.163277692234064 5.889992395807122 -0.9235993909066028 0.6962645062682332 0.8297443553276549
P 6.888864460049656 3.9192848596853884 6.029671517091745 0.3519187167597423 0.3246351984534409 0.06936167842327409
P 2.3989125113023286 8.430651394323064 10.061244706640656 0.34669886312169973 0.4545535554138494 1.1926295984012298
