# total energy = -340864.2031320452 ev
CRYSTAL
PRIMVEC
9.37658974557053 0.00000000000000 0.00000000000000

0.00000000000000 9.37658974557053 0.00000000000000

0.00000000000000 0.00000000000000 13.72358689286229

PRIMCOORD
 96 1
Ni 6.7607276107761365 2.328432313047831 8.269847562289641 -1.1225194718477054 0.9432963551148981 1.1221944844081189
Ni 1.6067255641915847 6.782293767571331 1.2098332664407085 1.0754780541881865 0.06651675277531124 -0.6310240491021842
Ni 4.6499822091010214 2.7413398263666173 11.39440580533999 0.08705703882050812 -3.8779439903249213 -0.10250422661351377
Ni 1.098176833781064 0.9349435306572238 6.921669275325739 -0.7549957015608546 -0.4569050863651615 -0.3177785805429237
Ni 3.4388080903030467 1.1862417662247473 3.5775609924873666 -1.3012985590645587 0.7128465789966304 0.7506489945563846
Ni 7.058078030032321 1.0812052060422364 10.3931191504268 0.16221501221058515 -0.8764612997682195 -0.055043719138705205
Ni 4.591631690085152 5.770672235258287 1.8988091528947864 -0.1117979932106139 0.07227062453995295 -1.160860533519749
Ni -0.19303398117883525 8.350247132481119 0.9839577790987555 1.1636949176447506 0.23454631478514443 -1.0756775717935023
Ni 4.427035030788259 3.3009065824826407 7.498265794038038 1.3102614246848014 0.6870543005238748 0.5404150312643596
Ni 3.9016646980774867 4.4832195575346985 10.333627500418768 -1.8524698004041582 1.570890809710243 -3.0596929803488466
Ni 8.931426928341892 2.5735738796798215 11.8135656288114 -0.1362260443459912 -0.06784986976443799 -0.676363396468932
Ni 4.487035829628456 6.2621274422611375 8.187698320420779 -0.5492028047593187 -0.4015440930963536 1.1613595846433546
Ni 1.5044926043924494 2.952444371621844 7.900792484666406 -0.28266451044860996 1.0518709562922077 -0.38419943117031896
Ni 7.748598240844733 6.917804244964444 6.116945950033867 1.2727783401376789 -0.1301754672765371 -0.8918079574276189
Ni 3.3287269247484423 6.278020762160205 6.178482634301479 -0.42575000091859583 0.42767138631102475 -0.894179542983589
Ni 3.5005341816868594 6.215760205151469 -0.17171255338031613 -0.3021421595572474 -0.8352511440784969 -1.2254535869097862
Ni 7.711410685257888 5.757160569196602 9.855388596895406 0.8887360033705145 -0.22824839759157464 -0.223806302659821
Ni 2.658722692661198 3.6980614247510237 4.016413530089764 -1.7226874548009816 2.331545766439404 -2.4507655060353857
Ni 6.587054412445439 3.5288796129876743 10.62378607521325 1.7452866802577363 0.8540690481159484 -0.6245970625299179
Ni 5.326662573204865 9.378934058432101 8.601450664490542 0.9793203386179907 -0.6586762636018141 -1.117495536270553
Ni 1.3739517196521425 8.909466954770437 11.535553488587569 1.742595249468502 -0.1655042244848182 -1.5728404772374462
Ni 4.809553016205643 0.7628015294589859 1.7735407246614092 1.2897201101983402 -1.2281732998337944 0.34016980375393024
Ni 1.6573966560703821 5.599690118232035 9.010194034229874 -1.0688332951781592 -0.011435495530451272 -1.0949641879372563
Ni 5.732959590636428 5.275119458464348 6.409779665929944 0.41509354964601414 -0.5012465885950143 0.1660305293019334
P 2.5229121643909354 2.5217025842924223 1.8935535742496965 0.21812262201148244 -0.08793404210882276 0.30376786808612843
P 7.144633331500341 0.03368914989106793 1.6857777184128586 -0.8699443245853082 0.9262638251126435 2.11003751578514
P 0.7667443855165423 1.0920820503389437 9.788183764026625 0.1521018350359832 -1.6084057759365655 0.088256458445248
P 2.8228130161029 4.621167948304659 7.555068238059608 -0.32933928879732954 1.4421788143531098 -0.43854046781504474
P 4.598532860259615 2.0202800622142267 9.218723767895552 0.3254044725192976 -0.9292846142168383 1.0390403801864427
P 3.877979431962416 8.42314074244888 6.840618032135449 1.089193604002066 -0.4217969298081187 0.4179533876923125
P 7.34919301699772 0.08020078648536594 5.803059914469714 -0.3880874533708155 0.09105510423630771 -0.09025677670472844
P -0.009834167498608933 6.817137175680437 7.73328251888418 -0.5355607884958519 -0.8049496648814781 -0.9065493774028516
Ni 4.232986502581059 0.15977990505963563 10.590725156846217 -0.7263271299815686 1.6847207457492213 1.2198131007945574
Ni 1.8707703360840595 7.98378186899129 7.491362748545592 0.8953319114204774 -0.38990008109952207 1.0793089978985024
Ni 1.0021511765029802 5.487217922250136 6.045061261140526 0.2501382556861305 0.05248572860354186 0.42874199366738425
Ni 2.3055346804852803 0.32061936477920905 1.2219300050848305 -0.0684489368010176 1.6216199606339943 -0.09246946808533106
Ni 2.472981823115103 2.3087977337742926 9.992692815938483 0.8561652685233448 -0.014973847701012922 0.4072794529182341
Ni 5.950927799706474 9.166066714273613 12.157080750835178 -0.08311219524014718 0.4842562246846047 0.30355266675152887
Ni 2.942467679956588 2.56638203521812 5.833704485616695 -1.1987825053765033 -1.8727187804611813 2.0085190501236636
Ni 0.7944268919106527 8.309149538901407 5.524731783165882 -0.40224034783242985 -0.03061206845890212 -1.353427161438998
Ni 6.905605301490292 4.856210927602552 2.359729494852614 -0.7988314677988824 1.4448972417255372 0.8976489895894282
Ni 0.32646098029373366 5.918494175204482 3.085487868209384 1.3570215636584757 2.622114619336755 0.5811996693808894
Ni 6.709587689401791 3.730223128145597 4.781475755376281 -2.0016889145757073 -0.17147689712848532 -0.009568360414725459
Ni 4.564683370681069 3.376528780114487 2.5688499536826828 -0.12698524247401355 -0.4998707912934101 0.6817246607808453
Ni 7.80280430711996 4.767827191101896 12.533614596571391 -2.797627377097511 0.1927975129831325 -0.2726426074362337
Ni 8.233067888363923 2.160188160275577 6.470795011798507 0.4077841604687945 -0.08197396787064591 1.0983963535472565
Ni 8.112803746166021 0.8818317124246049 13.620605158588686 -1.242882581019511 0.295707202565181 -0.6216467216523422
Ni 5.686733002375423 3.6111779426361204 0.5894527611392083 2.5484478857802237 1.8957982879884643 -1.0871706600347664
Ni 2.3520894493931688 4.5641676582359665 1.106243514081458 0.9449835130093337 -1.4823235048927954 -0.31571861269010143
Ni 0.44876453079726686 8.14353083130422 9.415616215822746 -0.04428210974682696 0.4472220547494427 0.175571121802517
Ni 5.139824642639188 4.999475844852023 12.054428657467023 0.491011026909935 0.04001510694035689 1.4143836465177126
Ni 7.0899584357295655 7.99626211016277 0.17361318815526658 -1.776430195740076 -1.982273229053257 -0.0907727971091985
Ni 5.50090774352013 7.551211646629232 5.6207968221215925 -0.13232979461537855 1.3170301108672027 0.12384592551408348
Ni 0.6461633145796514 2.262636781642664 0.3480580798356348 0.5004240926937187 2.8856637491121524 1.3729600892656033
Ni 0.5380812379940626 4.68209702954604 12.989554093968518 2.872417168514892 -0.07977464622648196 0.35119700810236937
Ni 4.578354438771241 5.838727524831993 4.1060284128457285 0.038144886500837534 -1.5390307277768525 1.1482287036883514
P 6.131023962126174 4.676799256246351 8.764266709363344 -0.14110111305010536 0.3893033280557876 -1.0631007635697562
P 1.1239718326260995 0.7470151026849032 4.139418449518637 0.2908305911991701 -1.0897402205341555 0.5910338818624918
P 3.365333131760808 3.6562980932876328 12.760932203441648 -1.7140827438511061 1.9628619144061805 0.7231345911861997
P 6.564109896933334 2.0921985068312465 12.392302823000371 0.46334364290165364 -0.47798941783928645 0.27143187495758414
P 4.624215340025719 3.0836509942458283 4.817074916632211 1.9074374148892892 0.3196554858506624 -0.8447896796965515
P 2.273785547046789 6.17971659353376 4.129701489393915 0.39963119234435696 0.4425117937579669 0.45017008163417305
P 1.0860997859757546 7.002474851860361 12.849353446301947 -0.011315682123135351 -0.9440247486404904 0.3511203892281631
P 8.176048845115409 3.9705545041532684 0.8944310362879544 0.499030811890618 -0.8211692120641342 -1.187532900604613
Ni 7.93652385584008 -0.07836953847575656 7.918866799378762 0.47395664253080955 0.4626872402645773 0.035617234982977364
Ni 3.1848056462052035 7.742709742380653 9.86761567013929 -0.35116024132716295 -1.1744272164605902 -0.5734341665028575
Ni 2.6676773360261596 1.5251023490167268 12.401319351858742 -1.791457265276528 -0.49355333371581445 -0.9056021829982339
Ni 6.646258201143206 7.2585588989184355 8.189948701999407 -0.11572766728232327 -0.4144307192510347 0.5039830136895708
Ni 8.385887550732656 2.005783854211891 4.208461094009967 2.0780203394485954 -1.296546389091554 0.757169826394038
Ni 8.76773042167645 6.156500156914237 0.8670260769552081 -1.2128801211201496 -1.4620405862740433 -0.4216004975265965
Ni 8.185894264521911 8.482972762670679 3.9678043503323854 0.7297904059398206 -1.2083570364388159 -0.23521068784202073
Ni 6.3629445369837185 0.5248546202656704 3.787641614124317 -1.1196881730464976 0.8580686561936447 0.5660461015689026
Ni 5.696250241135042 7.846546099054562 2.688025473791922 1.2176688007580447 -0.38354379986419107 -0.8424574320189491
Ni 3.5289827554766946 8.485907635312806 13.112626524844751 -0.2264241998986423 2.5458400158437318 -0.9838272253494089
Ni 8.69943134076506 7.998493738561577 12.144139181440078 -0.8891504652001139 0.11128917189499543 -0.2726667758059497
Ni 7.05855623611778 2.590348599030519 2.6575721850791245 -1.105630666512167 -0.6144116373564839 -2.829409040384482
Ni 3.4656157608584652 1.0405483121883383 7.497620684652163 -0.48894437418889347 -0.45231258189847257 0.7096522404290488
Ni 1.3199519383549565 8.289561842577422 2.843952538057146 0.2803183788139366 -0.30378483736699297 2.201045054612964
Ni 8.797510471233643 4.306077020936948 4.601340211278955 1.190016843368731 0.4705378466572477 0.35505571972682726
Ni 3.6484780173018967 7.998868802158016 3.7125051238498576 -0.7669963255661564 0.17785091897562919 0.3481674772474262
Ni 9.277948185091121 0.7068832978660186 2.301198945310455 -0.6461313370572678 2.0497065801055663 0.6742229530871614
Ni 2.026974947410648 6.0412337371388745 11.137638204877407 0.17374872388179755 -0.012623859411597613 1.8141256534083208
Ni 8.090731253515635 4.57863573646857 7.551554829819974 0.07640572975424906 0.378554831290032 -0.2540139365914529
Ni 5.7851496900808 1.8262502871868482 6.244767623699997 0.08071232754940294 -1.1578639127852703 -1.39270873264744
Ni 0.44476166456428046 3.9339107907812583 2.3315415902623036 -0.17473345639257004 -2.605574969810519 -0.4668295445677251
Ni 8.927920083715197 2.6633734812570315 9.259166875499481 -0.6665350975246004 1.0057492222334807 0.18426247892892783
Ni 4.374432361387806 2.0141571490023735 13.692352011610334 0.2952536599675302 -1.4786406567245698 0.6057958706630148
Ni 6.575840010911938 6.789691897011074 11.6076707169107 0.3187239751753285 0.9383791203189387 0.5306965184250151
P 0.012916252602339634 4.666147450107507 10.80220570335687 0.3229066457981084 -0.8248353480618117 0.08159935814004657
P 5.775773100169846 6.13904094650004 13.810594561023432 1.1559669528728738 -0.35061876700139616 0.5127625596544136
P 4.42164349158946 7.20319013549425 11.704929395762074 0.05157375831223376 0.16360289369704725 -1.866913486633314
P 0.8481594403953767 0.43062926825049 13.286971087013072 -0.09756616588194811 -0.910803010472883 -0.09344597306598745
P 0.8009229934009621 2.861763370593004 5.576730600176071 -0.39829499003143665 0.2724986256592017 0.3523082388886771
P 3.644952419495378 7.980171881875573 1.4187033703201546 0.4524519356898144 -0.8056479765000836 1.9135077894530854
P 7.749132706469657 8.061926369309184 10.099118986745799 -1.2129978776449368 0.7491400141110259 -0.2311714847756406
P 7.778368913812012 6.16518287917178 3.8373891118968855 -1.252411860666185 1.0250119271178346 1.4373777934200407
