# total energy = -340865.9236776424 ev
CRYSTAL
PRIMVEC
9.27998305818548 0.00000000000000 0.00000000000000

0.00000000000000 9.27998305818548 0.00000000000000

0.00000000000000 0.00000000000000 13.58219324071757

PRIMCOORD
 96 1
Ni 0.9391249784279665 3.436758106661049 6.706927530254561 -0.11721016536512073 -1.958521635159614 -0.032769738231853245
Ni 6.349429185221827 5.055753184295428 0.4711985501799696 -1.3330072030217495 -3.0062844828207194 1.2427190588584534
Ni 3.636259176693801 3.5201109120863996 2.893686089767727 -1.0636867179802132 -1.3373279418842905 0.0902608904697865
Ni 6.805957938606384 8.663847613219698 4.361595623584577 1.2957503755528201 -0.6574297927892226 -2.0928293794369695
Ni 8.450723528450315 7.514419664790697 11.53973005600362 1.0257068963023304 0.12071586452553403 -0.20028250850626797
Ni 7.986260389779777 6.081562481970577 8.808907664211276 0.10622564132915899 1.40350942280737 -0.2613415806011177
Ni 5.478363600580269 4.838685106840032 4.0166345353019715 -1.076598798056191 -0.13267689354215215 -0.25946518951401115
Ni 0.5918281184769616 6.082063601041271 10.271356856154124 0.4068423653808155 0.9346790457595323 1.8752713716797058
Ni 4.54234741638716 1.1770544571966761 3.1190152079033324 -0.9479017150973933 0.29292115517961165 0.45450727555694626
Ni 6.1446014050672595 4.7555550210016575 9.285996219468451 -0.5593820592851657 -1.5654927786231232 0.41054166860927366
Ni 2.92871616880576 7.449608264981006 9.374470647395945 1.0179653046836983 -1.822345984435584 1.013785719384712
Ni 8.020884005571581 8.693571398098053 7.489058399822211 -0.00021288734175447206 -0.9990525269395957 -0.6813117416131428
Ni 4.648120660234648 8.882521127697869 7.741618699458613 0.3639723054901667 0.9548141259465104 -0.5885278276111864
Ni 0.3953272668804175 3.9465075613498133 2.7758061803715957 0.11675456588494085 0.14710438182139182 -0.6635626451598379
Ni 0.5875676783777879 0.3860194441414256 6.056516736416973 -0.34425220135342 3.170336805350359 1.8918994671546898
Ni 0.5611392153883809 1.3404563941739152 2.828192611222925 1.3446306461932906 0.16183577449429548 -0.29972172304121286
Ni 3.3029871547342604 5.59630290186626 13.32406287502536 -0.15563427366927388 -1.684898408977666 -1.4356906355256047
Ni 1.8415754648674023 7.639550952739419 5.107244096807463 2.048259306136079 0.2807063582809746 -0.26295314806261166
Ni 6.514585038946493 9.372689818698424 13.249890756574771 -0.5290602683731728 -1.1035619569085962 1.0479374255657565
Ni 2.4975403284051767 5.1003342216215675 6.0371893162589485 -1.092510069969809 -0.02848370926198965 -1.4472991662988106
Ni 2.6291212043933796 2.8019052039719354 12.742270129938175 0.48855639472185536 0.02302679991247647 -0.0020831077812738315
Ni 6.740571179863675 2.4002582688111063 12.836516707161435 -1.101094212094394 1.1128235847161803 1.9211200545827043
Ni 7.388583098149888 3.145014007689534 10.786312381188425 0.5305553648614604 0.566464934273876 -0.6623398284963303
Ni 3.979442220273724 3.302161236265895 5.41307428165686 -0.26336838122315936 -1.6377037535697343 -0.11783005833730675
P 1.3763420876252432 1.5215645383156577 11.276683375813816 0.19872493421116097 -0.6629427521876518 0.4052354259050118
P 9.494071993599736 2.2262307515386066 4.831132128846747 -1.9379037017989464 -1.8684625762879885 0.37829052188505174
P 1.5068650455753154 6.176988545006524 12.388100514732438 -0.7902663518376905 -0.019063701499670394 -0.15109421970707526
P 5.726324740745638 2.6868612573166177 4.341059021668935 1.0001722423663355 -0.140188628538165 -0.532068201961561
P 2.8377073775781483 5.904630330084613 3.942272177204174 -0.10368873383991821 -0.8081532594204405 -1.1392344706095414
P 4.725673476415861 3.331680861522858 0.12855467360018158 -0.24467980367472056 -0.14021691067293915 -0.3742916851383038
P 4.572553760370628 1.5533763193219037 6.739552237753265 0.11048801614993876 0.7609172092516121 -0.010704016681065437
P 2.6251122518278316 9.315710724364017 3.862775204628327 0.8549697055533471 0.09835729432467577 0.9546390338212268
Ni 6.414565384429189 2.773313576994035 7.498144430972507 -1.6037567072003283 0.2276123066694725 -0.04386379126248575
Ni 8.360290096155722 3.7128283146992076 8.512068854687708 1.0194076935571799 -0.8444052997739393 0.21512651549763598
Ni 4.993772179236876 4.093251929217889 11.70865172674472 0.701888794433546 0.5127571603377749 0.49700503970984083
Ni 7.735589494639547 2.3999984292929684 3.152739593362725 -0.0177318700621243 -1.1555046685244743 0.5556647583345785
Ni 8.687112530075781 6.209663364412298 1.0182962236078632 -0.5344341310905764 0.9810550619209103 1.1080428754980851
Ni 0.9942666361698314 4.509941716482314 0.4283779255892111 0.20967371991318087 -1.2118010291233583 -0.9658770686288914
Ni 4.901473470401369 -0.024901905820350054 5.166367795164782 -1.883691734532917 2.3559131395401747 1.3863627358247541
Ni 7.3048034135161695 6.250931447882185 5.303655860569217 -0.8078809795956603 -0.3219975037202777 -0.7231379336203093
Ni 6.209505604704857 7.334824157843825 1.7749888043498656 2.5325129597175224 0.4424441737448251 1.765109371410618
Ni 3.1699864413790926 0.4689268103928258 9.902097988930837 0.9012179378876092 1.1252294145797008 1.2841356741320271
Ni 3.275657605415884 3.553537410098213 7.802127899246572 0.9390548062297247 -0.3096135282336281 -1.6931447081468582
Ni 8.273076817889473 3.938090616958721 5.0753534359474965 -0.2412522660504103 0.7241370643087851 -0.48436163991421743
Ni 2.2463961541426243 8.932855754354193 1.891808939711308 0.08388866839485552 1.2364219129958318 -1.9858321500491087
Ni 1.871262129814596 2.3010366928137955 9.173820715493715 -1.8459448548014468 -0.42630793030459485 0.4231156486195422
Ni 2.7106829731401403 4.898884355202785 10.871133279891252 -0.2404675653655859 0.5658357853303093 0.10255436312515886
Ni 1.735774381071542 8.21421388704857 11.566812757779767 -0.21790613512530216 0.2167008019632913 -0.1424907943087804
Ni 4.735556658087871 6.621889479954434 10.694442407557846 1.5354728352222653 -2.2210042713437104 0.7338517204933878
Ni 4.873911921513226 1.3762400078145465 11.658058188568537 0.13606663594999147 -0.3572820379541847 -0.21003290302481245
Ni 0.485241020138736 5.962008463679018 4.081693710652172 -0.11825866123429311 -0.8478472355759528 -0.40527656355559233
Ni 5.756011405692832 3.0279284648202798 2.0486564248435326 0.31411655831030416 0.08162275517881427 -1.1035300752293964
Ni 5.507474906594444 6.871548856970487 8.467967592471846 1.1784419940469382 0.36477988899312663 -1.3378678735481606
Ni 3.48345498006345 6.773041839648055 7.197244700979766 -1.0744940930083626 1.0212606876055186 0.22049626444998158
Ni 8.232374813369814 4.874524400377408 12.65260044022725 1.4796367020892518 -0.8402493686240369 -0.43663965124790605
Ni 5.707579175508585 8.830868743485278 9.875870901567987 0.8010976381252397 0.600641837265901 0.6076115837155148
P 6.061462039246094 7.71947944451503 6.27396807716162 0.4901522784540655 0.45456486826775905 1.9691744868877699
P 1.1566477750401023 7.3451156587586235 7.091127169770745 0.1175714053592814 0.4636912560490595 1.7196784927713287
P 7.036389191280273 5.565595438812098 11.120922576666375 -1.133107788886513 0.5636104955442164 -1.016718833871107
P 8.001377481745697 8.442074584489456 9.681373598255938 -0.5774186050719023 -0.6860878228455475 0.3783260031086775
P 8.774724847602027 8.246007108089236 13.788506525732037 0.009200949772977701 0.9984318626364611 -0.8174429122524824
P 6.39974525191257 0.44486938300642215 2.372795087740545 0.4959372605669588 -0.14155876941281428 -1.4485505222074084
P 9.576571040608348 1.5042388104455697 8.0226072983758 -0.9800358766277766 -0.22445370643583282 -0.8501247187562196
P 7.977657845732872 7.095409881828616 3.189221061709211 0.05471538926500899 -1.0370886557767105 0.17294911079863765
Ni 7.359416112238969 1.7027933222336782 5.681716791469407 0.10163776484816045 -0.934600627113113 -1.0094654947428034
Ni 3.231818966712994 8.155285996328132 13.392083292884047 1.1653957023859411 -0.6568260977669527 0.44330343642132686
Ni 1.433052062458723 4.741421607211543 8.734341146492085 0.42266313446315595 -0.23331861302563042 -1.3592900479776784
Ni 4.3762171644694785 1.1415956429537164 0.6318777402064408 -0.5175867205159344 0.3871230325750172 0.2671173067426303
Ni 3.992424916197802 5.432613285422512 1.9022405683662442 1.0174572546990281 1.7171981495516362 1.2341135765776294
Ni 1.6740810554794996 6.260007271051411 1.6491902856384983 1.0048485647960825 1.0936269571830712 1.5142244673664502
Ni 8.848779110271174 8.124847652774898 5.229117182798398 -1.77244318606787 -2.9914975543195315 -0.6668017209224258
Ni 1.8854419435186636 3.176454589384155 4.312672482310707 1.3448946984879546 0.9342928660647072 0.8249104242741213
Ni 8.36639632483195 1.122283998766436 0.8604307243635078 -0.7040991718213035 -0.5299598973693067 0.6241977702089702
Ni 4.857774031440338 5.149750129981618 6.249628538298381 2.396454808407963 -0.10843061940027778 2.244475872103089
Ni 7.810005676637529 0.7202380243456095 11.505176968081024 0.6711743960688248 -0.2179344172600763 -1.032109200284248
Ni 4.544574612256908 7.041307582159301 4.987652958584741 -1.5267172005168221 -1.0044893816844507 -1.8063706920532503
Ni 1.439696530136807 0.4625681661846929 13.433630703835934 -1.149397784295788 1.1251821062815333 -0.15405921587267016
Ni 7.308051407492886 4.8527906806817755 2.756505672163664 1.3454300021661343 1.1548302681652691 -0.23554878790772982
Ni 2.687742855681727 0.9081214839227838 5.876417326404571 1.4885561160660687 1.2452834771515198 -1.3630685411835042
Ni 7.4046467483604514 1.097562124612224 8.930183119310495 0.9026536418928712 1.6163749101849711 0.5122647940823887
Ni 2.3101217959658125 9.140421129431994 7.902051969941133 -0.3196621707188817 0.6125198196504096 -2.5847426064462002
Ni 4.251911794989121 8.090548836380767 2.5362703365818295 -0.4659877653927201 -0.14531103736639492 0.5695823968569351
Ni 3.8078553384751577 3.0161336066934012 10.028642618258573 1.6572464515883523 -0.6459698717787392 -0.0015591169570037665
Ni 0.9387352191507604 8.4470764952136 9.375665909179377 -3.50609613874142 -0.20449860347014456 0.32714562358012045
Ni -0.1913356131752849 2.573561947425937 12.634210298331078 1.6091567951699772 0.27212427303891845 -0.6483034050079223
Ni 0.5212733373181558 8.213406528545788 3.0716260477847515 -0.5350882197348075 -0.20399415302990026 -0.3903389684091536
Ni 6.885784350571298 6.887055708213614 13.019971758950925 -0.437613328015085 1.6414130841005214 -0.9232155252046229
Ni 0.0283698353892048 5.614695827757269 6.529530451230787 0.107157409114809 0.49342940654344053 0.736965326421705
P 8.26329571602816 3.465108454086394 1.185178154131585 -0.2673661895286428 -0.01003604407976336 -1.1692364162882702
P 4.110985976330765 8.459196152738151 11.362359888929939 -0.9723086831868482 1.3215205425383885 1.0975242353549486
P 2.1755991654329834 2.1426552265262817 1.3129226852341453 0.07855491488676793 0.01483912189536154 0.34358525719338245
P 4.069207493807393 5.265722074915999 8.798721027102012 -1.3232858619689276 0.3134056482862086 0.8273861395081235
P 4.932310853214599 6.758899145875149 0.31741995535660344 -1.149095165453705 0.8683116740778918 -0.5315107867961943
P 7.195225376724527 4.643118749510504 6.845452617364985 0.2799257713612082 1.0516943215050274 0.734332002563916
P 0.4394665770257231 3.9169415361788973 10.575150084780981 -0.49985639311570695 -0.42409781002715347 -0.0848543747422345
P 5.320845172692282 1.6521617361280547 9.013414356961288 -1.4193924125862136 -0.3191186395105859 1.7142269827384542
