# total energy = -340862.66602138 ev
CRYSTAL
PRIMVEC
9.32168381287357 0.00000000000000 0.00000000000000
0.00000000000000 9.32168381287357 0.00000000000000
0.00000000000000 0.00000000000000 13.64322651038053
PRIMCOORD
 96 1
Ni 3.271314335554976 7.429586860147429 9.786790806843294 -0.06930254305056452 -1.8115730621897963 1.894344586261073
Ni 7.332203232182379 5.525949933899637 9.558990300944807 0.806630909238643 -1.9542453763817633 1.753288210405974
Ni 0.9766514280802367 8.717936742510746 13.281640045907862 0.3677317725325989 0.8318644869944513 -0.7237562839305988
Ni 8.40307823750687 0.07351172858190695 3.808493128702899 0.7795780188859089 0.293123758108721 0.6520181348553481
Ni 3.9975200919077314 8.633211960795963 4.423284259022929 -1.8155590434207378 0.3427229091930871 1.361838525431145
Ni 5.058141245335835 0.04559235420475354 10.06468976877082 1.9675624052056435 -1.4405147963871257 1.4838877640561219
Ni 8.853968070441633 7.6570452602599195 9.55347838946632 -0.6914532009225188 -0.8823678950606416 0.519333270893396
Ni 3.5209303774472045 1.678853849311904 4.039745454017052 1.2190227436827779 -0.10200414704864368 -0.49328208233229887
Ni 0.5022029043293468 0.33338255453887683 10.66652003029382 1.3838484540433327 -0.5334887364581715 1.3708350725028005
Ni 0.4503342605956503 3.8938256841846317 3.853884134543142 1.0090757155035524 2.1438583209893274 1.5490035227188483
Ni 8.125953907481698 4.419000013266948 13.226971168438098 0.2632773641712498 0.030671203831611697 0.8471964893658313
Ni 3.883003209592172 8.30243202030206 7.81292990979892 -0.4953860160491791 1.045956647690302 -1.0464479855044237
Ni 5.68541597425554 3.24860671444625 5.2361341317318 0.39237656766447265 -0.4541606908508049 2.0389714530762495
Ni 6.116245544207554 3.955442012398376 2.0575761404315416 2.2522735137706373 -1.4334383491563183 -0.9949531600592413
Ni 7.232330714711569 7.02545459186019 11.740227895246777 -0.04718745631908002 -0.2692428377260653 -0.1478361177810938
Ni 3.518907572118554 5.15949591048985 11.402858456656912 1.140161867519817 0.02157592639856284 2.0016752877289523
Ni 7.892585560003471 4.18949084277518 5.809108189681656 0.05025786771428764 -0.34307180789207364 -1.2930455750271472
Ni 5.8226870860975355 5.765218907060057 5.225096326249517 0.28885341286814126 -0.06350136298775515 -0.040595404923859116
Ni 0.7045841113766916 3.07076763582873 9.132502771186736 -1.4238008260665542 0.5436404801801927 -1.7013884362128893
Ni 8.72586017352159 1.6722261323134209 12.692157286404823 0.7188053676832266 1.160616278719427 0.25625799543062316
Ni 5.712020059084892 8.360878976111465 0.7713898208183614 -1.5125434801196016 0.9746489012842505 -1.3912164643726297
Ni 2.1126570363138697 5.319959370984765 2.72028165632668 0.5136025390572059 0.8368202883378298 -0.2183609632745336
Ni 6.302026697203002 4.762541338530082 7.405720553774412 -1.6489315039647536 -1.0858051471458074 1.0377314315670323
Ni 7.014473648647514 6.040656012364097 1.837128578511117 -0.02469313187130586 -0.5452291648235512 -1.570598732391121
P 5.515863872307009 0.36818506004356855 3.498928407782621 0.7879713851559269 -0.3658921482206988 0.20817682365268017
P 1.1531388625841414 0.69776436769724 1.2614503001656776 0.47830026421148586 2.7217932035760155 0.4133472563788688
P 1.130515136627295 6.135783792911941 7.96838110105321 -0.8650638565645553 -0.9810869436001104 0.69147968328508
P 5.099790527402251 2.5108141054505775 7.597052769319221 -1.4917941633873921 1.321121250217441 -1.8404658339647464
P 7.634822366695386 3.4138615202818396 8.850442609725985 0.3997324938089115 2.7246558698357917 -0.7433383198275844
P 5.5336403228219275 5.891098921613521 11.11530036624299 -0.0015058951215651485 -0.2603573623109774 -1.8888804778227084
P 7.336593745130741 0.14048429615898161 10.134992973877514 -1.4361634613969652 -2.6600314489871866 -0.5900779457071257
P 7.587058060225307 7.525413766960936 0.31810245087655176 1.5904152528964157 0.017304552716718585 -0.9725267127349251
Ni 4.487458457200645 3.927253241366853 3.5833250662367195 -2.9439187760993044 0.8954167578247998 0.17079992566611873
Ni 0.6576102836709885 3.5490166099597626 6.720871378624847 1.1346604780856135 -0.6879117634281636 -0.25928032719671473
Ni 1.4530733522370038 7.836925787573175 4.67441507449076 0.29582238798680666 0.6971114276495608 -0.03435713732363115
Ni 3.6083864124398435 6.224488933499232 4.481840278529779 -0.8289637684078885 -0.770134614084822 0.5554107333422434
Ni 3.2424077948907066 0.9668356953103318 0.05075656688711573 -1.6296502871376384 0.12848573827894 0.09175341585491295
Ni 3.3129449742543073 7.936518654537719 0.45242324987745053 -0.33427066466067595 0.05667945496991529 1.079515971702986
Ni 1.404330268994997 4.566515655321789 12.642564065623771 -1.0467413483751262 0.04242757303659145 -0.3340341231698376
Ni 7.164664613878957 8.395965792964194 7.396824871170118 -0.36368845570116076 0.5785740588325843 0.08927230130427205
Ni 1.4396128412021103 5.687121842343757 10.598549110409378 -0.4288780050246162 1.0045220346945989 -2.7387879383617992
Ni 5.0434968804910865 7.756684735642175 12.266202024777009 -1.37835632058051 1.3112795815366707 -1.2562692867390624
Ni 8.008118505825127 6.220956015436749 7.461084828836421 1.8081218704164024 0.6506523648560729 -0.6395467418612146
Ni 8.748129675503836 0.5259377749644202 8.589379540443971 1.4547710491958237 -0.9953398539746988 -2.0889153890945447
Ni 7.757980449654536 0.3182394796246216 1.033763518806404 0.8532249549480982 1.0635666474625811 -0.2112014694116169
Ni 6.899341535218172 8.10723596692902 2.6230872585375358 2.1407403441856356 1.5000913703991778 1.7610688827926573
Ni 0.16609562169109374 0.5194825091114674 6.227464414885893 -0.8361399744413536 1.0042428128912835 -2.1522768840703255
Ni 1.729517199363598 1.3511780294375435 7.764496306450513 -0.40106278258456096 -0.5335851528267198 0.9041543948081138
Ni 3.070087152930152 5.5045659918539 0.28776037094678836 -0.6827361327644952 0.8379407750955182 0.9480022452309996
Ni 2.2231189862885845 3.4108226514470923 10.554072561724622 2.401609356025709 -0.24295639322571058 0.5301051646979194
Ni 5.4645573260909055 1.4592349850583781 13.045353079312584 0.3882116376535056 0.576376022740001 0.3358827463428022
Ni 0.6500876850524573 6.527695334075395 0.6256564846567838 -0.3609090931838107 -0.5847112820785736 0.03156234818731339
Ni 1.379497304038656 0.8468982540150012 3.4983961396523626 -0.07876188869125145 -0.04415663991255621 0.2338351476507328
Ni 3.3532053254729397 2.112675679680954 6.306895412517077 0.015391137744089622 2.0427543171574496 -0.22664325788798387
Ni 6.003788753954814 3.7467668046233573 11.844844217472195 2.3803311633732234 0.7154719324346194 0.39661168879174274
Ni 0.8884916059801637 8.265909664183837 7.685393432080013 1.5013463258522015 -0.86143011646671 0.0019386117836095646
P 8.866086259046455 4.912415366521091 11.217460424855046 -0.6647538372544616 0.382787895534773 -0.293265683003224
P 4.24120754306714 2.8032166748013663 11.630208725240314 -1.5959294978464256 -1.1918842355947732 -0.6758283499010683
P 4.5437987125295205 5.181028999472262 1.765365597761721 -1.1105599854929842 1.8734392035669736 0.26326759397923694
P 2.6368432669407165 4.254882452823503 5.040189547170325 -0.5171290641532256 -0.07114859512036778 -0.022556030923645023
P 7.119827316041119 2.6720699090465767 0.5991064655919752 0.5668377442322625 -1.3361326360246084 -1.0080318476200703
P 2.52268060859976 9.319418373069267 9.382597015444677 -2.5461547188706732 -0.7755624699686128 0.5397439733392639
P 1.5766415892720098 1.988743896987804 11.9031140612943 -0.6379233473251787 -1.7895970721393375 0.2934040083533011
P 8.832574806712353 2.2359456228426104 4.616335393012916 -0.645777810372591 -1.6875448454615776 0.7223228939181818
Ni 1.2196770397081511 2.6912446120928206 0.26271673594239436 0.516326108635956 -0.9673793642060305 0.4445311381808409
Ni 6.909278449874125 1.291929408843511 5.2410997925547145 0.4960311058323457 -0.19801530973864606 0.3139329815445884
Ni 7.227539369370894 0.14863704058496352 12.229773817662563 -0.8441682440624687 -1.7877397072156245 0.14071621890686087
Ni 4.280563690982181 5.174848723283803 9.244076798008031 1.5075084887988552 1.3360837850645442 -0.21263460231371767
Ni 5.86527785820171 7.194037238720335 9.307109089951831 -0.8047498901658463 1.0940738149125027 -0.48697876582209026
Ni 3.8840285947818107 3.4156326401548522 0.1503084184440746 0.5074653158112163 -0.840021568883947 -0.23860840066966002
Ni 2.8686548932674003 9.285459479925143 11.62348313056464 -0.10549493381072154 -0.5279258976584134 -0.8227699808923508
Ni 7.009272149230983 1.721463264783163 7.780308678243095 0.2599958652065006 -0.4914347447109149 -0.930745515033081
Ni 8.28357425449625 1.9615152593611251 10.141528406208929 -0.9736713678623297 2.3694404846026482 3.173239580819451
Ni 0.4493741271908067 5.748961890962513 5.815834716525686 0.7891852029583699 0.7688292650098373 -0.20736641193624286
Ni 5.167111725943802 0.5369140573353254 6.646584085972232 -0.20519048733084663 -0.36342646028902575 -0.5196479739203373
Ni 2.4234046788756496 2.9701120969403787 2.3176706867935235 -0.09220258757718959 -0.1031706565529191 0.004648297405288769
Ni 3.8313610827685505 1.514810862336796 9.144003864341066 -1.6641910012269856 1.8128856103536328 -1.0858552836574524
Ni 3.028493800964989 6.126555326205193 6.97811442199128 0.308101719574792 -0.39973943578744703 -0.11378082796859759
Ni 4.873786309922338 7.288931977179625 2.804037915121432 -0.30228279890016974 -1.9387346823406741 -1.1676279341505698
Ni 5.3604620859754935 5.592702509745117 13.209726053885083 0.7417506636254902 0.030580958110650553 1.9816235112844003
Ni 6.431048119110177 8.218928379131302 5.056206996000835 -0.039337621257358055 -0.5696397324574318 0.2488845857846875
Ni 6.802740928670664 1.8935228996045372 2.856863895754909 0.44512017791509145 0.16519466366419935 -0.2333306972104885
Ni 0.10846617752833605 7.0058697347380905 12.038659729512641 0.6556804141982836 -0.18330037212597464 -0.25196708136475315
Ni 3.0796884869785868 3.6631885899842613 8.272802116994919 -1.0491036779597158 -0.7133055209109199 -1.2554982129009924
Ni 9.167652043319197 2.4270774221912643 2.3022675369084418 -0.6426233239040094 -1.2269314570068934 -1.4712456498120792
Ni 0.49486673938165904 8.309544464844736 2.107100380754382 0.033933162412335106 -0.5389086219221622 0.7545231327998102
Ni 9.226052390710892 6.346388589180188 3.172322717178902 -0.2085720022085698 -1.0368413156525949 0.022148511072581208
Ni 5.466291159229749 2.920902929521263 9.65110904204524 1.4515638551124355 1.0944491959740508 0.5091185351439232
P 8.514257957114332 7.410598590772029 4.881273486143409 -0.07163684761069597 0.868702224648091 0.7778355822735056
P 7.404427636267112 5.2013875563283625 3.8015624569892954 0.2290896625459474 -0.7136281943576613 0.3742387204131813
P 0.5926996724934418 4.52609683548294 1.2647911915471912 0.138315065664536 -0.9336732302028371 0.8752539097236798
P 2.7417681368913818 7.579358349619474 2.7879664005263765 -1.24697166348722 -0.2655224514516847 -0.09394219597611564
P 4.247555609559357 1.8237128115572259 1.6533814168645702 0.7461973865429343 0.3968250903541295 1.597533609108752
P 5.353088634293637 6.940049327246828 7.049618259938204 0.8132000778157286 -0.4462288375982379 -0.12160469488839058
P 2.5367283856978102 6.9018677114581 12.391160124828154 -1.2457655589942611 1.0958504471969515 -1.6042246479756823
P 2.7023933456092557 0.09509701899215582 6.004138317087645 -0.9383572659420678 -0.4014353354326312 0.1693271977753342
