# total energy = -340893.4702180005 ev
CRYSTAL
PRIMVEC
9.05285501168666 0.00000000000000 0.00000000000000

0.00000000000000 9.05285501168666 0.00000000000000

0.00000000000000 0.00000000000000 13.24976838621571

PRIMCOORD
 96 1
Ni 6.464435661370845 2.1644018783672467 11.431264734219654 -0.5486191643417069 -0.40620781712061005 -0.568564240005066
Ni 4.7105264478411435 0.2661113935845776 5.986934667848997 0.011213095107000044 0.0422311407550692 -0.08674593533799255
Ni 2.718183134838716 1.4487103071767522 4.82720869812985 0.42522858119748697 0.24013589305778002 -0.4317856655897144
Ni 3.315010717644486 4.169084232966656 4.79294454659616 0.2892223661717858 0.9822866203351663 0.09965030210448644
Ni 4.652054056296822 4.656616695302603 2.507161080821356 1.8495546836398922 1.6411094368171737 -0.19758619262102747
Ni 7.027758627191705 6.065811289661432 2.9193746934267564 -0.5551952748973277 0.4461018251020704 -1.556712975547964
Ni 5.034319918713684 4.68822021270177 11.433119664244028 1.0392851492073971 -0.5178487159280694 0.07411770505102074
Ni 5.746689092056715 7.858738308974695 12.221719309833246 0.29186546022158766 0.3024584052460856 0.8491441000105053
Ni 1.8564961683184074 6.727240046961748 0.277995981852016 0.8560822218912354 0.08146848898913711 -0.013038064130880772
Ni 2.8940710579405304 1.5192229960974393 0.3437495848097291 -1.0685026513116178 1.818750553774842 0.6040194954888822
Ni 0.5180098045519413 9.1472764496251 4.586672525686604 0.18387064280714788 -0.4250216073930035 1.0320783470463128
Ni 8.429158713248992 2.4231143734212197 1.4734934034906915 0.9185857397420953 0.33359446452925773 -0.2509232134812711
Ni 6.960830868918417 0.6229984818173008 4.815071535203162 0.14061928831768042 -0.4096356118552365 -0.06374921733250312
Ni 0.6924945351023745 7.369268535632326 2.3181130221586224 0.9696236801555171 -0.9862818575374885 0.3708744319266387
Ni 7.568530930783597 3.804227011042089 3.729094650128049 0.31836659183590976 -0.011204610466567799 0.48958432176573746
Ni 7.318690233796421 3.778661748041445 12.93581576794275 1.96060525716152 0.4706412050043314 -0.8154950444974924
Ni 7.866378918738345 8.853004339462583 6.917386216956627 0.8695316625279219 -0.2914391713174465 0.41625928781934113
Ni 6.903100811498052 0.8575534328495955 0.2754412661229856 -0.3067894285212716 -0.5600402616944549 0.22879012902765758
Ni 2.028065879504036 6.481174390580544 9.218579452802148 0.08866320696536344 -0.16236850706931394 0.055681866943336364
Ni -0.003542382228099227 4.958638049490812 1.2270846438985368 -0.37704199418993134 -0.8452128832768993 0.6012257347938291
Ni 6.767805890979415 1.9580420447625397 6.879226621843201 -1.4849953952980037 0.43357798160344685 0.41858999283504683
Ni 3.1602431056547484 4.472336775458014 0.2924198959946956 0.25285025530065486 -1.029659196081859 0.8855090117927846
Ni 5.89726523210265 5.615006260750987 5.061902157846249 -0.9462955469525378 0.1722050335437615 -1.2336497495673333
Ni 5.545272117374937 2.9236829472022543 9.240057351693446 -0.28021707734938195 -0.7747273756618269 0.6481028589613419
P 0.2554272139127076 5.673768343660755 12.516155276674343 -0.0173181795634734 -0.26244869762236733 -1.3651789026582877
P 4.054366452249883 6.202645195559004 12.740937670550409 -0.0016748165992616318 1.247258855710336 -0.3370536267224518
P 2.3501393078942385 8.722797123549597 1.4176191813802175 0.7848996882091386 -0.8811815880620243 -0.7918074710725653
P 6.3752469322340355 7.661087322043721 5.805783414751229 -0.3290896346803687 0.041277004371916004 0.21225305060458283
P 4.813538886822848 1.2174732275643356 12.542614961765805 0.4001754948836011 -1.1729945977791219 0.06800696416759254
P 3.968753600905303 6.0710347870946375 8.27228088071908 0.301443590828326 0.06092486050983056 -0.554333955338297
P 4.692900538824764 1.0759408898334302 3.86982037846329 -0.5000150301807583 -0.29405064079836457 -0.11415903724362275
P 0.024109563889276417 5.5703032619205395 3.3312968040956754 0.6967674140465806 -0.4403829203404222 1.7528194982996717
Ni 1.4307041782432246 1.231468941657465 2.6101119603879033 0.45405630406245673 0.4552312982071644 -0.7086104294280958
Ni 1.6557672106295647 6.209778845433121 4.805611301550305 1.0440103225972086 0.6101297221516784 -1.0883407690834677
Ni 6.0689254718399805 5.800046620429874 9.286484919433816 -0.15972387035761523 -0.47997739480359275 0.009160583453345514
Ni 8.632449628951 2.4523007784899447 10.257467006423948 0.9846412366102721 0.5352555985506072 -1.0930690277970723
Ni 2.195616122994096 5.12786307118736 6.962356275014596 0.5740694860940113 0.21694839919772313 0.7293355777905891
Ni 0.8073662143570413 -0.20226884835329376 9.125645557481425 -0.030543934225128043 -0.39694336109954864 -0.22204998209034663
Ni 1.38611886652999 1.0721115320964356 11.386546345535418 0.39692459204647124 0.04792073494067876 0.26700340687258534
Ni 4.046653419644873 7.046470878828508 1.7260870737351264 0.20940889628756837 0.4122331973790836 -0.6977678302866369
Ni 5.632224791284707 7.954553728096092 8.006451030930297 -0.15219490897042176 -0.47068054288269906 -0.16454905966040048
Ni 5.335707573039979 2.9242080128021257 4.923083866095369 -0.03112191821578511 -0.17992374234425787 0.14766668208276504
Ni 0.49471680819901687 7.129802410670199 6.946416007630908 0.58761508598893 0.20320148192527585 0.3561780062567285
Ni 5.300111746510753 4.38977473630579 7.442488028248904 -1.1713501201971634 0.6146507499504834 -1.089555358216859
Ni 8.461685621875521 6.906368892214494 9.443825352862923 -0.3382149940204046 0.7588945223946285 -1.0322372412216803
Ni 4.843141723229402 0.24032524091778013 10.402724594057391 -0.0635026485393358 0.35979606262529 -0.4609628013743029
Ni 8.327956845301328 7.187559626656074 4.749299826535109 -0.7447966495406657 -0.4047893395065286 0.24258435459827254
Ni 7.201274702238927 6.043124834604911 7.106394443056613 0.866974700434023 0.5384941600925629 0.024160656406603552
Ni 2.1844448997140695 5.283373017301053 2.3820433800850567 0.013688039010053847 -0.3378154445891408 0.816142191163188
Ni 2.4649476171627143 5.025185587846952 11.383233905828641 -0.021738934338988367 0.6981347267077525 -0.613230215453873
Ni 1.0057541036988702 3.4161311098956193 3.7947604403906112 0.1785554012418215 0.1892697023355321 -0.4632837361979956
Ni 3.5417123168166325 2.853912592405523 2.8025376393146386 -1.1305729382798013 -2.4773753953134303 -0.45489731190651334
Ni 1.336491114486954 3.140897154156031 8.201765475941842 -1.5940852455488355 0.8607469743567563 0.4042748617639554
Ni 3.6514238686242853 2.610399841182316 7.087062976126168 0.5795500495926084 -0.2734489053876129 -0.24296642052803963
Ni 3.937901470485261 6.888534767529201 5.9169886876619655 -0.09201001195040928 0.15653518821698847 0.5825158170891517
Ni 0.8796559787476386 7.4497122066747234 11.264185239198444 0.5862801692275904 -0.6791841537471787 0.8737737256337275
P 0.26132967548367797 5.3193671694577676 8.201871394347334 0.32214817036552906 0.16951488830610806 -1.2818707893572503
P 8.871354476892577 1.4117293938064854 8.180420654021546 -0.5694654116630966 1.0761791940202692 -1.0158644562906118
P 1.9012534842798758 3.048793405654417 10.318390005862842 -1.3518382196853236 1.202165562916123 1.3501955418755778
P 3.7802278919858896 6.208792084219569 3.803491919202269 -0.07515617361786411 -0.31886332896667013 0.11360470740204952
P 7.121808739554911 4.102029734720986 10.456532049332507 -1.1228902249235628 0.33437505144902413 0.14332614572588218
P 6.607642777308238 7.811717779220678 9.989875471019044 -0.6667050474435614 0.5307710804166923 1.449625500439142
P 2.048543437899028 8.196047692616345 5.760972686944257 0.9572651585901643 0.6047841415690488 1.3333116216360457
P 6.620633624477474 3.912526317443191 1.7467701319424822 0.36521491964801617 0.5189666315825965 0.43802984672721335
Ni 5.180143309795264 3.1279696769729854 0.34333224818638286 -1.1865368552399307 -0.8242303674879612 0.4909529199784899
Ni 1.6483167108244898 1.1441903649615675 6.977699053957051 -0.6891924299128002 -1.53337455793234 -0.3069706912941423
Ni 6.963582936890157 1.0255526979560974 9.092998245881134 -0.04661204343158424 -1.551308002482309 0.75056363393143
Ni 2.816497141987087 1.4130420578061644 9.369348418663208 1.1632326332963514 -0.6431694262154665 -1.1334965396844994
Ni 6.399155522738534 1.8631681225788446 2.8365763747545905 -0.016573073867332748 0.5587467396940119 -1.3385001078155205
Ni 4.239506393335642 6.781276539472672 10.586313781052494 -0.725946606713698 0.7730579583792041 -0.5569022302861054
Ni 8.079283966631106 7.193317242544322 0.34554205013342865 -0.49069221011793557 0.23854000932556982 -0.00721451547056822
Ni 7.548696125105689 3.874495272873181 8.24739820299827 1.6627558114423557 -0.23516183688195627 0.433236539103628
Ni 3.172835627196496 8.618408650582023 12.437319392710174 0.8545192482794898 -1.421930605627035 -0.17849626586911194
Ni 0.284198998214637 4.926255986547008 10.362683815639596 -0.1387539529741675 -1.429732361059641 0.5787028711009646
Ni 8.701450491058266 2.440731229582429 5.6681447100290265 0.6084703321713842 -0.5524999874533517 -0.17520293982982083
Ni 3.6873093865189572 2.7778323975551635 11.442951064958866 0.35058945642535755 -0.6515103419809941 0.2759798993395828
Ni 1.0514257580325288 3.366240825052647 12.626406378650142 -0.693724770565515 0.016610097752855265 -0.45354825407778665
Ni 3.132487051702915 8.432589745358499 7.979010921623903 0.22945707318769515 -0.5365169817615341 -0.39371379841865745
Ni 5.453955967273131 7.904301329046312 3.781007342816044 -0.6092108098818346 0.19563446821129532 -0.35937902969252944
Ni 2.638744330720212 8.266306901592266 3.545863050912169 1.2128554385298016 -0.30586074605941516 0.4711014324702016
Ni 3.524711054806997 3.9593476843834647 9.149363132741831 -0.5685961216842659 1.6536415078459132 0.17419995248660322
Ni 7.28474202690817 6.055328083374341 11.494386672179392 0.30341177029829036 -0.0843704931272805 0.10834834409911663
Ni 0.41506073555642786 9.078474750331582 0.455867385521621 0.4636110376304273 0.7337771585017105 -0.8622307579911344
Ni 4.770755093288484 0.5560046377012704 1.5492558431245773 -0.3421130435232302 -0.745969072582212 0.37704199418993134
Ni 6.023407716044216 5.696608697255169 0.42823897682768786 -0.49253980484963555 0.6063705122195622 0.6926896444327812
Ni 8.179716341889304 8.964951946497274 11.168123582416419 -1.2028985844274056 -0.5849681352843862 -0.32956477454457433
Ni 0.030757075440754213 4.8667063052374315 5.710371752970424 -1.1993489194029345 -0.6254403843668196 0.4622943757015328
Ni 8.059621165201431 8.710331341980233 2.55724509676497 -1.4243852378151147 0.8293728309208491 0.07498853769174828
P 8.533836877582013 1.5089298997689218 3.4596871119760015 -1.107744884641692 2.5112473654705267 1.1949286788480518
P 1.7078301807133844 3.1349856397298903 1.4838543962329853 0.09991589706104728 0.5454235402225446 0.39286713414764596
P 4.951078915423695 0.9733720407550652 8.071997323504611 -0.6209311836425564 1.306787092982956 0.401724841648592
P 8.503102434279185 1.7084638805752983 12.242626878848823 -0.0015228644024296353 0.1438784186849264 2.6985365470409204
P 6.353320917011811 7.975891307732253 1.5769077892419532 -1.2437919802076578 -0.9545973819500141 -0.8940558729215312
P 1.8044241453794174 3.17843029169168 5.974532256265824 -0.6764801245524543 -0.11808202644711277 -0.5630181133758563
P 6.900040946450524 4.053388743891501 6.052375042017822 1.55065442805871 -1.2405937849853346 -0.6275422612011708
P 2.6411795487609955 8.44312726877661 10.326843562020775 -0.0590690382480144 0.007716651917967356 -0.4758780279232385
