# total energy = -381164.6831555503 ev
CRYSTAL
PRIMVEC
9.26566646642056 0.00000000000000 0.00000000000000

0.00000000000000 9.26566646642056 0.00000000000000

0.00000000000000 0.00000000000000 13.56123946153071

PRIMCOORD
 96 1
Ni 4.210652389976766 5.675878550952076 7.8999368487132156 -1.7058325880271719 -2.768863160480625 -0.565327221125007
Ni 2.946750629201738 3.83734795516136 6.5143722548734875 0.5291829099939661 1.3978666226992957 0.23818159754488655
Ni 1.2348816935149363 1.651984933546963 6.435350945288248 0.4297259548472083 0.5965262724356306 0.5383128973196922
Ni 5.381452734458881 4.518828455452713 6.342157798897673 1.1611212433803035 -1.1183344872320804 -1.0148781811179424
Ni 8.867576337908538 8.324154267430524 12.195364527128516 -0.37327044296264106 -1.561185923717653 -0.637529968541502
Ni 2.35970580116928 6.334463589493848 10.8582677078197 0.25328374329364767 -0.4339873012267236 2.3374287075827422
Ni 7.594686880695997 5.548336652537271 5.593264942491761 -2.7858414402061764 -1.683594602564578 -2.321009128574138
Ni 0.7926573786567401 1.0791999661509297 2.6228924232922965 0.4072984790816276 0.6326960374879684 0.5958032782266771
Ni 3.0532872618187685 7.1626103237124035 8.93173088570616 -0.641820625497056 1.0109626481136202 0.4607555704595032
Ni 1.2395886520615924 3.6422778798016155 2.5109585399795433 1.7427479729962827 -0.3272692936421783 1.7006147912716583
Ni 5.685199811381084 1.3416592334591577 4.420964486614561 -2.3450594846551227 -1.9377880021566884 1.4928400881534032
Ni 3.234625619528623 1.3634242839042268 2.8372285988608246 0.16638765553103602 0.24127797708202317 -0.1600285460822276
Ni 4.324684946736011 8.208935705368184 4.187792137759621 1.0327854004156665 0.3668912789091746 -0.2772484816393612
Ni 9.114311769284335 2.8248793186423535 4.861053065360544 1.800521689471641 0.9686690295517316 0.4045437991546259
Ni 1.9651922558946304 4.826921129930786 4.582301976767699 0.671179024054515 -0.6032941872870836 -1.0418295128958057
Ni 0.5959500600387396 0.23517095310398234 0.14836277745061346 0.5412660664107452 -0.25576665761650147 1.232091403941278
Ni 7.539046553781293 6.444317330692971 9.953637530051198 2.571039397927495 -0.5230839961850797 -0.459891165576679
Ni 1.8817456640222199 4.818591295809833 8.789812379257906 1.0862430060141743 -1.1616496050799479 1.0112117880099487
Ni 8.360169912845587 1.0589452193340199 5.947431143295123 -1.508929280405782 -1.6321090330907762 0.7223627460171818
Ni 6.236979512979342 2.959527983209295 10.236375634909054 -0.4810364321957264 -1.1450575050492215 -1.93252803930933
Ni 5.408350964106406 6.691432654392415 9.533415466698688 -1.3634835172337356 0.8363945136543208 1.3479715376410655
Ni 5.587456296206527 7.376545295924494 13.340706526526393 -0.6276160518618997 -0.9306154172131199 0.20859565635765365
Ni 6.8831670898372055 8.611491849104443 8.711170961996316 -0.8200716081245812 -0.3056635424469446 -0.6019039918077764
Ni 1.5802779410419014 1.1304113045118904 10.898150842402822 -0.6849153998040011 -0.4494491443077485 1.826070484475023
P 3.3132447991907816 6.567717476213375 3.157422233697033 0.2782874644268369 -2.026966972416206 0.09998840217019554
Ni 3.1038963318617516 7.826699168113848 6.735365811772276 0.23131315255982746 -2.787374331910935 0.18906761362705504
P 1.1471173010859474 6.759572365321762 13.280996718915446 0.38570892583630995 0.04098569838374232 -1.5689496268234724
Ni 5.238029483782327 0.38969076589761337 12.53526345476231 0.9013670618709638 0.6495169657000491 1.1682509124465494
P 4.443442993374772 6.070957301878981 11.794386326385357 -0.8682646228900401 0.42447679063312704 0.42749757973732183
P 9.074552794631378 8.274907250352813 7.747712141494401 -0.6150369296453084 -0.411244351103253 -0.51738977401378
P 1.7976319441668185 8.468133458092902 10.27931088001436 -0.08810682024126117 -2.1690145085399806 -1.034082007739903
Ni 2.0676705266151343 8.289287564652833 2.774235965633578 1.1710099632489253 0.22638126247584883 -1.5191543005678998
Ni 5.329166578791991 4.8827097075083765 0.24033656213894444 0.4334782228007889 0.9822125725641213 -0.04073681559772984
Ni 3.9115752089354974 4.455599547731491 10.065490802066007 1.4235339455584128 0.4135485737563975 0.16192730576683725
Ni 8.387290518487442 3.3128463755342734 2.864852330189852 -2.875178533310113 0.2135411732883871 -0.7654184395560754
Ni 4.47368612860368 2.8718006534460274 0.766905311946659 -0.6398555313508851 -2.1357346634409287 0.5299388143233841
Ni 7.320163715695356 7.167956613242758 3.58553771828162 0.9509983517448461 0.9991229751662147 0.4466314723532953
Ni 4.138963928804565 1.991191715898404 6.715796724271217 -0.2667637800579535 -1.840248575747618 -0.5914645416420072
Ni 9.026241609863142 2.215133607855354 1.0461076384946657 -1.2440424056555672 0.06378624121802563 -1.8251898816422825
Ni 5.7810068022716825 3.1271809516014106 2.6521033632808555 -0.22194765218452742 -0.36694784317872287 -0.21637838562686604
Ni 7.438921762334117 3.3527906635158367 12.082833934897643 1.7466912739147469 -0.6034679938607865 1.223529630414196
Ni 9.035701855288606 5.238131406113062 3.851175109175484 0.04542830753612822 1.046858590679281 -0.2354983942857686
Ni 8.533187702100918 1.465272489307462 11.203617627014513 -0.49186951825548836 -0.10745745685373105 0.6246561979026274
Ni 1.939433703218048 2.135560064550861 0.6947044594208559 2.5522479762526045 0.6380241345691012 -1.1445497121748676
Ni 3.3945880847834857 2.003459458252287 9.726256222715273 2.680918576848841 -0.36716098763079347 -0.25352979786618274
Ni 8.267939469197133 1.6904281835667976 8.820541961974413 -0.27321236389677467 0.26006451366090694 -0.7113787362018522
Ni 4.845748964117409 3.1776695679807982 12.15293148114374 -0.5812778309169925 -0.9514930319930776 -1.0949194507422497
Ni 2.013605362993603 3.4304740108685228 10.960980399900894 -1.6770889402355762 -0.15006140756718672 -0.44061637650746693
Ni 0.6549927396666958 6.560054770075413 9.316571075227447 -1.681029412940563 1.623848592854197 -0.4041103111616331
Ni 5.464843732332708 7.279051953743559 7.145267775854576 1.4759129733807612 0.45580979641845365 -0.8899896732719577
Ni 6.301941100323056 1.4381148209998855 7.515231937921814 -0.12170085414662268 0.124634739963966 -0.42354219463399956
Ni 3.112800637301391 7.90341888615777 12.847064248945838 -0.45190403360614434 1.3244634272167963 -0.5694672114353095
Ni 8.049195616107651 6.065138463360674 7.553691866141224 0.669539174458247 0.9951403363693829 2.931477722122474
Ni 6.926437752067292 8.260304560058461 5.5146781926621085 -1.0802528498690105 1.543797810148193 0.4527301290518655
Ni 4.339982562012643 9.092157560849188 8.459921297935617 0.7952632908316498 1.0108510622364202 -0.7705771009388793
Ni 5.709336872432342 5.462165954734315 3.771448682374889 -0.26312155531967585 -1.4868738432676392 0.9003684454031203
P 4.595955862819573 9.14273883389288 6.2108577461786885 2.7416040676543556 1.15656756257135 -0.3812411198729434
Ni 0.8956461875975608 6.234607502373154 1.7411410290738016 0.17788125799293236 1.8093855676201742 2.3589719809711567
P 3.7542719899461665 8.796110252730667 1.216010310696089 -1.06391271794809 -0.9426101276811508 -0.48714665885852226
Ni 7.950293892629291 3.5024404420336364 6.878124714165768 0.6852596705172973 -0.18930569777979012 0.8302475202163184
P 3.315931842455605 1.132662861454484 12.196042773911222 -0.199468754355721 1.2830360133099452 0.5184590958185588
P 8.808526245747437 8.026846828677465 2.0827216751647173 0.9835341195890223 0.017479901952318282 0.9871593750464354
P 1.0478727479496617 3.5945319006856336 7.269258144326599 -2.9144372217004193 -0.12216776648071219 0.48005118546432163
Ni 7.422382547755808 5.979885066534331 1.6827052505970381 0.7916087247981979 -0.5894984190545719 -1.262111604452452
Ni 4.214358656548937 3.2090894428463703 4.606834681775536 -0.5605218293165637 0.38521296003649785 -0.8860420014781192
Ni 6.843157942190629 3.180662378237826 4.654828054185209 0.1552853749702874 1.5701657586187605 1.4220385919598089
Ni 6.401880578441623 4.680013988676392 8.517841905358848 -0.1464531213906381 -0.10038538049829808 0.6788969615240631
Ni 6.563520129320393 7.96158874000798 11.395102816032324 0.2336135185582299 1.2778727239414507 -1.1042304437305306
Ni 5.275898262483476 0.3519581924929923 2.207431059351741 2.4022575311326695 0.9524564243476112 0.07228039473196583
Ni 7.3100548736197615 8.776837666555382 0.8168583728063681 -0.16003163140602117 -1.8600499267442612 0.6061460549135819
Ni 3.8314735226444707 6.135918889222693 5.435819032239401 0.9664087727626454 -1.646958182288467 -0.6343811384998752
Ni 1.2292852309909594 5.663360635604572 6.713776808989385 -0.13191430434451473 0.6851126034164716 -0.1523730864194989
Ni 7.61195808292231 1.06330008255632 3.4350623688848696 1.310230057226234 -0.6464727795570866 -0.9174742518454714
Ni 1.841532671714174 7.239533886417795 4.939356285797425 -0.15899547683202295 -0.6199611064198033 -0.9486789595830499
Ni 3.371924264694665 6.096456415895513 0.6048330544455883 -0.5774160339687411 0.5135398041400705 2.384021981961249
Ni 1.320774421324979 2.2987191847242205 8.995617655743942 -1.3948265503213915 0.3671854131108257 -1.860009817534945
Ni 0.30694465840734303 5.074434877286738 11.800095830039785 -0.6875299546087127 0.9027832254922 -0.14755278221272006
Ni 4.064829331694733 8.793441740798706 10.743661606308413 -0.6590727277092843 -0.6513465627096202 -0.6894767939224384
Ni 8.949568220151372 7.2426842130041384 5.780152507826797 0.9996611070578718 1.3301833604197093 0.07106374871604536
Ni 1.8859986049137851 9.0841520250533 7.915695894178082 -2.041856745043845 1.8087415062782721 1.9104641175307548
Ni 6.296631873458422 5.074082781962382 11.426795101490951 -1.2496139862060736 1.8343800327819828 -1.4717249034413427
Ni 2.6329873668682446 0.25167125188328376 5.345664097871363 -0.3764781512666613 1.5628846515763148 -1.7582319275644946
Ni 8.784500372693344 8.839010288303538 9.858980408364616 1.7766220000359079 -0.6610151961476358 0.5107784393448493
Ni 5.334707447317385 7.018890571710076 2.1388104603346543 -1.3831213460693212 0.8896361465872809 -0.3332455658302712
Ni 7.0930159031534785 1.4183418888373576 13.496186262362217 -0.06462056419386292 1.4632140377568543 -0.6974688109889795
Ni 2.785824534638111 4.603461052628218 12.5916246505253 0.8021289076032315 0.20048999653138375 0.9945178722940358
Ni 0.795878124307956 4.444341763018524 0.5791097113014415 -0.5444295517403914 -1.2514584956139803 -3.1809140666455735
Ni 0.36874850663156605 8.762105256931006 4.134713767612929 -2.5057904561210136 0.21602588738345374 0.8947559843123494
P 6.568051040204871 0.8167434785426309 10.360298364016135 0.013945149326182434 -0.9144364934604122 0.1703013887631454
Ni 7.248188018863812 3.6013977595105793 0.8705297456046069 -0.7452406790566197 0.604714721783694 -0.028261565948854553
P 4.829274609204114 3.1019783389106537 8.32906877690522 0.44296662190719843 0.9428518113783116 0.7724015557421279
Ni 8.549170976693402 4.0129045370186285 9.677896856481597 0.12305222596819453 0.24947619662209938 -0.17219114958669055
P 7.545115565293221 5.373085837672207 13.097404024563069 0.40835957335629025 0.3498690333195652 0.7879680427218172
P 1.9731236663590745 2.434665042591421 4.278801366572544 0.5784221066357522 -0.252212621716656 0.38207415729720007
P 0.35509554714633434 2.8758497496761235 12.439399016739841 0.7652644304767143 0.07853588872337443 0.5776811147046695
Ni 3.589824942138978 4.276281105303469 2.381841478271566 -0.14832462738173813 1.1494849446929558 0.4587457391183261
