# total energy = -340869.3953279012 ev
CRYSTAL
PRIMVEC
9.28773325670765 0.00000000000000 0.00000000000000
0.00000000000000 9.28773325670765 0.00000000000000
0.00000000000000 0.00000000000000 13.59353643965661
PRIMCOORD
 96 1
Ni 8.897434711111341 0.6253560737968888 4.317266211161494 0.5071770951468362 0.2773914349751287 -0.29636231965067666
Ni 3.2832972475229147 5.445453654662739 2.3993678973449093 0.4335952079946275 0.4139185555013066 0.9649990368993123
Ni 8.67259726774205 4.0873177282562585 5.667879073740762 -0.49534179307480497 -0.7051741500530372 0.13157774694070243
Ni 5.152973650980387 8.854311766235119 13.19066426895824 1.1340076749929633 0.1647264657785292 0.7975091494430331
Ni 9.11345809574974 1.8659613102094676 1.0690348000331902 -0.5208196256309352 -0.8682887912597562 1.1024016180519078
Ni 0.9976697162856291 5.0875137079505315 9.62138285829711 -0.3955215410513575 0.845056817315009 0.000942566418927409
Ni 1.146951450723609 6.530168005749136 1.4814510165875254 0.27988231971778255 -0.38291413669999214 0.8191578380610602
Ni 0.3326271588669218 4.174622419584387 11.78512003761396 -0.13056061853009773 -0.6482645813501867 0.3435536326244986
Ni 1.59594833294443 3.7868874250231763 6.316889146247702 0.34965280354370104 -0.8072117214427775 1.6145365714246518
Ni 7.537181181553499 0.7552812436394482 12.486275158949907 0.3024455497302791 0.8190405957569055 -0.1312368186615159
Ni 7.604721576802238 7.227388843335443 4.612925405890825 -0.40451783101269684 -0.4317157315837275 -1.9295283332510575
Ni 8.60321790133555 6.990077974385973 8.589089401713384 0.8031452646828877 0.05384301396238468 0.028066419218912952
Ni 6.608277841288451 4.964887767566991 5.020704257298338 -0.47935441650761323 -0.34000293915876284 -0.09571677137803515
Ni 6.945794062869748 7.845998307793954 10.173362125352643 -0.9970810050355214 0.9739217933102389 -0.9688178964247702
Ni 2.0865914104753926 3.0350918676236693 10.581698240747357 -1.0489041603544 -0.05563532997611709 -0.6876055450416545
Ni 1.0517428985103487 8.343672199296766 6.480813920722695 0.2719669215254477 1.8154801105536862 -0.24311528740107807
Ni 5.615270567029069 4.7772941340089545 9.170498708706305 -0.0035074989326262175 -0.6162870000023257 -0.143241813542192
Ni 5.662350086214418 1.4115775427790387 7.202018471544814 -1.3227562147177025 -0.13753910673045988 1.166702337012507
Ni 6.371895745650983 2.1910598326093065 5.144745648209367 -0.6793623311962558 1.9887020153977362 -2.067248702754388
Ni 2.2517273053492355 3.078381991696053 12.971115260827483 0.732596507930048 0.5025902471071022 0.2414168166527326
Ni 4.9337831493480655 8.805365412692646 8.988956962049269 0.2673955001046814 1.0669111384547818 -0.6462897170120031
Ni 7.664023752773526 7.616674889327696 12.252098899928441 0.11439275052098363 0.18667520213547853 1.8313029365185558
Ni 1.0048491339873997 4.729564473505205 2.8390640436193486 -1.2586753250773934 -0.2904834922723965 1.3564528356391994
Ni 7.060237510374556 6.996532948904383 6.703257915266959 1.4614325203763991 -0.10327632889284794 0.7655295112126429
P 4.068324314025831 2.936168222162404 7.960837412729674 1.7371797348798854 -0.488471548317533 -0.17465529485646697
P 4.638656141726511 5.304112932042371 4.2167422892836495 -0.8489877769382992 -0.5128697746562393 0.5785606890961456
P 4.868657564710529 0.5199263712850536 4.4838147702428905 -0.2055267876243428 0.8412258736046933 0.4595867469623827
P 8.027879985483182 3.913581392513283 3.3913423756813463 0.9130704663508211 0.8798150467318008 0.6143720423678
P 1.632579152369764 1.2280705117938084 2.6032169214095937 -0.29331633373550126 -0.2612958149648468 -1.8213270562527664
P 2.2568541340314834 7.546487490139752 4.828981297595143 0.8504733603448902 -1.3645104158363532 0.46655726474294484
P 5.924626381790484 6.91986271199867 8.476535079125187 -0.24471579911897853 -1.1224575082615185 0.3665477795268268
P 4.555363751106228 3.163634094004659 0.9491180914007576 -0.09969992439549925 1.3895761005557294 -1.7682168066913482
Ni 6.781698394105346 9.291355335930481 5.551940301203632 -0.49625196359390017 -1.7455851853347615 0.053463004915146634
Ni 7.40234187211714 0.9249374782228019 8.913186706482884 -0.07512583460056094 0.27443055257459187 0.7120922173291091
Ni 3.0552926871596986 7.720010208020968 13.351530592916813 -1.8206017480509677 0.6261122136228636 -0.5110448056323585
Ni 2.470397693926838 0.4606724915259904 4.4321043873239026 0.10663084718737764 0.05253303690170953 0.9456206323727003
Ni 7.364457208720605 1.9128179237999368 2.9305621464511633 -0.08634278636230291 -0.2969163923819338 -0.31159610588129566
Ni 6.130526137328067 6.711715325046043 0.54458994658525 1.7253050949294866 0.4468212197665983 0.5143605002691528
Ni 2.8961102292157848 1.2705061644191509 7.68863996063481 -0.47504473338866576 -0.5776309781930246 -1.0976839008612644
Ni 0.6305005491720644 0.27616795800367067 8.386505366899646 -1.5149109519105137 -0.6297163860343542 -1.4351658733703863
Ni 2.7156867256263992 6.557956903244217 6.995954323131007 -1.1555051827451068 0.024990865617382767 -0.07111259967610978
Ni 3.8713500700165806 8.825250449302596 6.4595942368634 0.5016857330149618 -0.6748749848488635 -1.0920184750453708
Ni 3.870059075112899 6.595980882637552 9.262594941551047 -0.14778366727660358 0.9396682714440074 -0.78261500594002
Ni 0.46794107146571307 7.593622735723822 13.281170441892838 0.16869882016271592 0.07883979311703841 -2.0816715630479377
Ni 3.344011158928444 1.020081016304222 0.5386903785074173 -0.9784669894787601 0.23476588699511827 1.509527576111413
Ni 4.215469869846207 4.302783848907456 6.314700956324627 1.4433430098645401 0.47968403193289 0.38701787445572056
Ni 4.487219653204687 7.961156910749002 11.234242295706462 0.0047218309557015455 -0.6802915278787446 -0.4111839301789628
Ni 1.2097365266149014 2.731475871930422 4.133237209574919 0.0801687963411071 -0.18221305259906684 0.02887477405282124
Ni 8.234457745538526 1.7158715429900466 6.318520072183576 1.5653385124334462 -0.2117151758232418 2.072716667847495
Ni 8.30486805032135 3.6147300039106027 8.62621339976739 -1.09854290642745 0.26761584364560365 -0.39198113199826684
Ni 2.613688840502409 8.323638558956898 2.326629157868898 -0.23754807772594574 0.4914375729243923 0.5215063672853147
Ni 4.875251855225739 2.12568347917753 2.7458941488259314 0.08214623178245208 0.9160686297471965 1.0283291644165258
Ni 4.472517171675706 7.600616398763193 4.182635875720335 -3.0398746600713387 2.4716531481176722 1.7448087121800528
Ni 4.896855122462891 6.636549700905773 6.2322695385645694 0.4314257111471344 -0.6873456065120486 0.4479147099410931
Ni 4.112979734866856 1.7971113445908062 9.841190065408604 1.6904705037488048 0.9281016496523307 0.4386595098914122
Ni 2.1036344007506176 0.6962103322228492 9.929453250794717 1.1258469935590416 0.005074586309429969 2.1710500509127706
P 9.259210491602115 1.957863429432003 10.061650200158432 -0.8289619686356755 1.8597573352045067 -0.050434502501467984
P 1.1908731406481536 1.5824904076535304 6.044502224397189 -0.02352739369797884 -0.06256445299578256 0.4847442200646168
P 6.709114759772439 3.310807513024395 6.996919318602175 0.7227841498253165 1.5043897406642155 0.21753615338039306
P 2.785716233351302 8.447592645176599 8.41464348316004 -0.39633195276779487 -0.9582632608373755 0.17285680819514748
P -0.033954094740146 7.128604513870977 10.814623442117556 -1.1116948704283758 -2.3066369190128664 -0.8437530109019211
P 7.892158341400422 2.9082771596030024 13.179096397357263 -0.431480989865102 0.9465575423646729 -0.5431465712629098
P 7.784216307079623 8.534340072517526 2.8699894085890585 -0.5300804821075709 0.06479617053977874 0.44175280410475537
P 6.069737924057578 6.201967380487212 12.103276908279902 -0.7580753689274428 -0.7921198601066616 -1.5566497264101966
Ni 0.42522771562008216 7.766421010421676 3.7782554058614357 1.0627474939953956 -0.8340828348020087 -1.0352929973288687
Ni 9.246690627356337 9.234430819637918 10.62370201378262 -1.4614291779422897 0.004911578369004444 1.1595001628371127
Ni 8.106788566070817 5.3642974426600585 13.216492525991686 -0.8010107348383882 0.5769856312995417 0.04610733588102382
Ni 0.2813412253515183 8.932263710311393 1.56332424158707 0.0482907166855878 -0.21713094752217446 0.6263358995978955
Ni 2.5319567890462884 5.075513956759474 4.909645259742462 0.3020226032602476 2.027767099719998 -2.813591099515619
Ni 0.34578230405810917 6.353663925536396 5.7408360749450935 -0.3590409296268204 -1.167674471117789 -0.01477355876474875
Ni 3.0370701547782324 4.618055949666321 8.387810293403009 -1.4611964931061932 0.16979719543321725 0.9838336531073121
Ni 1.125868296541178 2.583605872926684 8.34857890870407 0.21660412848442695 1.147583613905185 -0.0024098949930732687
Ni 6.782162780761347 3.9759949590797747 1.5834293974719638 -0.2658500099944325 -0.24390178785811545 -0.8772390584745086
Ni 2.658112068015434 3.146730419726234 1.9325385675336617 -0.818785542323306 -0.47899780449914275 0.11639204033919955
Ni 6.916175481950025 2.820424492020793 10.62693693122832 0.5567363941322024 -0.6573950828965452 0.4121676342484708
Ni 5.787595167337803 6.650369847788353 2.897774590990891 1.5379287529619257 -1.8172220329454576 -1.241067125077327
Ni 5.934638558093859 1.496764630955804 0.825177936780735 2.2379727808772487 0.511225554184597 -1.0404951103550986
Ni 1.834884555189902 7.9201608567572634 11.163718680579576 1.6840615148986673 -0.10935827342086973 0.20650380682563144
Ni 7.913956651033094 6.067796787835495 2.29816411340268 1.740647638823828 -0.46752374242127226 -0.15549723387077738
Ni 0.9364821304909791 0.8313774986383442 12.930484214747361 0.6551106577377427 -0.6316760808638864 -0.6879505870858991
Ni 4.71995166972599 1.891344684826465 12.371028322530217 -0.5404641393347402 0.6772288297930208 -1.463111964961351
Ni 4.067525568977509 5.630855383204452 0.0724628938023467 -0.367537911354238 -2.2251491467500193 -1.1081616604641367
Ni 5.2051892865811045 9.204617196322674 2.362651630774871 0.22642394278832617 -2.043372410357423 -0.001572486693442453
Ni 2.908323598268603 5.709745388325848 11.185739895807126 -0.6629854325001292 -0.7020510310430232 1.0950971139706946
Ni 4.036755309150904 2.606992384922879 4.7722016699392515 -1.5197361412132988 -0.3857420930670905 0.4222247613741567
Ni 5.980761440767847 4.029390136786733 12.634892820469805 -0.36203986435414426 0.26821696756471225 0.45646851304837516
Ni 0.3106663139046495 3.9446674352659685 0.6951868240330237 1.0904071646941929 1.814513632875359 0.17368624607497832
Ni 7.853957895077805 5.3621334008430965 10.424420696866358 -0.5689637894363299 0.47262841063768923 0.7611210977323021
P 4.250419609576819 7.267186779754701 1.4446669495657114 0.2198167218844537 0.5641982497268864 0.7433591457631908
P 0.3201611634732394 5.176861700565063 7.571925662382157 0.16311926919240938 -0.38891149193400765 -0.053584360984359335
P 7.15786087319902 8.817578781745464 0.6794311135682325 0.32420453867392557 -0.23340885874659156 -0.25265665123261005
P 3.937970979686439 3.8032709862468805 11.115461476834607 1.959615125334109 -0.13134866164903186 0.48623057480215615
P 1.5664504925552667 5.569352014483721 13.17281603222151 0.2554452697213407 -0.30647318283243347 -0.5013980265712139
P 3.0195534901138865 0.4138158779355214 12.0850748089113 -0.3018886487855446 -0.3609486881724945 -0.3046533560148753
P 8.083680686068224 8.866924507812097 7.362680465374746 0.08169834561175607 -0.35515239320569153 -0.5510028340825349
P 5.975504583821919 0.6494400945503963 10.860419396585721 -0.04410238963585308 -0.36743558144841876 -0.9737551858253876
