# total energy = -340871.31177763874 ev
CRYSTAL
PRIMVEC
9.20818769982987 0.00000000000000 0.00000000000000
0.00000000000000 9.20818769982987 0.00000000000000
0.00000000000000 0.00000000000000 13.47711347657504
PRIMCOORD
 96 1
Ni 6.988535662242442 5.6030349034504745 6.511521150745153 -0.8843119061608901 1.6527814738384632 -1.2106298916333924
Ni 1.0845771837353335 2.0229651790496406 12.550602417657895 0.9543017050864662 -0.36372727935889615 0.8527436444363056
Ni 1.651230640339838 6.835311418394755 0.9986970208600058 -1.0687155386533722 -1.0098943547501058 0.7944978734205349
Ni 6.8968773615657675 7.279974803935909 13.455442222611008 -1.025632334310653 1.190094747794518 -0.11683427008294073
Ni 1.1325058008763917 0.46751626585252326 2.518589437951747 2.394147500431025 2.862769618122799 0.30628703496355636
Ni 1.9435077271168468 5.707630707889529 9.462632057895652 -0.2801743970369046 0.3895254713689227 0.767475322085104
Ni 0.5614720093681407 3.3253896681304416 2.443157805695048 0.9039430501282562 -1.3816123656239625 0.1861411840088794
Ni 1.0266576829058893 8.898378255013908 11.782797941702192 -0.14980789679548395 -0.4586444376537714 -0.9070101190893541
Ni 0.9753312444920067 6.2023866346885805 3.8248454539475127 -0.25018479265334975 -3.4384326739561755 0.6502376459161575
Ni 5.065285948134305 4.126004758610067 6.091601086456591 -1.3799005251391785 -0.4790973061914846 0.5428596361501103
Ni 0.09864731516467964 8.701083624684548 0.7084798056784734 -1.3150246504013998 -0.28613369994413296 -1.251382390960406
Ni 4.676884589630974 0.8926573725846938 8.54374884583364 0.7188051105729104 -0.6875063004596289 -0.22824634070904565
Ni 2.1945965901720585 0.8045156788025758 6.598543128899155 0.6232516042456169 0.55416837629471 1.5974886148034295
Ni 0.15852447670578354 7.505483321473761 9.77399311374564 1.8803986656039422 0.15059131192872774 3.3014813214083856
Ni 4.117910761594316 6.530474363552347 10.60212134834741 0.4312663027511347 0.10042857503140769 -0.6530902848736043
Ni 5.357443328470807 2.559093493325114 10.528321406956687 1.3227546720558057 -2.456412162798202 0.20053601927797077
Ni 4.428162230822688 8.436873094112332 12.234900622111407 0.8587751953423661 -0.6350413977916934 0.269804109546174
Ni 3.3250029242457297 0.7668901029139921 4.336665994250082 -0.17053201671671275 0.9848536097313941 0.40393984702203983
Ni 0.5825394220784245 2.4780706494780107 6.258246263922548 -0.8732397075071284 1.5745250640287205 -2.051087005392861
Ni 5.056630251666947 1.5294983985329615 12.890225243292576 -0.11948636299380712 -0.17934627257423305 -0.5646031984747889
Ni 6.956822663696082 0.333465310498806 13.453744232793369 1.2904132796106227 1.7416475408432521 -0.25478398198825797
Ni 7.59021706497655 4.198556069744438 8.101645336481768 -0.22807124858376204 -2.9039311799627727 -0.25948884366309505
Ni 6.1540252327241545 8.58532749671524 6.801629709311459 -0.12650650306538214 -1.7096329356098683 2.7333685671184407
Ni 8.362332814428015 2.2535105752764757 10.590100059264289 -0.32993424206885114 -1.8133874896907156 -0.5569729356230407
P 2.280877309213695 7.677390978228115 10.291069687605196 0.6169431455290858 1.045089414594 -0.012424598916597957
P 1.4184752790575073 2.0475326239165654 10.448846459467203 0.8171608622356894 -0.8187467186655706 -0.3782103034664196
P 8.864261919469696 4.934419184098047 5.126073799442026 -0.8749122101135448 0.3832293539475658 0.05278706189404457
P 1.7414248391672473 4.050239789957498 7.822736696652961 -0.7022446351110679 0.07281698396172621 0.034998113341739724
P 3.2035100953198654 1.9219421514503032 0.36878239372317007 -1.7604872992575746 -0.9761637952668801 0.0796931422562692
P 8.155167006850776 8.30649436402583 11.802353369987008 0.49717396118753726 0.6968594595397546 0.5640339562348802
P 1.349156041816799 4.775347741041028 11.988242738992463 -1.2338083866323846 0.07131751659806426 0.08356316673463673
P 8.091068812053676 5.542776522937298 9.460489312610596 0.6873612902413323 1.9625119872659296 2.4208172964127277
Ni 7.079659888030706 5.211125225421544 0.5111087473909448 -0.3164999709408162 -2.1899263189919833 0.11125960420864064
Ni 6.658173511009061 2.8513705801021225 1.1291963782057872 0.9454113445753719 -0.2285762132446386 0.26081733266653145
Ni 2.471118467740931 8.859326330845757 0.10648256210518425 0.5199716758083432 2.17859058226419 0.6368249720546775
Ni 3.589498908637614 5.217267086638275 8.040580318723336 2.1239343283718903 -0.705669601632217 -1.152206200278861
Ni 0.683130585673167 1.8832033056650137 8.34652419773104 -0.06865925303961079 0.1563989197494403 1.8829548563668923
Ni 3.0625787820933725 3.5357415086626864 11.681813588491327 0.4621624781093589 -0.5678893254252284 -0.35738899584569417
Ni 3.42754530282072 2.869925078380553 9.192348727514691 -2.1384623467847366 0.23429871755071258 -0.5320340062895159
Ni 5.832880477409736 5.720807624532921 9.233992756529183 1.1101972028369267 0.5631932055011397 -2.321982291120685
Ni 2.2539433600998433 4.21307738179659 0.482546790686212 -1.3738823439695564 -0.3336381732829996 -0.5889638867073406
Ni 4.858368761625808 2.5310177289325897 3.853578682944047 0.6019484718924666 -0.07289771660099058 1.312719913527623
Ni 8.077173656767249 4.821931962773327 2.7112578747649354 -0.06306093301622688 0.9610277109563901 -0.10129915056181908
Ni 0.4383916888774122 3.977679270635396 9.70720060321838 0.6804193117058605 0.060467718367753935 -0.26280582385146994
Ni 9.120783613286335 8.103076288855203 3.3212459836513872 -3.024198901207295 -0.31659150221335797 0.044326075610884946
Ni 7.486643369375662 3.1848819315395844 5.744120914230852 0.1999058418931396 -0.11650594020924451 0.3809235886325246
Ni 5.383999741887678 8.69121244743667 3.84882081234332 0.17950773785276183 -0.9225107858281145 -0.7988178409521275
Ni 6.184292545796711 1.1070543699872688 5.346410998750019 -0.2619679013312069 3.012033726599671 -0.19379715789224042
Ni 8.717501823409334 0.3788902213957425 6.590834034130568 -0.24180839566419646 -0.5147567072663071 0.3387348710796166
Ni 3.4064953856671254 1.0443374033498531 11.132149238250944 -0.2773808934521675 0.38668465948601793 0.4160512855735931
Ni 3.2722308003580434 5.3643126365183065 2.263696672544764 -0.7760679488501215 1.097133170564117 -1.8868755315775376
Ni 3.1080303967347294 2.8220056694272264 2.4269587618382658 -1.1003349653308663 -0.954425118038208 -1.3520102264868135
Ni 3.955340207199429 0.37865080851473054 2.2164862940467414 -0.3915674414996159 -0.04748776116831822 -2.2206689994914783
Ni 9.025331539264393 7.311890382612357 5.736816058903666 -1.2599809312626946 -1.301226825286359 -0.62805236806837
Ni 2.520041569156962 6.777483999442624 12.311881992363272 -0.6500836368367965 -0.4437024716319584 0.1072545968143056
Ni 4.50191981454985 3.614204476320507 0.37787271665144145 0.41851980171874376 1.4715739796857752 1.259949820914443
P 2.1015846858988922 7.616810311144346 2.9425657089359167 2.5596874632497855 1.937343458420102 -0.33910690970705465
P 8.555971794228077 6.6509911245787015 1.3395565061069905 0.39690710854497446 -0.598326301758847 1.2276518801126857
P 1.6652270856913092 2.081648959460777 4.145101619145868 -0.898090448002221 1.2799100660864537 0.20001357111559748
P 4.318621629571962 1.659435135608365 6.4068986425616785 -0.04442069220722027 -0.07784657596583368 0.40924686105725006
P 4.578568769224618 4.402314847861121 10.197578957570006 -1.2681452122410417 0.4322813742792104 -0.6243980591452343
P 7.341918282803901 8.636672351504586 5.071100918686577 2.2307189275283132 0.9152605320236044 -0.6940374167099272
P 5.887411365154087 8.58718755063695 1.5558384195381483 -2.426446212563731 -1.7052134663859342 0.25012540017032403
P 6.221465999667692 8.127468778155233 9.217847120161244 -1.2106733432768184 0.5076530063419903 -0.4220463268147635
Ni 3.9289587493494516 7.733496466074508 8.282387328545466 0.44806434814507995 -0.5156517082767507 0.17215643969401317
Ni 2.3945155540048186 0.34917632040583263 9.169450727083438 -0.7886624976856805 -0.668003968760643 -0.6476508590255878
Ni 8.640254336532037 1.3816333199448514 4.357379812551486 0.10770659675005967 -0.20849049823835705 -0.7560799357639688
Ni 2.695218132555904 3.249155081903578 6.113798343801498 1.8960276303904506 -0.2876794471646981 -0.029093832042162798
Ni 0.04521496421666447 5.454156924211928 7.311199768532513 2.579040156744784 0.11472802237321533 -0.2312195644047566
Ni 7.182358805797128 0.6804777067877993 2.450570396818689 1.8050391177260203 0.7967483600176085 0.4825546686124657
Ni 6.3895246339503915 0.3091105747684726 11.093766749330852 0.25112813040322557 -0.2666511657394891 -0.8356794898651673
Ni 8.982402968061393 3.711774433520633 0.11302405866945088 -0.1381947380365878 0.40207605434042365 0.8822889621935902
Ni 6.334607002321329 4.677971155783259 4.326854670222455 -0.7597848954193818 -0.23502479708345975 -1.3843757873017126
Ni 4.048260029595283 6.500658251678621 4.149616393590491 0.13938927256532124 0.767760971646323 0.4942537022169488
Ni 1.7607988661537577 8.400887496458681 5.174389160467797 -0.7016910766004432 -1.311902045612018 -1.7848171342521906
Ni 9.173942481058733 6.3533364561666525 12.697920529894771 -0.1999343811382299 0.5159291303078534 -0.2715012947429389
Ni 7.010257777100416 6.90445570006857 4.199279833300113 0.6773435009940141 -2.014096029990809 -0.8215772461358302
Ni 5.836757124444584 4.277387364911508 12.046827991794878 -1.0498801511144242 1.339860478498157 0.5648127433824337
Ni 8.022863765528447 0.3205655603061242 8.96564959130319 -0.6012175072637129 0.3321410199121828 1.186841530964543
Ni 2.428650305924493 6.070663509193318 5.891883781935146 -0.19794691839455586 -0.03755250433247726 1.2292670471186053
Ni 8.154909177594304 7.386467495047597 8.11779097284971 -3.438804198362981 -0.7198235245350958 -3.162183065894973
Ni 8.084402084136265 4.3584930824481924 11.55670562506218 0.8383176988189627 1.4628090890089516 -0.591550159377278
Ni 3.99020240594987 8.428419977775063 5.862436918389441 0.5374567199669841 -0.6991410564850797 0.893823445195751
Ni 6.920726567789656 6.759960818190091 11.037163098528202 -0.10371624464374396 -0.41556508996579394 -0.05117806553571186
Ni 5.667731630450104 3.1131225245501 8.158518787184946 -0.872885152381187 -0.8981241294536338 -0.04750267356665367
Ni 2.7567932839146474 4.370297979119631 4.106813053740636 -0.7368172308796149 -0.6037117344404764 1.725433392977235
Ni 5.647768279448796 6.321991785129542 2.353050163832312 1.2444488970653664 -0.28850297150725795 -0.03313560621170423
Ni 4.035534314150722 7.254145837349806 1.0005478665939833 0.0797911012867142 1.0038095820086066 -0.5167778514613939
P 4.9838119030883705 4.219136369323739 2.5360288246959257 0.7151400030164974 0.05359156007321092 -0.714845354594214
P 7.650825356623514 1.977531980783746 7.695553207709196 -0.16227980401024955 1.1355485371175216 -0.3040306348292119
P 6.948562919301168 2.653339294754265 3.4543052171864512 1.3157856969371404 0.3191842026411987 0.4565147929052783
P 8.974308971045641 1.6782198385800764 0.9952393463669285 0.05830722038132539 0.1403819754958937 0.5188817851782741
P 1.0261788571438653 7.939934826820979 7.392371785020863 0.9688850022172798 0.6424713717071774 0.24222234327316353
P 4.779454592769157 6.33454254500721 6.247477288370873 -0.20546302426594293 0.18048578549531497 0.8936974611408479
P 4.6917005636905245 6.178159892767711 12.686573280153574 1.0296298855058204 -0.02569920453831703 0.5723100802007434
P 7.058131145115087 2.4352709929032477 12.283877131016279 -0.5955045160393356 0.055932549501561735 0.10778681516869178
