# total energy = -340875.13625655114 ev
CRYSTAL
PRIMVEC
9.23536053522627 0.00000000000000 0.00000000000000

0.00000000000000 9.23536053522627 0.00000000000000

0.00000000000000 0.00000000000000 13.51688366785078

PRIMCOORD
 96 1
Ni 3.68936949932764 3.7927039474217437 11.023896980428528 -0.6293291778982646 -0.8983735264602786 -0.6778440947795163
Ni 2.8404366958862033 8.420977131711311 6.806994456739164 -0.5762132719098916 0.533809353022384 -0.41710286676655906
Ni 5.6278716581400845 3.355585101882193 13.165674040463179 0.11776732342017138 -1.1484937844242802 -1.3443761069803233
Ni 4.421373404090065 3.034499325057837 1.6504521898598752 -0.15928935392335794 -0.17699062785786293 2.1119918112980334
Ni 1.0423951341837092 3.3627425062322627 6.588588340952888 0.3764305858581775 0.4612528218108959 -0.4636683732309241
Ni 7.003524774223493 3.2287651321594084 9.083318712586541 1.4611314441962127 -0.7390322362530627 -1.3492496330225408
Ni 7.1666489458819225 3.3724026932647435 6.635086533755121 0.4446501802572084 -0.1519120876226803 1.4276554239259542
Ni 5.0652073226200836 4.659728821988066 8.913789818454855 -1.951409449594865 -0.023111903427115037 1.0444247844268078
Ni 9.205243941269924 3.7924084158872895 13.32584936152938 2.5818344316604693 -0.9358620103240398 0.9062061351308199
Ni 1.5569709478316927 7.0420177565861914 9.04833701426758 1.1664300571877266 -0.1381569428201169 -1.6263729019379474
Ni 2.7956913744977028 5.884125204593484 11.304805245143795 -0.5940664980412285 0.9262931356886821 -0.2586897448005674
Ni 0.6960210933705007 5.140022977639329 3.872951841458681 0.9127241387549958 -2.2301699970033786 0.04072447430255567
Ni 0.47215872662935726 3.5206948760377372 9.129790122843465 -1.6583995913561889 0.08689171688723746 -1.46600034225274
Ni 3.9774388625371575 7.421775778360215 1.5363022111407816 0.8400390523854435 0.6127219083588867 -0.012726189317416791
Ni 8.381348200013052 7.975805051857875 8.516177074319554 -0.7497043712549282 1.0407295949634074 -1.0245591558511322
Ni 8.161925271041044 1.0030247925780995 3.8621926465324474 -0.5851288292319664 0.09130398702232018 1.926163787654199
Ni 0.8380535488293304 1.0346189606833753 6.248044583192839 1.2012769896635827 0.9099800003509554 0.15844603208645616
Ni 3.2412605748505623 5.079208129064865 2.8597533758069855 0.705811783637036 -0.1485287729727442 -0.9325188048834199
Ni 9.127020438243997 1.6033139865783381 10.48419544513564 -1.3938695857247607 -1.9588466225992005 -1.6256869316145164
Ni 8.053160431001338 8.833723861018818 1.8310644400696483 0.24821687029370154 1.0809910135866159 0.07815228013171058
Ni 7.385314575296892 4.879604283622209 13.360723006131053 -1.9376095675972953 2.471856779488046 -1.3672861788092774
Ni 4.679723377366003 6.802914274491603 3.6306076713815894 0.2460859399936278 1.443602948394146 1.4728340773451216
Ni 7.9185550524177675 4.330626752291632 1.927790987760559 -0.7678987827757677 0.37240938051392636 1.9027340958763488
Ni 7.114284452120766 1.2642377275940653 11.76391902513512 -0.7263826658098522 0.9429510559603372 1.0135946864198286
P 3.926662850773695 6.616064461832749 9.218501301198343 -0.7109244222732531 -0.9420395998896616 -0.6884313833770596
P 1.9298024492669401 0.8185549323076499 10.836661129702794 0.5234753180862275 -1.463407384714583 0.918886815922282
P 7.433670922622009 2.5130893446755938 0.5705328626248516 0.7174686511496741 -0.16667716174699682 -2.0167540364389462
P 4.88014916988886 4.012246936079626 6.822417508693509 -0.389438053861439 0.5895303007337719 0.010318351206872552
P 0.8458435753703417 4.5856981726072155 10.873062302923179 0.9890452792152385 1.119777390326194 0.7920319283785456
P 8.373802910524011 1.2200280571117632 8.174889870043144 0.5636354352448809 0.701368917374334 1.1133809998815472
P 3.687503956516396 1.9482269933680874 13.41468244664222 -1.3268023597626182 0.31705712899586685 0.7407322496633049
P 5.775461953518748 3.243514002800778 10.8235229059242 0.04732886699295075 0.002659291999718001 0.33633937426424654
Ni 2.4599398452760433 2.407252113899078 9.433635328776582 1.0402940500878857 -0.6670973977859737 -0.6061704803936141
Ni 7.160581314065154 6.694334141660931 2.214241392282893 -2.634513250111424 -0.5879400734285164 0.37078547175725823
Ni 4.475427968813882 1.5454729240693226 11.59841859523247 0.4698763018138489 -1.7508166089370298 -1.5192111219477642
Ni 5.904359879343167 5.279994100645338 5.294144519929437 0.10322722082246738 1.220628397607001 1.2772967968333226
Ni 3.056599542618762 4.6403438003999415 5.45886086772974 1.0984755435246243 -0.030320505360412295 0.06741355355796777
Ni 0.3639406199283927 6.153068136307526 12.385453242318457 -0.5524938168057646 -1.9823724736352826 -0.9216211841343095
Ni 8.965346218176487 2.2596525831599616 2.1408175060837196 0.5677818533130867 0.9656852643330595 -1.2974570738312816
Ni 0.9007524109359414 8.387665186562018 4.779556700312867 -2.5301244048806875 -1.6807463344825053 0.9479719062136964
Ni 4.92635367822873 3.2207026624850714 4.5325218906623554 0.01610616153324323 -0.5126026370377817 -0.7720035489727607
Ni 1.372060560867697 5.99283463247048 6.294082855044578 -0.7424911413359406 0.7524739635802654 0.9924561046690005
Ni 2.8665727659645226 8.909638523931815 4.050023254471271 3.0714776316886008 0.040504644982265726 -1.6481113220563035
Ni 6.640251870855758 2.186397704057054 2.4197651037750902 -1.8876494336290848 -0.5099585145467153 1.720590720172953
Ni 5.485499341416632 0.9678473046175632 0.4635430588639636 1.2679876036172548 -0.3504549877300222 0.1391262487119217
Ni 7.571499442003223 3.772210682579415 4.430010313184498 1.1031168989513775 -0.03934816278031933 -2.1765660956349935
Ni 4.9486847798009475 8.81665691490407 8.111130788556677 -0.0835305137244884 0.24817341865027584 0.03127772706735904
Ni 6.862999529590381 5.388334114104265 7.815948350727258 0.25953460929936595 2.0811059203524547 -0.8150461298855318
Ni 2.441155122117279 4.6924866455102565 8.545373742851568 0.9835274347208031 0.8296901050509519 0.015049181023638596
Ni 3.432783479897977 8.287433819579686 10.48365425301317 0.5332948752798106 0.6537325464432935 0.17068833978891895
Ni 6.121178436667796 7.0378341383015695 9.735197553606037 -0.6775689867412589 -0.5912688806914332 -0.46281425276074484
Ni 9.175607669580408 6.299226950816177 1.2330794685021098 0.4436790745931907 -0.042976503561525985 0.37306475470973816
Ni 1.8956593216769941 2.39929123318971 0.9050025238158151 -0.9955211167475694 0.2909732874246215 0.6637850455832891
Ni 1.113128759883302 0.8358148974558375 3.09647505844108 1.494543701108071 -0.8135471767425022 -0.9997081582457236
Ni 3.176391403037801 1.44632209425984 5.556831418473495 -0.4937248262966723 1.347606698102479 -0.5068482510525077
Ni 5.53272897476664 8.975357348906133 2.7913581433737638 -0.08318341479771481 0.5212464287557088 -0.7020916544729715
P 5.68202781182887 5.003413525837739 3.1874027233043662 0.5406065784498755 -1.3180760356332137 -1.790342177835478
P 5.781686586463196 0.09644117505295297 10.003697188018396 0.8842358015073158 -0.9736950220114134 1.8377350652971447
P 4.214058032670238 1.4007917672329446 3.4099850690869036 -0.03843156450332091 -0.14410313310122277 -0.4074285769015887
P 4.047479836202872 6.763266872072442 13.013244416207822 -0.20286775273494093 -0.14116281952597623 -1.5947532181501374
P 1.4992684157294531 4.843983498359991 1.3295723615735924 0.7570649253850574 -0.883320231671582 0.2904901771406158
P 6.567763526670342 7.315846193979183 6.518368201294409 1.3332735693092588 1.4140170072069131 -0.7381266937196578
P 0.8278632521069212 8.607189704498996 0.9095204621487882 -0.1231113613409041 1.1066899610146166 0.03686961933283973
P 2.8185581269761193 6.966029210789579 4.8970858974212375 0.5329428912570305 -1.5350827988726983 0.18967156575964106
Ni 8.068832837687879 0.11602290981869869 6.332511189884114 -2.2928822884309352 -1.1474491452098499 0.02543823756744651
Ni 8.626251488471311 5.957343142254586 9.55749074779437 -0.021799355263278586 -1.4986533524010706 1.0447502860870266
Ni 8.252496450990893 6.150953238764086 5.621455853234286 -0.18819086744905653 -0.013747431493079549 -0.17565185444178136
Ni 4.618834645907926 6.84157349334243 6.931998754597144 -1.2035976673769595 -1.9274585952062224 0.13757304529218886
Ni 3.169548000943089 4.152199588364732 13.456449364285046 -0.1954704318296053 1.6293502393987165 -0.8399446928994244
Ni 2.6178645090001633 2.9723453492178766 3.387817433394681 -1.4354918892512374 -1.0152458488700065 0.5749809421646871
Ni 3.2303166727152943 0.41427610499830914 1.4685820835565797 -0.29332558970688194 0.5187812550446679 1.5138346881271993
Ni 1.3079025118097165 2.664115194142291 11.78066642777824 2.0472753449562546 1.1066742772853329 0.9442476632845738
Ni 5.597496557614433 8.074069287063994 12.040461734964868 -0.023069994445586075 0.25341306978266037 -0.09749263233153532
Ni 1.8983191054870847 6.974091680463916 2.6937800954492066 -0.8871509182715819 1.340700200790633 1.1856804207769063
Ni 5.026141747909381 8.993301654263792 5.3542537869653914 0.6483681968075866 -0.459303411394009 0.19767720967293698
Ni 1.2614301780167474 0.3565726493600241 8.791164549449235 0.04388358875682765 -0.2802304470858206 -0.7152608448650778
Ni 5.024433206225815 1.86781470991511 9.205376006924382 -0.984107475593989 0.6370676841931028 -0.4106442556254089
Ni 7.9867951307954 3.7002395185792945 11.135290204052787 0.014773815875064879 0.6595614944202448 0.9305722226800104
Ni 5.301687962346389 1.835629478740925 6.770485229801492 0.46465567684485787 0.32927269722545227 0.28194254468092084
Ni 9.22183064864118 1.2362084086231468 13.222553701949172 -0.5947750940724789 -0.642838525238609 0.31737851689102764
Ni 7.172762754500949 8.220283513735353 4.356802534419894 0.36331898817688396 -1.6977894060077212 0.20251191205741897
Ni 2.054960054108418 6.974470330242435 0.2954908988685061 -0.24706218786396805 -2.3893439083947947 -0.3040758862448505
Ni 0.8839052663999449 7.857629379517883 10.995078961675034 -0.08236143311705171 1.898557081680524 0.6378367011486434
Ni 2.5602358597815367 8.89686602042711 12.827900890838642 0.11692040203884378 1.7572759914091285 -1.7149206663713692
Ni 8.30480553258934 7.9478126743287625 13.02803207536309 -1.1874282567059486 0.7746589843177368 -0.2241433742842656
Ni 5.412466110964565 5.277103432823955 11.753552333028084 -0.15075766230326296 1.134615226669975 -0.11512140115689204
Ni 7.75668688978077 8.53725031979825 10.643856356624681 0.13594270877761747 -0.16299122825497736 0.6737115606683817
Ni 5.152112064470608 5.447320361309292 0.7873735848145653 0.5967522724035078 -0.3184378113934774 1.379000124812096
P 8.937012132310663 6.904540180902141 3.5302987273714637 -1.19942425272556 1.2789734132047974 -0.04617804121795918
P 8.848906793601417 4.793290604840594 7.370891712879468 1.1257608616031387 0.059140257805582026 0.3550156105175111
P 6.153622257934628 8.125417891175461 0.645511059988047 0.8586157869463664 -0.30376221165917366 1.310606466729046
P 0.7179273683619399 8.118676078045718 7.134886694216425 0.008888817849197594 -0.7253992188506604 -0.6702238592300973
P 7.376799572960422 6.192540066878105 11.52545462998379 0.727439903429773 1.211044867683624 -0.2948181150920084
P 0.4792607188167168 2.6200348187063134 4.347353837141757 0.5013088092915173 0.5437304687908378 0.5586539228698895
P 6.656506105250756 1.9069356967885236 5.152622779903587 0.6454875328256818 -1.57853109986432 -1.0715985166281223
P 3.469974276436985 1.2211455357264194 7.637012318439469 -1.7552188517697835 -0.4728567245984115 1.5193383915542478
