# total energy = -340875.0309502643 ev
CRYSTAL
PRIMVEC
9.23922764407781 0.00000000000000 0.00000000000000
0.00000000000000 9.23922764407781 0.00000000000000
0.00000000000000 0.00000000000000 13.52254357255078
PRIMCOORD
 96 1
Ni 7.157223156703234 2.0486509101180843 8.391211633707654 -1.196542560302391 0.3255952483738651 2.336622923851995
Ni 4.098854010486197 5.154334141277956 7.350949434825551 -0.598972162872962 -0.1532302922134716 -0.49873230681359265
Ni 8.019058314576247 4.775673634092411 2.4613330253850587 -2.6345664719468624 -1.9657988855473179 0.9733492086362203
Ni 4.955773899234121 4.698304341510629 10.9596568734179 0.8171989145624765 0.07463681077928436 1.3774471785026792
Ni 4.234042389881544 6.892583958301039 3.6543593864757793 0.2832993158191314 0.08301346487875381 -0.8465601413334131
Ni 1.336694503649616 2.572459684136659 3.3486684516514 -2.534772959396293 -0.5780133012331077 0.7235863340116377
Ni 3.51735549884156 8.914958504900781 9.553893599333083 0.6653523900704089 -0.46938136445530126 1.564316498926835
Ni 7.985141109767587 2.9533653236481383 4.292731811942446 -0.16643007873319723 0.8045064066964726 -1.039654616731674
Ni 2.2857849277206657 8.356946110015505 13.475579875542804 0.29916173677268476 0.20226740014678066 -0.43750868411642074
Ni 6.311990890968918 7.803913658849071 5.385947720342489 0.3236918607035651 -0.6814138144086458 -0.9576819344126087
Ni 7.50657683369181 1.3253764497431575 2.321671935870434 2.1486359448836283 0.13558918209294069 0.6435725751911562
Ni 7.308672576813165 4.702526668559814 11.880446619186195 0.42834912910433964 -0.7079033760587422 -0.03511021343957179
Ni 7.391862582832554 8.861269352859614 7.910958426812203 0.035382493264351965 0.6510421440953239 0.5462527209920592
Ni 1.2153002911786304 8.71556673236586 9.246228241553759 0.3636000097524125 0.7338679184433039 -1.4505960918825276
Ni 7.8199991542377605 1.285924947554931 6.243831260537305 -0.5884406672140188 -0.17429096953851275 -0.8396482447049282
Ni 5.800507246673784 2.1495709940529784 4.893740800676282 -0.8484948964622807 0.6496084969725909 0.03786515047688963
Ni 0.8901635538588036 0.7752580509865983 6.743259560557217 0.9874265126648929 0.19903989434841848 1.7786631988356527
Ni 6.509285358820765 0.25826320738109537 10.23537533722599 0.19666239525517742 0.01816098717974292 0.5060463239765026
Ni 6.051527823477514 4.839424305075728 3.9837147551537195 -0.7069695513905631 -0.470478454174222 -0.634976605992029
Ni 3.217283862291391 9.178137905329736 7.308799154232363 -1.3807973259218347 1.811292811945216 -1.5135125289010902
Ni 1.061725848702588 4.268781885953612 8.307453415186023 0.2764599242997948 -0.07848858042520676 -0.2670298892351466
Ni 3.188817801813188 3.7552286546584406 13.377392755155281 -0.9220826971517604 1.1931402194890612 -1.1751370980434213
Ni 4.865469687902101 7.887694975439899 11.403182302444819 0.04103069268906482 -1.2170599635294523 -0.3264599103670055
Ni 6.700786830918042 8.545629617670766 1.1236166631541742 -0.8208048867461799 0.5565970403408608 -0.4629983437470929
P 4.480517266667333 6.19501302932837 9.560181817691236 0.06125061928036548 0.5512900263056505 -0.638511615728481
P 7.047987767857472 2.8838678530486437 10.653397726091278 -0.07298461988784204 -0.007988417522115276 0.3603941012206051
P 6.040302161847843 2.9305906274200404 2.7796133318444918 0.2813285652460058 0.9232108972189326 0.6273214034396164
P 1.0903766937343655 5.44688504649763 10.192387058682343 -0.4165323389750698 0.01297070122805508 -0.9888007673046004
P 2.471705906299982 2.9880678628094914 7.008464199693351 -0.3337543871458897 -0.10972234162850782 0.8194635422269371
P 4.5440184785033235 5.342454056044813 13.129659495559649 0.11239963135035481 0.613162338330415 0.5817753393787012
P 7.4308706020922015 8.140434048591874 11.830305330573667 -0.794558037234509 0.9379281488244492 -0.5169380311883419
P 4.151425215978237 5.2338931308196 5.127018364645756 0.9907090400709068 -0.3117480580781276 0.487150001292632
Ni 4.325769442276091 4.5577017746955395 2.059158683757117 -0.16751302738473087 -0.6305085429183463 0.0796499477231596
Ni 1.3052349334035012 6.681088797506965 4.110245054291318 0.9643351780630681 1.9398243158604271 0.36553502199159627
Ni 6.126716658327114 4.462251313546461 8.44321924631129 -0.07330240823857699 -0.11595161036767125 0.7230021793733935
Ni 0.8472223953763164 5.351563934536053 2.3741803146142577 2.39209833121148 -0.5731217774687614 0.8924296501720179
Ni 8.914385672784698 8.637901784498357 13.405249026606686 -0.027269120128598202 -0.0015802000029263108 0.4854723564798929
Ni 8.015843063344045 6.095423394179216 4.757636813817972 -0.6542156567272991 1.6441060575516524 -0.7217320544117184
Ni 8.297436244536732 6.903440050823559 1.7654630382280476 1.1393573693406507 0.9336719446512566 -1.0366968196549307
Ni 2.9809167005861457 1.9979367893894717 4.996634383643355 -0.2013672569300145 -0.16345402682400884 2.9898733884525477
Ni 7.385616864921725 1.4699611236877845 12.581888784556256 -0.38338104903408166 -0.3648516227713265 -0.8891766904523589
Ni 6.755520015686907 6.699354750627838 10.13498373711432 -1.2507735537318136 0.7260124269546271 0.08420080031863562
Ni 0.26652215300312243 3.6170467654951817 1.0471546627304447 0.8444168697381651 -1.5853514652202632 -1.5364861069781282
Ni 2.469257510965116 6.524779543638015 8.636929817746555 0.5050677621133172 0.20260550021248977 0.322231988328587
Ni 6.347183109197244 4.057064983695248 0.4848035265272315 -0.2331401784662372 0.5436242822302766 1.4036480052677631
Ni 0.06934594726556277 2.5965648291504957 10.968148647577431 -1.1227979223200728 -0.461298844557483 -1.4551855110254228
Ni 1.7468238203089546 5.6108351416568985 6.170539239130153 0.528189178622129 -0.3533053126946238 1.342645497442462
Ni 3.4601369618271134 9.201910438147138 2.331976446500534 -0.3655396499772866 -1.7561243943031886 -0.5212852524134441
Ni 1.9056831010172373 9.051033850153289 4.721383008329358 0.45535959625491257 -0.3842464823581705 -0.5005428776597701
Ni 8.380515379823976 4.687254225206854 6.87030448467652 -0.16382195168638886 0.7828939706330195 0.45165900747487375
Ni 1.104448037489089 0.4223694454881353 2.197156712289569 -0.5512512026479152 -0.16290946717444849 -0.920074665582796
Ni 2.5895152984316163 4.390000553098702 4.022685817502651 0.10534683826863146 0.31862858724804477 -0.3735437512286857
Ni 5.58138048381707 0.3477728451327437 3.1564592547139316 0.20087977577063468 -1.3539059008476297 1.6419722990381012
Ni 3.733405598881253 7.162046033551537 5.886877394860196 -1.4720527190944066 0.13693541170818999 1.5906589934761057
Ni 2.052124859725291 1.9441367666161595 9.132882320313723 -0.31486372088897385 -0.014499736278071804 -0.3348561048505007
Ni 8.99036908121467 6.588641085353476 11.607845978293229 0.3081940221782822 -0.07872717879857409 0.009674032754654307
P 6.738353530659805 3.177850838558522 6.668115074000475 -0.5363742855360827 1.2950494928310534 -1.3816401335381043
P 9.251700636107875 1.1071920881096753 4.589375695023802 0.31439886543741336 -0.79862706509756 -0.7378533854536131
P 5.055391252066313 0.6846415537590367 8.473834351147568 0.977367328656678 -0.5967970095985141 1.2725716234435118
P 9.024969988871558 1.1868342307004276 8.760741936101066 1.7608104869249483 -0.7642907537095354 0.585285666524805
P 1.8116185240199691 7.489475023258459 2.0130604811768036 -1.0525584692775356 0.35185366784976174 0.9088106626332025
P 6.866483140108593 7.5597023928445735 3.26284064612973 -0.6027187743995878 0.6016882762525444 0.5749421185069518
P 2.56444927373919 3.2790850562344933 1.8552119719765756 -1.0075834472287422 0.9637980746126757 -0.7124218327543859
P 8.16440984441821 5.328327276924017 0.2671809099366167 0.6489839760147146 -0.1141865480474485 -0.1691734458062893
Ni 3.276516550939803 4.155933959085463 9.40400930439193 -0.48506046575345496 -0.12910588836144218 -0.1602864277293046
Ni 9.16173827619997 -0.019524335930716695 10.998845057617283 -1.2800897861974276 0.419969903901709 0.06861914383029472
Ni 8.896517006454014 8.348640044332317 3.5731567383300877 -0.2765568548889753 0.9164928617688087 0.19311170178944162
Ni 5.52390324842762 1.7049608796965765 1.133997859374008 0.16016918542514996 -0.894359263094563 -0.7882891735066618
Ni 4.998671633346518 2.3049470859263756 9.95966477229636 -0.2380011061029643 0.306942152049052 0.8283729289014249
Ni 6.272585584919084 5.532255510249201 6.260680840055027 -0.8879132503589031 0.191315014900335 0.7979356954574903
Ni 0.3309519072208268 2.866110057450103 5.973164389997499 2.331921404611268 1.8143236283517397 0.0882078645954997
Ni 2.5298298876269456 5.961583942024965 11.81130670669787 2.1652172462810775 2.1864116209705053 -0.0972172671829616
Ni 0.229434045255118 7.019761927298916 8.097434682975011 -0.8582306356928058 -1.6496053901033267 -0.049556213661572715
Ni 3.822176098418602 0.6001423491775698 11.984530214678292 0.444225434014964 1.7795396879033352 0.1524738736634213
Ni 1.2434429786880774 1.1806624266110284 12.543294682696617 0.6176067472550137 1.3405315364232524 0.7781960509367178
Ni 8.763924850036393 8.238730191866006 5.961846336091042 -0.006600021815020891 -0.8113272862730477 -0.2236965165548341
Ni 3.2499907282741365 1.6324144639630978 0.5388391496063516 -0.6050451085399193 -1.3080178800662634 0.5685233594648016
Ni 5.961158937551743 6.204538673065153 1.8887346617633538 0.28502889691572847 0.3200090125353392 -0.38588941727823217
Ni 1.0242515412376123 6.255871822048242 0.294549350166585 -0.2025947015792124 0.12694024816869104 -0.979706775423132
Ni 3.860463457919307 2.108262407101325 3.033268936382199 1.4342443899973816 0.6561239294936054 -0.8001098202906736
Ni 6.275033980253951 6.626789856439001 12.890987146548555 0.6631296713874772 -0.048305114863291004 0.9571936819222804
Ni 4.628566650991488 2.575296127034033 7.565363267643339 -0.4354322612033662 0.8061907363774309 -1.0238515882611465
Ni 1.132017892882454 4.33994241753528 12.091060357659718 -1.5062437631538188 -1.6213047433864205 0.4692057581093855
Ni 5.495658929413706 0.35865757926106917 6.457623293332314 1.1806554567584893 1.899618947286135 0.9630308574293478
Ni 4.8491347333660855 7.686861883387094 7.896327185860148 2.224160814694821 -1.61071796900951 1.1738680015230105
Ni 8.094173235604416 4.8957281585499794 9.709172679315854 2.069341323617359 -0.790900900097896 -0.7831428534190319
Ni 3.70772978516203 6.8302099322418535 1.2753783691596476 0.5740381186354436 -0.19586818148865623 -1.2254271045472251
Ni 5.225688696640877 2.706243700924837 12.570773069735962 -0.4021521589939977 -0.37210264790678493 -2.0842719767852618
P 7.362879125604342 6.829932755411492 8.008834185226952 -1.0620291277721323 -2.985131760002504 -0.7188369922521104
P 2.1681141240042128 8.790894155630639 11.252838817888032 -1.2164804368768984 -0.8622742096345601 0.13314843386193198
P 8.80145459286744 1.518707288920825 0.6260925679588513 1.284965112011858 -0.1437390648935847 0.2154129363898032
P 3.0843498544496577 2.930137905263782 11.222331812015595 -0.060468489698702305 -0.6927948025520778 0.38390966784404207
P 0.3523287083011312 4.828845389383569 4.745235922427565 0.5582641436306385 -2.5570073453144606 -0.5383658620448147
P 1.6246535127129547 7.88431341810948 6.6985139809090715 -0.1232741121710135 -0.9962541382588519 0.008483869101295068
P 4.313758446293726 8.941798461307526 4.976931730618439 -1.4618210140640695 0.8664535378232304 -3.192177555374535
P 4.611335491370634 8.731051677955431 0.3026521528408414 -0.1444916267888931 0.3195981502501657 0.10356866332228616
