# total energy = -340872.4353967681 ev
CRYSTAL
PRIMVEC
9.25975440200055 0.00000000000000 0.00000000000000
0.00000000000000 9.25975440200055 0.00000000000000
0.00000000000000 0.00000000000000 13.55258655764748
PRIMCOORD
 96 1
Ni 7.708708551141277 7.16390163757659 0.8113554276002956 0.17194046702846516 0.6146895736082189 -1.929743534585657
Ni 2.196302641487884 8.948737829761997 12.768163385524062 -0.6950532595689514 -1.854371388302245 0.37497251325541225
Ni 8.037402055302092 6.005108184856729 4.567451670641378 -0.8926569356914755 -0.7622228154369131 0.857005247926137
Ni 7.7454975556214 4.689667465892159 0.913920171930432 0.179949967596503 -0.03797725057472169 0.15194988283915123
Ni 8.529835797626012 0.7396080720973166 7.102734477522638 0.06652060943005318 -1.919797736226855 0.3712647253865219
Ni 5.2033523447078665 2.5772211608180653 4.453732626085529 -0.19913759626854735 0.847705824902082 0.6293129799483484
Ni 2.943611125396343 0.9100671880985217 4.5489803124392765 2.0710781038028077 0.5018803655242712 0.7920144448770489
Ni 9.22811388165472 7.23059038921662 8.241517600848704 -1.3168943566202869 0.6335141625138897 0.3211626665238082
Ni 5.448541383124471 6.558591488352923 5.0396648871452 2.188273613879909 -0.8229268181851892 -1.8076102208873062
Ni 5.157192468711538 5.033685863688665 1.2596831074677028 -0.3654015817375255 -0.07635610746323625 -1.3849614846018534
Ni 9.07653170110108 2.564720492293483 2.0786009765376474 -0.2754646502660611 0.32663808781608267 0.7273383448549022
Ni 7.017180828115843 5.01140689445152 8.302477342402693 0.5490112575738029 -0.13999399602885568 -0.7597797532130592
Ni 9.45939476886842 4.804914369934345 7.480892664047503 -0.33697855051014225 -0.5001556695236805 0.10354346651130554
Ni -0.11962306400123689 3.652565706320491 4.512197789787278 0.8851819674706691 1.4284645500908106 0.23623758644463833
Ni 4.255644254718658 5.080827273658034 3.630616384342217 1.2820175993477598 0.03624329860275048 -0.6284714578836597
Ni 6.628873024724464 8.355502400357631 7.829207587914681 1.417048080723753 -0.9184736396442634 0.7928207428284282
Ni 8.524539218073373 7.476760961606267 2.9276028618813075 1.0248496905083577 1.5156532293931768 0.2537465418626791
Ni 9.012130108813324 5.190546104286017 9.89131508980345 -1.1643096684106142 -0.6650451432426353 0.2820934684364883
Ni 4.54601163515855 7.542560776817884 6.72563375495741 -1.1360576155434563 1.1617246812922573 1.7811777377273907
Ni 8.127258712607683 0.34177753721654464 1.4176137756809377 0.852538727514351 -1.4934334987630282 1.1515001753507719
Ni 1.8696740625722406 8.126962400464878 9.795226617744493 -0.47897929255638155 -0.18327517531499404 0.6793222219869397
Ni 3.957906109726494 7.761952139301536 2.242316213363702 1.4541866374472632 0.369123510673803 1.4605948549664522
Ni 2.9380923117366016 0.4530612663487157 7.024143237496313 -0.2689499890759949 -1.0428828938609844 -0.45729872225915436
Ni 3.4851863846535647 2.922637781538433 8.739995184910397 0.26358718210218474 -0.8636101548371644 0.5602060978483578
P 5.806551269914048 0.8043596831037608 12.239734199677468 -1.082980790323135 0.47003416754795174 -0.24713392164216788
P 3.391662864580763 3.266702478107253 11.289657464496713 -0.8679455489877247 -0.9402922781812516 -0.03184336976284193
P 6.204841088616168 8.492417129842428 2.829467984086105 0.9304192420419137 -0.006790283448956048 0.3007241961637982
P 8.529363550148416 8.770135685686334 10.033359723260556 -0.6262333125817602 -1.8174272069777277 -0.8472162868601731
P 7.268435005705486 6.494838078877553 6.714398894867872 0.5628707891647144 -0.5803943998707746 0.055186929584788824
P 8.535187935705425 2.7358870535356345 6.65865702495359 -0.18824563194639193 1.3381697210592953 -0.6057161664650148
P 7.405951619230354 3.0173372904279914 9.757875546168489 -0.7130049589513656 0.7099492028441773 -0.27966120484591195
P 9.36633423651875 0.5883564647779939 3.2578251515039067 0.47899754738882666 0.047971899893588354 0.29911288581262035
Ni 4.498796147153479 4.920957612860319 7.7146875745978125 -0.18712771629186484 -0.26791666271547404 1.7161131440175736
Ni 1.4307246620246088 3.37099509262012 9.772471697127969 0.6396552424146209 0.3096405248168215 -0.32334656154900443
Ni 8.963636774692407 2.9263879820958074 11.16941862682371 -0.1359951592821077 1.682444805230851 3.3566188858124772
Ni 7.488743083880941 8.10331298756726 5.3901345558758385 0.4235627634592899 1.3717334159473538 -0.20311175042494697
Ni 3.0943784475572693 6.14881031436265 0.9197223340767308 -0.7804239118259721 -0.5557989699195975 -0.5862403171285904
Ni 7.211246762144138 6.842097390735988 9.872395559485357 -1.0248987985787381 0.7871828278163604 0.1667949182717837
Ni 7.488604187564 4.816942790981332 11.80068479378164 0.6356543487853439 1.4258052580910927 1.1563117378068022
Ni 6.631002768250875 4.255773891281135 3.2114069283580706 0.901407428190596 -0.7146707766895627 0.9647200722063127
Ni 6.36955360099785 6.348830270510431 2.371349965825334 0.07743185702591826 1.9075567140759728 2.4908844855434586
Ni 1.3395716390942467 4.611061410258691 1.58694042371136 -0.793451948654524 -1.0147246862592136 0.8834300177765689
Ni 0.9160499154568423 1.484051587975031 13.634850475915943 -0.8087924356663362 0.6871311765083972 0.015104459741606244
Ni 4.740744271508155 1.209490608402889 2.693265329719486 -0.03334360845745225 -0.18923242133969345 0.1499909593405675
Ni 4.370668924653741 7.907978467177583 13.186870036840885 0.5449990510906162 0.0012202455603462857 0.3594044836138262
Ni -0.38079721654672066 7.0191068570440756 11.559719129375452 0.19466979030518086 0.7523356382301882 -0.5139313831515342
Ni 2.2588893219009596 6.996772329280155 7.531782422623355 1.431721623575528 0.09476186366393358 0.5742872585317723
Ni 3.2775641700919453 4.976229087247899 10.01387071804301 1.660532578538792 1.0879486758513714 0.1780658631999127
Ni 0.6701478759466131 1.571435890839093 5.278610073127638 0.630002035595573 -1.2182598973748244 -0.8772202894214312
Ni 6.367812767158871 2.788991745378953 11.846180745382995 -0.3640440392683666 -0.35443814074748636 -0.9440206348754323
Ni 3.4353966849078765 2.630575866031875 6.245912729535267 1.320843313965706 1.2399602651663935 -0.5639146570481965
Ni 1.4689952272187563 2.4138050140611544 7.385346813600059 -1.62840561609726 -0.16489384459432893 1.6680602543744045
Ni 5.209917510621888 2.9072295501125773 0.4787098602348199 0.2615611528110915 -1.1881057423889474 0.4411169702929693
Ni 7.656770588360254 1.9659106907025994 4.376442381561206 -1.1460373524639875 -1.239961293607658 -0.5051775482183042
Ni 3.783415296632249 0.330755651479648 11.04771582197016 0.7609506335927089 0.6227353267308308 0.6891700613152969
Ni 5.810412587524975 4.451284347005603 10.197142556294189 -1.4305908524051942 0.28828956994487126 -0.8786945599741126
P 3.455157000931179 3.943220139148725 2.0186172131040236 -0.7560665660275302 -0.9029356919096643 0.3092432893784029
P 6.145819413671213 6.204711452053691 -0.5156109077439408 0.3183375383701872 -0.07361351172109257 0.46317163610016365
P 2.4289910113799063 0.8823795962797413 9.065542224504803 0.0164602024385523 0.9536360464780091 0.41581602963433545
P 4.948940590846458 6.439807358106003 9.0946391509528 1.5364665665941022 -0.1031922538194739 -1.6501075265507261
P 0.15240444674992318 3.724189907089117 13.362687772749629 0.46685731248186696 -0.24815516381783068 -0.40711207410243433
P 1.661311067653609 4.141480741948602 6.049318882538669 0.3277542036983968 0.08652404913517357 -0.43651778095806115
P 5.241613650147552 0.5137784023357816 7.267601627803847 -1.1979720936600657 0.39208011946997634 -1.4589213239187715
P -0.03679548630824664 8.399421415773999 13.287931923021732 0.5653444475161876 0.4739610134061838 0.6671477914079349
Ni 6.748296078029308 8.211244685583951 12.272761891894863 0.2510378846822644 -1.5205694357478716 0.1611498041708644
Ni 4.7285954736531535 4.681592960000724 12.330834442007394 0.04173234674177974 0.5821080401277717 0.06853558297755294
Ni 8.423663452957225 0.6645244270614437 11.891297047051385 0.026255077041787037 -0.2136859263963675 -0.12186077676325464
Ni 0.5985190453007562 6.192071887212168 -0.016780527037220865 0.3792222896707017 0.8010428736279043 1.0910419700647145
Ni 3.267091387794684 1.7817897329671952 13.016107200893305 0.9890154544185676 -1.875065940537119 -0.8459870424387623
Ni 4.2321244783835175 8.712095544714423 9.00279349838863 -0.8232566907207821 -0.6398527031374076 -2.507808514992307
Ni 6.057703590204602 9.272440326267443 10.154018027810718 2.0574103765077276 0.44041891578468023 0.6596273146611737
Ni 2.543839745980199 3.556792065913265 4.119850881499289 -0.8016087734337033 -0.7878420586669141 -0.39190759844785406
Ni 1.5939278344288788 8.342714679444708 4.24624190003728 -1.696069595103137 0.07628848745009442 0.06412896926942505
Ni 1.5877793574656767 1.191147034812372 11.085121526097495 -0.14269802522358005 0.5561944055858034 -0.1550622032158878
Ni 3.3160384498842714 5.547546677839164 5.808909729375685 -1.1968377229453064 0.44439409838234434 -0.9284438634830977
Ni 7.643723594322375 2.146068473527988 13.692178541769678 0.008673102293965708 1.317704768336724 -0.664664619974765
Ni 2.199154645862381 6.2870028899632935 3.2772724878263717 -0.5526786791230611 -0.13787437858269158 0.05718390541015959
Ni 1.4675692250315073 5.030454209381198 11.760717841569933 -0.023655434635410873 -0.7543207869810169 -1.0296697376048203
Ni 4.501259241840545 7.267462731486908 10.841079771258814 -0.5234956298012016 -0.5043820489002023 2.614770006046226
Ni 5.7938191075278995 9.546066070638856 0.8520603822426746 0.03347010673298752 -0.12293138411961407 -0.8090909407433613
Ni 5.4470690821649095 0.14551704138060143 4.917189818769466 -0.012925706922732576 -0.04581114479684368 0.33079041942155935
Ni 2.821150872627749 3.8229914872056305 13.516211723814086 -0.611744632047282 1.495502979697547 -0.17403514477396476
Ni 2.094417563135306 1.6374209011399625 2.588259714112995 -0.21727055842383225 -0.19296797712272573 -1.2937811676415913
Ni 5.680424154378243 2.0535635264460783 8.666309762798384 0.7246898514884617 0.39374645142880577 0.32264105084154754
Ni 1.5778991994540252 8.304231139897919 1.5942445180315012 -0.6032584489531417 0.34768179586025927 0.03907511162459077
Ni 9.032047840662491 1.511904929398693 9.500742350470505 0.17422463507695157 -0.8596858800820937 -2.294295623838694
Ni 1.007952052523233 6.36446073604339 5.610702833151692 -0.8273226332600397 -1.0369981529454335 -0.9570784965006549
Ni 6.971437641070334 4.314138123659241 5.84815812464109 3.817659591612567 -0.6855633178006452 0.4739162762111773
P 5.062317024487189 4.288979370784211 5.846477479206118 -3.2365784500874133 -0.9367570113344835 -1.9471259917281627
P 2.6896993982759185 6.739786363678129 12.433617716542848 -0.2126978514514853 -0.20116696799375033 -0.6414203047348437
P 3.7273567431153443 7.950452960897775 4.538056580099684 -0.249905313739718 -0.3953672748616804 0.12149979387941012
P 0.056990084815847886 5.286458641010183 3.112921105868733 0.24930598959282224 0.8099507176404954 -0.6341726220334949
P 6.739638207606727 2.4080824858032344 2.121386598007785 -0.505233341156904 -0.1630789028727772 0.4158036883391613
P 1.588946086527971 5.863980267091425 9.241752574002762 -1.0995181258565256 0.27219626392743446 -0.4947843779094382
P 0.9559214921975825 8.321676517305558 6.463648447920996 -0.49599716727061677 1.7304555287821746 -0.22567369488586295
P 3.4563700287657864 0.2991706290075366 1.1694477262045897 -1.1171828901261405 0.5008506387081761 -0.8222884132702419
