# total energy = -340885.3712849769 ev
CRYSTAL
PRIMVEC
9.12929325727100 0.00000000000000 0.00000000000000
0.00000000000000 9.12929325727100 0.00000000000000
0.00000000000000 0.00000000000000 13.36164348512503
PRIMCOORD
 96 1
Ni 6.986785048635024 1.93890668415522 11.12744263713031 0.26797399831597074 0.3933358462539484 0.9291941113855612
Ni 4.769544472470913 0.5932543395679936 6.333793178813811 -0.540393691108121 0.8127797024488582 -1.364965758206217
Ni 3.095378162704496 1.9270294736624503 4.7025372860183134 -0.21849723174208174 -1.0310293369565082 0.32154524667420753
Ni 3.604190191608443 4.971064491239092 4.864533855604057 -0.995828363575343 -0.516188297506511 -0.37844555940567726
Ni 4.105698785928059 3.091899901983708 2.774959141832715 -0.9292041386878901 0.7153798869414454 -0.523424410243634
Ni 5.361451328358097 5.047431029111514 2.2781603498906704 -0.06471800900367564 -0.04913789517723151 0.18402568032777342
Ni 5.679424611573451 3.0530912764612137 0.79204196087231 0.5493940948345183 0.035512333973996904 -0.8079113186129634
Ni 6.077169659036169 8.118333556665267 12.111274616045824 1.3192194052090378 0.6468851845041569 0.15040002185352808
Ni 2.000921973069429 7.13257073223152 0.09998219360085854 -0.17362839625384938 -1.07437402249073 0.28195668574830796
Ni 0.27433526157396954 -0.017280839155852476 0.3372287884969442 0.2828614569507645 -0.3114744927017668 0.24378171734048337
Ni 8.25548292886579 8.938071054410687 6.817444875574734 -1.1310437072686328 0.5310387322557822 0.9715270678258172
Ni 8.839529463281588 2.2339836999486926 1.375755276085197 -1.4336203832601375 1.5917463130030134 -0.811907327146234
Ni 6.751650972192456 0.7030112674306573 4.882317718816906 0.5133138041721933 1.045109212088342 -0.9202597850104086
Ni 0.8942653959612356 8.024091862647694 2.430268981978552 0.6152169068665985 -0.7700528530042932 -0.17292005733291507
Ni 7.371904283560079 4.3746203766163925 3.831157202327082 1.1525167895407442 -0.44057035376088 -0.4279562645412952
Ni 7.998621134534836 3.7495376691298796 12.456111757520997 -0.19185648922610182 0.7307522556324576 0.4756294022475422
Ni 8.75530260393778 7.162953020102341 9.306585017878941 0.17613625027736762 0.253484289340228 0.3004161780050762
Ni 6.985726050620296 1.122775257235814 0.097066297343064 1.2180128143610247 -0.915003935928108 0.8273763693161105
Ni 2.100650372318482 6.599383490402365 9.160301787801387 0.4969284208356346 -0.7992600706958687 -0.8348317971528912
Ni 0.287216694322085 4.751714962791913 1.7376148977178008 -1.3592941617427363 0.2849180823694771 -0.28491988214168995
Ni 6.807586151815209 2.057660530496458 6.97714268912506 -0.18354951202230324 1.383332947859495 -1.135719515477747
Ni 3.6879879741704222 4.443126593017426 0.16317242255382178 0.16417187882663983 1.1940398484851953 0.4723985540150703
Ni 5.802761363116356 5.923386714569829 4.920291926938139 1.2744115048657279 -0.3156363373889403 -0.8181422523123523
Ni 5.629021783648329 3.1374276873237874 9.23145276045127 -0.150483839816586 -0.8524394829323255 -0.6232395200607589
P 0.37230444601752155 5.639584375915919 12.27691833827712 -0.1865708153471303 -0.1806873599831598 -0.0782389263082459
P 4.142425932594018 6.384954651006379 12.411737914845242 -0.627690613853577 1.285595289396689 1.0559091309173234
P 2.5335340694250683 9.00525352329331 1.0003505220866264 0.1378170429821949 0.5361233458675412 0.38927401747974893
P 6.577391023010295 7.964888396048452 5.83147572911398 -2.179199676603098 0.22203969767770146 -0.772495915228147
P 5.216779418535711 1.6292958335389272 12.427117122221198 -0.5535317711519757 0.2804749589964589 1.272480606391602
P 4.153107205673604 6.359940387555042 8.38557992204582 0.3625620554062014 -0.2741852693330052 -1.0934012143255105
P 4.884235783324616 1.339039084571114 3.670938106133299 0.7122477690703669 -1.3299517040248772 0.12755499893455452
P 0.33255641622161786 5.947515436577816 3.610890179910245 -0.025548023672433418 -0.5155288095456412 -1.1036619728215702
Ni 0.49854339987837654 0.23593928010549028 4.916470404791888 0.3524211103174576 1.1773747291246885 -1.54314449283491
Ni 1.9779252834220136 7.025265019601224 4.360024462599605 1.324750362329596 0.2565063639960034 1.0450503338259485
Ni 6.4922147171705245 6.089622015002455 9.115420356422021 -0.924651486320201 -1.1785144991560865 -1.2277950905587693
Ni 8.9337528987127 2.492808292324187 9.827434932836514 0.9244141734984143 -1.2199239153408088 -0.48177125347922195
Ni 2.421773261698328 5.823685703200468 6.830071601041721 1.1195429057178847 -0.4376858331242333 0.4170519589239656
Ni 0.8327029199912552 9.21930806166685 8.853719123749622 -0.158031827367173 -0.010766237377568556 0.06645453207880812
Ni 2.118991122418386 1.1528106319638793 12.278494967218013 -0.22866054542832878 -1.4059501710383786 -0.6715189238924371
Ni 4.358890604380387 7.2166241350039515 1.3439141271561557 -0.10609348662666888 -0.627766718507151 -1.0901816789469483
Ni 5.91066047980663 8.201428383648505 7.897612808374879 -0.6445897036017609 0.10618193257541714 0.8437087879275469
Ni 5.239684815250822 3.2504300789298637 4.944930063508383 0.7560686229100593 -0.5889631153763921 0.4395316280837204
Ni 1.087216660103348 7.893424288640764 6.6536169697669685 -0.11904079081595628 -1.4125126547472449 0.438914820435328
Ni 4.941704684210078 4.82163621964366 6.978251898252555 0.9201715961719765 1.012819755927017 0.6422032056474553
Ni 1.5278419978693258 7.407855440301454 11.10991256826927 -1.2160050399023767 0.12883875074298454 1.5351653312841755
Ni 4.88873652488721 0.7042966719174998 10.592375673825012 -0.7579545270788625 -0.4071228727357118 -1.9965096843676131
Ni 8.187560987231503 7.560698067565061 4.451498154909716 0.8461932449122974 0.12807590443503103 1.486873329047007
Ni 7.525258151244589 6.381421614526208 6.748859234322596 0.3028145030339237 -0.8423702716217815 1.1857464981281514
Ni 2.569567389805516 5.507711735202575 2.271171875922788 -0.3116637258944374 0.09648296012009835 0.02485871091489267
Ni 2.409503491596651 5.1917834136708345 11.629626799148978 0.32237674143656736 0.4655113399769337 -1.359155322172027
Ni 1.7352321521846623 3.565153333755189 3.662680660406389 -1.3755574176791343 0.815072612248093 0.4656036425804239
Ni 1.574839599419502 1.5159739166697865 2.317991456254971 1.4798665587118707 -1.2744223034990052 0.8990504979226451
Ni 1.3213008678244178 3.678247018293569 7.949256307250012 -0.4957896792455009 -0.08987085412021942 0.624591406102963
Ni 3.7996483596716275 2.8654751712829563 7.173986683900621 0.5604452104423574 0.08923861985285922 -0.5760950011644724
Ni 4.363427863115904 7.424571176206343 5.8968542496542735 -0.9413513155733852 -0.490087229544085 -0.26440890667253175
Ni 8.434554015580382 6.8392647993247495 0.3626922131752176 0.6850629811254589 0.3830771446404177 -0.3066066230865042
P 0.4617222214921439 5.93948165853505 7.858329459604404 0.22272232556702287 -0.6976253911715018 -0.38055206422571874
P 8.933807674472083 1.7539563326002434 7.545814580811515 -0.585821741533933 0.15077925956981772 1.493255835534583
P 1.9190961178452197 3.297290741081584 10.1338441403169 0.42801051481799834 -0.175177228798208 0.37470049054094823
P 4.16183481000188 6.465776283975242 3.389742180696673 -0.18674359347956873 1.0343810270375604 1.0945705520432634
P 7.258418039412791 4.02411942162107 10.103393382746852 0.0964788463550403 1.0245018202506355 2.005330882203669
P 7.00626696038873 8.19165091059873 9.929919465711828 -1.4173003059438753 -0.6492971363797592 1.0417112421503867
P 2.6269632563451344 8.98233899728497 5.546618957091957 1.0954832936655199 -1.0399842321569508 -0.7003980688206325
P 7.180453875225047 4.44057952020614 1.2943128511766653 1.4037655046822342 0.6601173669237147 -0.05145265935333719
Ni 3.605988662374835 2.1632590652926678 0.603384203336462 -1.6344425663199595 -1.7399773522296806 -0.45035442973083734
Ni 1.7830422608323457 1.4694236504879004 6.691792022339272 -1.3942079429007859 -0.1492193712818656 -1.1065526641058039
Ni 7.112787553801211 1.0142462193126411 9.054892229375046 1.0471113301200354 -1.0220703279910075 -0.35374574266615205
Ni 2.6994498445946293 1.5120483205807078 8.644568841699462 1.6133669765965828 0.10162182400856046 4.1259199482524105
Ni 6.62258102450085 2.183498708384498 2.8100475803638147 0.9549686492465037 0.3430800354221898 -0.13020657762478866
Ni 4.74857448592065 7.298459119521391 10.231905530622077 -0.8705994416708037 0.6019605560773246 0.484926511278752
Ni 7.406349106918435 6.212958766545362 11.209376218014638 1.3592229421851687 -0.33260330426058204 1.0514325832032088
Ni 7.980152574329706 4.317041924212165 8.089152683783569 -0.239350163931691 -0.47428934327987987 -1.6934321574802902
Ni 3.800953848603577 8.580923973943623 12.433503975765197 -0.6773782108866915 0.04412398690240788 0.3775965811418207
Ni 0.19432065812667457 4.779440626332683 10.05885886451024 0.9933459634731214 1.5603809113178546 0.9083861735012742
Ni 8.947948949685996 3.0128493519015445 5.533858031014483 -0.05615340726311619 -0.3729310573453513 1.2506231441968783
Ni 3.703060437293837 2.9198127245903858 11.426743776901496 -0.2125728958378468 -0.23549453763102668 0.19902523906039918
Ni 1.3106195947448323 3.3000386583439387 12.510359843754769 -0.3948419984858297 0.9903331447887267 0.3307667652724755
Ni 3.1103319450159157 8.358077926189194 7.772869232745165 0.6375322825343472 0.3476002918900465 0.6668402874698451
Ni 5.915416841579677 7.951568757225277 3.451593142332734 -0.845066587507022 0.7168775545328945 0.08547375349378827
Ni 3.5633639922820275 8.672509043631146 3.1600290785743255 -1.362372543557744 0.3421138148541785 0.9794818038965196
Ni 3.7460776669955522 4.316758916122022 9.447389759088923 -1.429334097179958 1.6134428241398406 -0.9384295139408999
Ni 5.145872198015078 4.978349667236964 11.341670632075227 1.2134586193314392 -1.4885175495186493 -1.2340834946706425
Ni 8.021654341355173 0.059924680764443794 2.600389709610043 0.009740881436847742 0.8946060889980465 -0.11688723480806322
Ni 4.979983810725208 0.38952411890873023 1.4503260819791957 0.7377968211840649 0.9514814620288518 -0.24055549709370186
Ni 6.208494542155688 6.073718786195072 -0.06848430609728086 -0.24934841279498343 -0.8316832242215806 1.4469795781758628
Ni 8.719141473452105 8.893611396378567 11.13938831732231 -0.3346105644985979 0.8787300411977381 0.34245551446431344
Ni 0.2737473350899308 5.356475863547521 5.732719599593966 0.26651901103699904 -0.29506159856138214 -0.8974828963252092
Ni 7.526709708868226 6.509542115721851 2.600536691231053 0.2148691480711912 -1.6556883630726131 -1.8484138851672296
P 8.866460878311312 1.9761085540691612 3.7249853479160016 -0.6552937202828262 -0.7853056653983056 -1.8043114955313766
P 1.9674905012596495 3.480853440065537 1.3435535200735544 1.0958987839363834 0.03848530055939178 0.06031936571534773
P 5.094109105398625 1.2394111075475955 8.28908237967101 -0.8960952719490631 0.2098454696043547 0.3959061780842859
P 9.06157213323174 1.6309938820797845 12.397426834777244 -1.6688747798559 0.12068501128759859 -0.5169431733946646
P 6.701868936207004 8.102156449060972 1.2295651647985932 -0.35642354660863135 -0.12288947513808514 -1.0839698937092814
P 2.0672919348545458 3.5917287063489267 5.947548302033446 0.7865719337052388 0.8535316875552398 -1.399000479193423
P 6.942590140106585 4.207572569086259 5.9527857775597335 0.11496070720931169 0.11412818400568732 0.8561971502025447
P 2.668273308212762 8.968836772597186 10.395452254198347 0.5621426527494384 1.2347550668163703 -1.0737731556819379
