# total energy = -340865.8644550587 ev
CRYSTAL
PRIMVEC
9.27292498465413 0.00000000000000 0.00000000000000
0.00000000000000 9.27292498465413 0.00000000000000
0.00000000000000 0.00000000000000 13.57186303666166
PRIMCOORD
 96 1
Ni 7.78979495918049 9.168920025662898 2.9513912545389083 0.24903859486404853 -0.69637429237322 -1.4912506321790961
Ni 0.7104887434366691 5.063925880854116 9.184825874179882 2.2646878282745897 -0.6662160236222848 -1.1671440525356156
Ni 1.100492211449236 7.732302823224498 13.308446543745891 2.8158439001055373 -1.8225902392359064 0.9413502871321207
Ni -0.03703884494339038 6.834609484897448 7.654843297533984 -0.9490306864955139 -0.4633135609946666 1.1318075820178508
Ni 4.181913058962806 5.465489904656415 12.15202932069172 -0.7415238923266648 0.5329752871568627 -0.5032361082212171
Ni 4.516906753083158 1.3145855074092283 5.8186103128681825 1.2408930613933082 -2.0115907470704517 -0.20942766534064577
Ni 7.614740678119648 4.762370354839782 12.855065414181965 -1.3293552080914588 -0.5952034398591491 -1.0649267610349016
Ni 8.476084149842263 2.3283295040409953 12.675848517019405 1.0951025132873333 1.5134276824967676 2.02047288005143
Ni 0.6149562866206336 2.2433987825537476 10.203001401742839 -1.6729803173838413 -0.25649222292861634 1.827822434169123
Ni 4.459173521073156 3.0063286996149206 12.682797647129957 -1.0027739416552406 -0.19674467055633857 -1.518554976421004
Ni 3.0439396840403248 2.6593543861953526 6.471267531288214 -1.4423045412976967 1.4089143958730252 1.3469040156084997
Ni 6.536920768672412 9.551483825824256 12.885575192524287 -0.9796070166204742 0.6053736955239316 0.7088351438443922
Ni 2.702195300407721 4.906174878130996 5.377742068507324 -1.3928133765461046 0.3809001915937569 -0.10174086608492801
Ni 8.654096494027295 -0.09282012620843426 13.603621369961626 -0.3538370168283777 1.9982942870718616 0.21785214195891517
Ni 3.7813412381520064 2.207688747784953 1.387329750658836 -0.5898905122866679 0.8330893605404878 -0.12405444198046377
Ni 8.024344328030631 4.4728696315258984 6.841874821755758 1.4500217074362962 2.1563453977127445 -0.9616478610388922
Ni 9.16089894540452 6.940942117640572 10.494904739964175 -2.525436255376399 -0.9718176024830424 0.3182534632968132
Ni 0.6392828784701418 1.531748141595258 6.941709915843339 -0.23026131425654536 0.405869717054901 0.57590653930275
Ni 5.29655575419734 2.3820011948334603 10.036188896559043 0.9222413342168118 0.8659403456322378 1.1359074631188373
Ni 6.639275316524387 6.883088337603565 7.141596163174593 -0.1525623196121695 -0.6662859576282719 -0.8704873415729718
Ni 4.916681102330696 5.514358220219009 0.700497166583027 1.5025866260172058 -0.7173413815431905 1.409267665447386
Ni 5.619142274461382 4.0760533454025465 6.773526872321752 -1.2917944762288656 0.182503330145976 0.428213889078056
Ni 7.24629027004297 2.351363450124009 6.74840559078653 0.06866105281182369 -3.0632665566327177 -0.7306452977409482
Ni 7.661318581169156 1.3160135378829738 11.028251866887793 -1.4389330537223026 -1.6363325842538208 -3.2134963714569693
P 6.518347099588565 3.4154408844927313 11.636447263778503 -0.04536017330235414 -1.818493186348397 0.2255659656634051
P 7.556015243118148 1.5772411124017256 1.4693172457021428 -0.06664145127863362 0.2070015723976564 -0.9508044905664851
P 8.20850462159289 1.5963155194438992 8.745586882768617 1.1938668132424408 -1.638936854645887 0.10646192570968116
P 4.2873647638162815 3.972400588028985 8.894402494813157 0.8360983225701407 -1.7036846884462336 -1.194833548031084
P 3.856989761559907 4.362030357157837 2.286763617037328 1.303192433653162 -0.9078989494522106 0.44003916384775826
P 7.314603909653905 2.809037944034325 4.691535406879423 0.1200275802092578 0.4145615884019441 -1.0775506204464989
P 4.492787874757103 8.443081809218494 3.015776883054527 -0.3416175919440504 -1.3153501520616184 1.1717432418705238
P 4.333506839383542 0.747017577496579 13.065686926964228 -0.08044184749683565 0.3641828788390761 -0.11436601104810626
Ni 5.61703732045138 1.7901011093162102 3.5032916501110343 0.31571629869725626 -0.08607179208910339 -0.3762238691640101
Ni 8.825478696727076 3.9262028749107984 3.3425195283726787 -0.014138496283911135 1.6979992080256823 1.997665138128295
Ni 2.0236582751748524 2.3845976138766343 8.609582744117109 0.5983995781989435 1.2369482178129472 -0.7872309074454765
Ni 4.100005311075825 3.269559225966978 4.425702897729099 0.48069730368875285 0.9737880959458518 -1.0124009232220437
Ni 8.372069748387688 6.695803068264343 -0.10131319835715902 -0.5056542307444066 1.5358029648681744 0.17321213465203716
Ni 6.657598616629071 0.4598091212808111 4.992993567179639 0.3612669907438617 -0.5210831637049671 0.1769525755310759
Ni 0.7080277091007465 8.277059357257833 6.098544159300485 0.8611514088840266 -1.3236980098056816 0.6396354449202791
Ni 2.6901775894078876 -0.2906922941961979 7.417959933422533 -0.6383367807135135 1.4173890090029395 -1.0750476515189873
Ni 1.4188966424687377 8.24305554071741 3.743011602027152 -0.2368273975098373 -0.31670437364213844 -1.3594903369139426
Ni 1.8954508119929894 0.8442970534116643 12.863941458139559 0.6609146660140295 1.3691635983376484 2.2271610349737254
Ni 4.495087560195343 6.216912121601235 4.356866265139468 0.9873997731920157 -0.2869608238311187 -3.3127628078594755
Ni 0.8853937304025292 5.1688768477492655 12.742351154347727 -0.015198819227625438 -0.16163214312392163 -0.6878593129236734
Ni 0.23668492351315099 5.9025321400986535 5.489465979935094 -0.4506174535842368 -0.16312543983999647 0.05219905060105849
Ni 0.8290755467710575 5.467724679618575 1.6214980022851393 0.41481895582838885 0.7553019199473638 -0.3417626021623469
Ni 5.916534257081483 3.053935897356544 0.800671649731251 1.6296029788394708 -0.3954582919135899 0.08751058141815897
Ni 4.815198209443216 6.039576700952462 8.533743198451033 -0.18922573647147412 -1.5006791245818478 -1.2160762594599444
Ni 1.1334574603723897 8.822260991698572 11.306366365404843 -1.021909634043427 0.13557529813586972 -2.2818216597413996
Ni 6.134652002558395 5.085466885987306 10.326369325286729 -0.09902526692597784 0.2841814613137686 0.07714877856786068
Ni 2.9364757544283897 7.549681835237835 5.590535300360698 0.28799132197816213 -0.5927107553442824 -0.1671358465509702
Ni 3.276059546500067 1.0258637098082963 3.4868563175677436 -0.16431200394892992 -0.5566093816360349 0.6400085119889817
Ni 7.946359027483873 8.887866937164482 7.159890717211299 0.6154097396036949 1.1173325283301274 -0.2966880784212116
Ni -0.017485027670745036 1.751711199177854 3.0310855551915834 0.7634841986478399 0.023945969292636177 -1.6613211358783582
Ni 5.0397235462016745 -0.0025352177371561796 11.070595752311895 -0.07960623896941774 0.10233093426044311 -1.0478878032747436
Ni 6.340538759756927 7.408538641465873 3.77476951609523 -0.8639194585474669 0.4976640134500783 -0.28487463072605135
P 3.223046233393549 6.747082344367027 0.4363922033889293 -1.3641214079280506 0.6485597439931025 -2.165552518133309
P 1.7376348987937902 6.412997396911786 11.058897029937368 2.5202457123143955 -0.5230623989185249 0.3334659093711934
P 2.2865920679219753 0.1353244332377056 9.552949875291134 0.3446383810482452 1.0921179767377127 -0.43331752885320857
P 0.024513904937622812 7.982977808917779 1.6336047333664527 0.16034504888138193 -1.1630847948645777 1.578074986163508
P 2.040321721676936 0.5743084192072316 5.285724977617242 0.48968459478902765 0.6820977278495478 0.7734549367073066
P 1.3402251454605698 5.622814352822442 3.7399580277738766 0.6161944402885194 -0.4495825845618193 -1.1614729702927675
P 8.076263435968954 7.800245545829265 4.9193526320676195 0.7662018546893191 0.26584281090558093 1.266636231795683
P 0.9046081586145311 3.9611061651911785 6.895728261881246 0.5508526816579158 -0.3427295940613065 -0.08963996905633594
Ni 3.2377623656132526 8.011918608324013 12.145378778771132 0.549783359853137 -0.6205113224963185 0.20274176868003793
Ni 7.4117748923446864 3.4767627385374054 8.67027589383633 -1.7196435257683351 0.8548709751919534 2.883503765346356
Ni 3.2670555361753464 6.604705851549558 2.477924041798487 -1.1884178743127276 0.23533924300008502 0.7492922234181741
Ni 6.926661812903116 5.134650481005142 4.707984648810444 -0.08025210008353276 0.6899375356089408 1.7441561661977187
Ni 5.464544066290687 0.3602104867846623 1.6553469609754876 1.1383114445746398 3.0228837819402967 -1.1366859931560747
Ni 9.029000858011289 0.6250934483991967 4.994635802224446 -0.6626203358512265 1.4852211381555647 -1.079348078666554
Ni 1.9762921734872378 3.441451439550241 2.8799628393686802 0.554559955306174 0.4838075671829603 -2.492773732146371
Ni 8.39226617937352 3.7410411054318864 1.1074190865394176 0.0739798939215758 -0.9823601538855792 0.7841504687479398
Ni -0.24390018657562804 8.838256787589554 9.279856665745076 2.079853278892276 2.491565313660567 -0.7279484676350755
Ni 6.95478659489578 8.113484957537882 9.269406079096303 -1.3410447286142453 -1.0483714277793816 1.174502549783216
Ni 8.575999918378686 4.253416584826783 10.660671259190579 -1.1465407744629674 -0.7590647294239057 2.2267856539121778
Ni 3.2778028564290547 9.003129396831094 1.1806241941691888 -0.9667473870489868 -1.4446720130886086 -0.2473905177376643
Ni 2.893959392596418 1.8330625715555833 10.89399938379791 1.1029209808904874 -1.2084498532629382 -0.09603301706687332
Ni 1.297560416826131 2.954010855894967 0.46032005945680715 -0.29167417014638797 0.12369757286167728 2.0852466819937057
Ni 5.923220036117656 7.178356820363358 12.247901166568399 1.0557913743925367 0.08602139846714217 0.42584101797050533
Ni 6.392151861165162 3.9012494333208667 2.921968263024656 -0.7096586681869521 0.7476256343490286 -0.9054551158974083
Ni 2.626685870877133 5.0378875070211455 7.81933386225917 0.5551076002795279 -0.32512370805408525 -0.29904243758600113
Ni 4.04093677784362 1.386515587830298 8.405964144411293 0.9373159691617471 -0.2322464630073742 -0.3372919679855029
Ni 1.9495119656419304 7.337090753152822 8.853591423917042 0.15812490130161153 -0.6879315609225055 0.9458042091384162
Ni 8.417581265044465 6.463210286621737 3.159380183869896 0.6325042331921366 -0.06826304604245663 -0.7020363757550038
Ni 3.0231590587697794 4.196276820026649 10.553209184163675 -1.2254636142121154 0.999339204942079 -0.5044689521870538
Ni 1.3640287443313817 2.918551190105336 4.851561058142866 -1.1529153105307435 -1.2138663962928191 2.3036405553887036
Ni 4.62325793167659 8.222896201432198 8.593241995410391 -0.014376580436646207 1.6840232054615643 0.09158552281848098
Ni 6.321863088496384 7.682980134329349 1.2212108602765732 1.1388374922814388 -2.0281764193432745 -0.3191150399661601
P 7.97216557818799 5.685054226457381 9.068230895168615 -1.9812242189634526 0.30121527686760385 -0.7809892974111389
P 4.467732430990476 5.86324275622034 6.231426104052577 0.3917697873184091 0.14394938113217787 4.198552327007156
P 1.897796862057 3.3434273477452736 12.166388445292988 0.15566332713499645 -1.1504380526348446 -1.3686920580178688
P 4.658049946855119 6.867676735997298 10.528087902628451 0.1865152795188465 1.4306132210026974 -0.1060690611466367
P 5.920484523197169 9.195996967113139 6.86185241170795 -2.4189745867770336 -0.33240558642747914 2.0796897567312183
P 7.911205368224331 8.233671340461369 11.726402056114294 -0.6650292024030352 0.6130528093357441 -0.4359151143770557
P 7.171958502006964 5.552877951309523 1.3547771469050438 -0.8015529804951035 -0.07472165718360681 0.9302606049768624
P 1.7997078597759535 1.2384547918933093 1.7996698407828213 -0.5621236265860449 0.6091437040893252 -0.26329304790053365
