# total energy = -381166.3588849506 ev
CRYSTAL
PRIMVEC
9.23902030215314 0.00000000000000 0.00000000000000
0.00000000000000 9.23902030215314 0.00000000000000
0.00000000000000 0.00000000000000 13.52224010668313
PRIMCOORD
 96 1
Ni 5.930055902842694 6.090953440344514 5.494167242977515 -0.8690269549773614 -1.301379034593507 -1.4081016701637425
Ni 7.768657886937563 1.6823147176934459 5.0005651953711565 -0.11022267830369405 -0.43170544717108233 0.8681859471333049
Ni 5.412550662068107 7.798758614883639 6.850285416424377 0.3977092927312957 -0.258519023550658 0.1487887115023502
Ni 3.9602228752407425 5.119387310792182 13.114896405125938 -2.9415165944157144 0.8811535630375663 -1.3034148340766134
Ni 6.32510716933941 4.750417798436588 11.41559667262093 -1.0439447594665958 0.7464167016425919 0.060893750161579
Ni 4.209713377836157 0.9471289210141575 1.0296038069039792 -1.4721481070216906 0.4641178020635168 1.973838982242975
Ni 0.1535848529808499 9.275606761431352 4.556223755887234 1.2245328748677298 -0.5005595898303186 1.2037064250406817
Ni 2.8358341118774657 5.9134995785703275 5.904540500642363 0.5608704709052341 0.014384807966762322 -0.18423599656636658
Ni 1.387728557300364 7.671648174404167 6.50828090854497 -0.5547417322996769 0.865662923601135 0.9637307117098499
Ni 2.2883944455211447 8.104256058181669 1.393291371387636 0.34413315927705246 -0.35048121298226736 -0.35641711885072813
Ni 0.36046961373362046 7.615752101944447 13.23629897890035 1.0984313205502503 1.2744449292068245 0.6141552983713036
Ni 5.711248186468557 0.19200347085014746 10.780551692434807 -0.16880937759865122 1.0374642939485745 -0.6792779990125656
Ni 7.2943450657909406 8.08456770604751 4.918093081187407 -0.2251713013281477 1.1700113467810818 -0.08146771765818873
Ni 3.9552245652902123 1.093650543020552 12.15044894066951 -0.9714100826319785 0.812353156434401 0.433492363868176
Ni 6.369241969031986 4.857673584417559 2.758644869467678 -1.0005494232000962 -3.405075181541652 1.0506026311027454
Ni 4.5569434755640295 7.244888590439392 3.7864027201274504 -0.6482753799834642 -1.1279840945067026 0.35262242769498625
Ni 0.8872970259316547 5.624928020354316 7.336612659492754 -0.637741827441992 -1.1078371872451827 -0.5177173325565279
Ni 6.184821885995878 3.6108493248168947 5.14660546442298 -0.40319448421558307 -0.845460223401015 -0.45597691812393726
Ni 7.825976768514439 8.27630509311471 11.162393007790547 -0.6556619022555225 -0.6104629371213809 1.052906596645574
Ni 6.3155263053492074 1.324755395335827 3.339560277864214 -1.6400015484649757 0.7939918803183939 0.29937462411443927
Ni 0.7966890305234379 5.308870376920509 12.151409798774601 0.5310137925551177 -0.34973559306549445 -1.9034812584550185
Ni 4.177681694659654 7.614708092657183 13.182493696721233 -0.01867417937073558 1.6470684826140862 0.9136646482913943
Ni 8.415065938118431 0.4509713604090626 13.005027824220733 -0.007531018269722515 0.05801668572410008 0.7633011361027564
Ni 7.908582848491688 6.448337221317548 12.538470236664637 -1.182238999195525 -1.961279143300093 -0.6926127684482587
P 4.779723970641915 3.803658438232081 9.975423740822986 0.7461981578738827 0.7626403625903059 -0.45657469960893626
Ni 2.5889859690710564 3.5883061154281815 1.980210295136953 0.4261004422794791 -0.8746741259608097 -0.15717436446288416
P 2.2306690470536528 0.746820494869127 10.55720484541613 -1.7198458715871283 -0.3283620124857248 0.9145827892302894
Ni 8.23742729593942 5.931395560777679 9.988837874311297 -0.5398025944913414 -0.7671804165525046 0.9821099855479861
P 7.564512495686331 1.2431378905243962 10.526726241542185 0.24547401744124175 -0.5143975241546754 1.0754153192710512
P 0.6217712798054819 3.7066117696177194 10.386324546543612 0.0953367623307971 1.0031670633286014 0.45720333433187066
P 5.089730055817687 8.083708477165072 1.58929626190428 -0.3760418350601911 0.5788625366072805 0.03708944865312967
Ni 2.4701352126872833 8.311672062598312 4.618412525033286 0.13017341039400807 -0.08603348265200021 0.06321802741938146
Ni 1.9053908614190525 3.5863843992179962 6.621043150589743 0.5222612431734683 1.265386161438666 -0.7341070310373035
Ni 8.81765624513203 3.688651114268679 8.536265253447537 0.5277150671991879 1.2485827167280819 -1.3707623102833362
Ni 7.27782569759954 2.5023054811674057 12.506570671477583 -0.35396608620707426 -1.0514438960571182 -1.5751639831643003
Ni 1.5848892492491915 2.1930200395704538 8.671623367296398 -1.3694654458487836 0.21985914508661492 1.5839980365161621
Ni 1.8550566791445813 0.8611265771962167 -0.04172064370352958 -0.3189448329368829 -0.5228870496829253 0.6572343889489648
Ni 8.921050120652147 -0.10803371148528734 7.121542126806213 -0.20370516103457176 -0.8933267080649906 -0.39343097707091595
Ni 5.677165440798491 7.251633075215523 11.337478908676895 0.6262626231577989 -1.5837167578303175 -0.17206722241431657
Ni 0.46837767454362644 1.9919881981405314 11.893418473655188 0.1797584204109872 -0.007776815731941444 -2.074640881453401
Ni 8.54164051542391 3.961608728276934 4.688444298462157 2.325926620480413 1.3558550541542003 0.1456105708846847
Ni 8.117356988883799 3.1888478362763766 2.769273438353242 -1.666831009952994 -0.9918724642513886 -3.3302568508791808
Ni 1.1209980429347286 7.958833879583986 10.857885063560358 0.6797454255672873 -0.7590477601430412 2.681140720161976
Ni 4.653204827457882 0.26703632593562143 8.306022401720773 0.48392532370774727 -0.532889669421592 0.5841849772614585
Ni 2.2951851253984827 1.3968936653797095 5.486338097225057 0.23228220134131608 -1.5191031356149902 -0.39237965298826616
Ni 7.023383080154801 3.1184649800783366 9.885338673960426 -1.6424569519840035 1.097819140887548 0.26703554566210136
Ni 7.167012888825677 8.708173855272909 8.687525568935682 -1.9887043293905815 -1.8728172537122585 0.3026638363886723
Ni 5.536279621139274 2.474348205917305 7.436123374805465 3.183935884191033 -0.8894613115723133 0.6716711331995853
Ni 2.2434004169461312 0.8136204590176002 2.8596560016675716 1.9762499056773126 -1.698063228494398 -1.2083380102754224
Ni 5.806022056103565 6.145362030545388 0.15027820763649727 2.0510764638698995 0.21877285400097163 1.389851465704303
Ni 2.7124469965552263 3.5199004095617745 10.895626461245971 -0.615557578035469 0.9535218894976482 0.6446400972237221
Ni 1.4104473080736613 6.278810438910377 9.454439085025536 -0.29508885225489184 -1.1001801849205568 0.75013194571065
Ni 4.232385933508247 5.3499562999334636 1.9820359255366289 -0.25251884010316517 0.3390629438429967 -0.1968662837358674
Ni 0.1630982721232917 7.524812425709568 2.896260999863507 -0.3058455765507636 -0.23853666689146016 -0.8969427075510231
Ni 5.877855438479485 0.46990118898141287 13.254959028081657 0.38138895830471736 -3.2253031342839096 -3.6325761594442407
Ni 1.3425127922395594 5.747834706624009 0.892556800155013 1.416144080852245 0.4346527027248644 -1.0943885179394444
P 6.710050947692171 0.33491263594220305 6.619461430324437 0.6514956866929749 0.7716551644944065 0.08096635254173798
Ni 8.119066207628434 5.660396619060575 1.5276341169119805 0.3568585772635209 0.12530605499937775 -1.7565859073206394
P 8.827569713850918 7.176122562783576 8.421853846289697 0.9654554077104406 0.8458502597505819 -0.7646643349988702
Ni 3.7413227686641926 2.6497787222586515 4.370631241182507 1.0596007208362976 0.5929095016186499 -1.972048980222088
P 7.772270343851902 4.050118542188357 6.520627011293388 -0.7206254516111009 -0.05309250894960534 3.3491670575201224
P 2.321858176835046 6.875854404942108 12.676843042818225 -0.5477691576365856 -0.36273740464180104 -0.4217169684998027
P 3.3776934100080562 8.490779708995687 6.829068930342311 -1.022877140163019 1.2155962344997324 -1.791904380116275
Ni 0.4055828256697465 1.988754541056085 6.509430242662985 -1.873070250263329 0.38904570351902673 0.35925921628521357
Ni 0.7150687540059342 2.065780252807602 3.4117419713032295 -1.33267244539015 2.0630292653564015 4.726965962935265
Ni 3.8457421754310928 5.74015708080351 10.473285900662596 0.22879244302050272 0.36471638274504287 0.06321725608843307
Ni 0.5918377781257722 6.220780152774923 4.875822715779521 0.1366577325667711 -0.42425361887872737 -0.2796285518357636
Ni 6.362155640506926 4.832414103077911 8.13629143696627 -0.03595764904153162 0.3246069163186668 0.4069380104184153
Ni 6.559436439718891 6.979183607320539 2.7467588699272767 0.3699935719835822 2.7531244095891294 -0.7060467824659775
Ni 9.142075201884191 0.06915221870190184 9.767411819600781 1.4888376518622295 2.611749474052347 -2.1857783582618806
Ni 5.061920604891445 3.254066080159543 -0.29616418505029196 0.1939460247652789 -1.8842568630077676 0.9813934190969356
Ni 1.9811785444582386 9.007767564636763 8.564432254457115 0.33092720210973975 0.3162184351446554 -0.08011814560882977
Ni 4.360447993072573 4.912220759922052 4.413388502957108 -1.321585848558685 -0.19029968626194324 -1.5768025472089877
Ni 6.73271426434402 1.5923358995636598 1.1719225986026174 1.2533641972771252 2.738716718804232 1.3554447060896593
Ni 7.747232598998044 6.361056197098215 6.6140519839731695 2.111462421157125 -0.027953290679816372 1.293651326931946
Ni 0.6567502104389525 4.814823008538522 2.6660855929845035 -1.1137334981249594 -0.47006167835177753 1.6349452169879908
Ni 3.8782358096196603 1.8505387982465975 9.9093813763343 1.608708651888965 -0.4203190597110116 -1.6626683939348719
Ni 2.8478171211304004 4.425721671077187 8.576602815820948 0.4644196495746518 0.13017880971064674 0.09114663550884948
Ni 3.5012098716136735 8.237750661647866 11.092334441202976 -0.3799447696590231 -0.4924341325097067 -1.5822831107075845
Ni 4.46274242518398 4.209547075471814 6.679688755473266 -1.2327758316028123 1.1704198950734102 -0.18741567984592886
Ni 4.304348662167546 0.159240981172559 3.6890973589463325 -0.6317244176033184 0.36302305420301995 -2.5937633218875717
Ni 2.159778044742343 3.164013349867827 13.060685529958226 0.41379617099082927 0.5197245927945436 1.3935173445916647
Ni 7.757035199474038 1.6223904324085305 8.296610611800986 0.3061528233785373 0.5277119818753944 -1.1885510574564822
Ni 3.2474232246060657 6.981502601401099 8.301790006548243 1.4794906634296907 -1.0304750071149351 0.03788391952996702
Ni 2.4053973978566625 6.444835632646106 3.0995674880768314 -0.013534801261641206 -0.8227782084224667 0.47606726111590913
Ni 9.052586051827193 3.6312860375905966 13.554828984150724 0.9238282190879575 0.11238831849644515 1.519674434737428
Ni 1.8724722322993863 4.002666934229164 4.300220667923744 0.6774319469427623 0.6089814674798479 1.4679479528974138
Ni 3.433617199528499 2.089792466414678 7.464046465680672 -0.7970715476849822 -0.47288217851970815 -0.7384565662552507
P 4.877140200065928 2.9940615725295565 2.0950818055028084 0.09847093708440462 0.0433570268293963 0.2569941022656993
Ni 8.310304687602605 0.5722279576636641 2.5882921186509362 0.742543848950747 -0.7064838700033963 -1.0518107924782338
P 7.85675194493813 6.08273995135002 4.091004902364099 0.6003425608579274 -0.592311977243967 0.6102541635446844
Ni 7.451242107528289 7.958528991916024 0.7854349799675397 -0.4025509370943131 0.9482310734123541 0.5626794990895149
P 5.42466301760442 7.279313179858386 9.06214566607084 -0.5357369090623999 -0.3944671316449142 1.0255924822116531
P 0.7813772022775713 2.158503059949047 1.4623900037721387 0.3611746881403715 0.07452342512987165 -3.1958825150299472
P 7.0578261476142785 4.383212938947077 13.443067327998081 -0.341124968578348 1.0810439783117383 0.34345130271867946
Ni 5.005165303549288 1.1055781181520392 5.421417349793661 1.291992965392917 0.11698236562503078 3.0602969324814326
