# total energy = -381177.80378578976 ev
CRYSTAL
PRIMVEC
9.13773744620406 0.00000000000000 0.00000000000000
0.00000000000000 9.13773744620406 0.00000000000000
0.00000000000000 0.00000000000000 13.37400240917970
PRIMCOORD
 96 1
Ni 2.5157195968641415 1.3959264403345693 8.683164120659402 -0.3727991597531773 0.33953654104530556 -0.9306470417820036
Ni 1.2957494261926659 7.249725441115187 9.412542881702347 -2.042456326301057 0.5201920193492654 -0.19719332805798298
Ni 0.12505541774518233 2.0185444475029426 2.8381501405297027 -0.21829488592328858 1.4447141791804539 -0.08972250146781321
Ni 6.7063773051208555 2.539952876213255 12.817188874382932 1.5852979862745087 -0.540597836699127 -0.23599410297526455
Ni 2.3033494440162006 5.751136522090087 7.9448523076210975 0.7334529423930723 0.6483003196841287 0.9561050768437921
Ni 9.094479262697773 3.493667657113064 4.868257480826148 0.5313266958098463 -0.6658853797557436 0.6822465947225863
Ni 1.5380913574211088 5.490199295433498 4.582414437354346 -1.6180875220007036 1.2138178024430708 0.5031170661448496
Ni 0.5393531172419067 3.8093673434752477 12.21970512746255 0.4358534079011848 0.6563219044370244 -1.5538222842637304
Ni 2.3816964037218176 7.451075482765907 12.682686863805506 0.30921989233963515 1.7333331074402856 0.7833835086749282
Ni 5.317715365948633 1.269706874855949 5.851286123020057 2.294713170992087 0.39937999556549925 1.1013194407313227
Ni 3.164681700700499 0.6017656906243777 6.170724057716224 -1.2929897820885474 -1.003769987019923 0.6290910937455295
Ni 2.5246288907424916 3.444387839794147 4.676366824839908 -0.04212649685640487 -0.17168927024960753 0.15214220135561538
Ni 7.974640417481646 4.715556752619876 7.438138274280811 0.2660397574077354 -1.2525864385708365 0.2230218590853127
Ni 1.093348544751166 5.564854609265419 0.5761891638905285 -0.4157388965394969 0.4116958368183748 0.8505841748911416
Ni 3.5785846499453826 5.867405091636888 0.9073855389586556 -0.20886562218958868 0.2732475880100843 1.3267630218842505
Ni 1.3667222318882022 3.5509978210030853 9.036398890574509 -0.3586560354835759 0.13537500919960557 0.08602242690840668
Ni 2.490216172028781 8.853169895785488 10.566772515062638 -0.1379139735713754 1.3521176985989554 1.2237250342544537
Ni 6.919807435496887 2.412252997290232 4.320738881523016 0.7009750243700251 0.5150778380511516 1.264040703154365
Ni 5.657812810931531 5.076515651884081 7.052017701556682 0.5744366396254429 -1.385202911188698 -2.186427304699789
Ni 2.0250139655192214 4.212789308024266 2.551439012013344 -0.2587632783509801 -0.5172563337597091 -0.32296321006765666
Ni 2.9868613326259355 9.027207240613244 1.0776316365760248 2.0475885053212997 -0.7769282399678877 0.343068465457964
Ni 5.13950207516969 5.145551257269658 11.81503494799683 -1.416989973792308 -0.586317450223429 1.1480381849441004
Ni 1.76835319992424 6.828557990707956 2.701026513117713 0.6512090086904914 -0.43134600694913455 -1.0133283201323193
Ni 6.024181250683922 9.070392187145638 11.834654583777557 0.08011994538104265 0.35966185104027093 -1.930537491241862
P 2.3871699083711837 1.8509217942675984 2.4584762414785764 0.24909695890580974 -0.004161587576857349 0.03752036554296118
Ni 9.148062954290232 3.235946913989991 0.9674442312097797 -1.0364150267484538 0.5727065443082137 -0.7987972721268372
P 6.1314582867165734 4.427197176292589 0.35774515705188026 -0.05585181686229736 0.2009042012506669 0.40296642736517696
Ni 5.355426807831661 8.597523419032042 4.193591835707316 0.5113165712365065 0.31647066036477756 -0.9691323423413953
P 8.681444398497447 6.436841467654493 4.57638261695527 -0.43265289868601614 -0.3730290163757963 -0.34764014398904647
P 5.585944506979503 2.987446147813847 10.578768536604688 2.074731127174362 0.7890882723691894 -0.7292887837130537
P 8.60633219779997 9.045162894429613 8.964540638133524 -0.7665309558939637 -0.9532629794093067 0.6611190687153518
Ni 7.847050191406356 5.649534020927648 0.9048425066649686 -0.6821764036062833 -2.224216093412789 -1.321939632353678
Ni 3.4646096524636745 6.713998178038336 10.566143838735632 -0.7736025180287645 0.041757543552760346 0.18489034232091384
Ni 8.383325718721874 7.184262691018262 2.326808757015061 1.3886587309477827 0.617973129455497 2.323572004205308
Ni 4.00239290643553 1.7808993132524196 4.102675918330242 -0.4300218888210723 -0.6320949135688598 -1.173518845713708
Ni 7.99920265537396 2.2586476330901593 8.108670920813818 0.7117469181745484 0.41287828716225017 -0.7143128791295118
Ni 7.648532848322086 7.625295582339886 10.62815892054507 -0.2967364151606438 0.23554467414267174 -1.462895735185487
Ni 5.4875128006640255 6.396187674357281 4.95536204797075 -0.3180176931369233 -0.33342502883092895 -0.9034056895675473
Ni 0.4862820527126026 6.523951517441482 11.656365449778932 -0.9945122158670807 -0.9066643057141611 0.5639241701298934
Ni 0.8499594288268676 8.864226557931953 7.369035049639132 1.0844730585979454 0.1811460447871332 -0.11974707285436151
Ni 8.93689898276736 4.605054095316397 2.84367390273428 -1.2762387878824537 1.2169262661650655 0.5650672825954011
Ni 6.990981271413268 1.1389001652471424 10.047821223915287 0.1131442228258632 -0.9676868681441206 0.20282095865740554
Ni 7.167531494001585 4.779064026932221 5.110688048106509 0.5906716134270665 0.6979056414160819 -0.4043134283113746
Ni 6.38111954553123 5.295072052891657 2.8710770631566236 0.2278719880887624 0.03172895567216471 0.20220209412648404
Ni 3.6839427611426956 5.40415836091191 3.568170370731889 0.21444080228452098 1.741047702475724 -1.2033572692313792
Ni 7.360849464555823 5.080837801632244 11.935146849856693 1.7076215616067945 0.628956110829562 0.014422603183233225
Ni 6.249947326429979 7.462561618565996 1.737256566080738 -1.4769774100895339 0.07964943350252734 0.29243084580675444
Ni 2.6947826972130184 5.249575258819546 12.255173254835697 -0.27103592507074614 -1.4130615852721793 -0.40975079727686203
Ni 5.804957794852635 0.2759505290587743 0.6213752748940599 -0.454298759090566 -0.06618070959213118 0.08991456287396127
Ni 2.3987291460697615 3.4362187026379982 0.5176811456611029 1.2023008029424067 -0.32651364642307634 -1.0810041262127381
Ni 4.499056342507306 2.7431944294873785 12.575106454894126 -0.7289069748936027 -0.559292842005469 1.8673274342422805
Ni 4.134195629411249 3.9581479823750447 8.610918428156426 -0.5570277001203762 -0.07158234022367671 -0.1946008847404584
Ni 1.4234218919037553 4.277648967458658 6.600925989002969 -0.6903885071034304 -1.2100943308448966 0.14075324279238338
Ni 4.610536737703075 6.22688367745669 8.506079340438385 -0.5338008683819516 0.9610796472402481 -0.22219087854358505
Ni 3.543806421739227 5.53135566428282 5.855218091385036 -0.5421806078052147 0.39196107739360886 1.718423280207989
Ni 4.854669665444499 7.414561084470637 12.984470690016572 -0.11848851785691206 -0.36622536319040155 -0.28579714254032074
P 4.2436200337120145 7.262280692180678 2.6027547172051797 -0.31669563189139005 0.45136641593511945 0.19761370342485324
Ni 0.10264146189471486 6.499681687143124 6.901279759324842 0.724636629653023 0.7654822029144752 -0.8037368755202997
P 6.518112503299671 3.1338418372754395 6.460726599212052 0.08091801580230581 -1.0625634030090474 0.5069102146386948
Ni 4.153549357036219 1.459196133476824 10.378934445573885 0.8829157971443117 -1.6151706054642245 -0.3342205281490308
P 3.9523912078690335 0.42688950151145966 12.318218159640097 -1.0960067702691576 -0.6705627306267549 0.9740269514295354
P 1.7165056784208959 5.294377584856011 10.307624457371569 -0.5479763885513853 -0.7000789949183169 -0.7756545154617868
P 1.0600506299894132 2.1611662514550387 6.912914840243102 0.19351587920639576 -0.5330153963661788 0.3504842983060609
Ni 7.568541095900466 7.555812227826063 12.937554805340044 -0.0561076416268453 0.47879005936371094 0.7854290783500473
Ni 8.505113481604598 5.5118374573862505 9.715904795147045 1.7532468156450773 0.06187771134140311 -0.47958093069612245
Ni 0.8772456262116289 8.981491140845668 2.42232643890202 1.571835175901383 0.1922480682375657 -0.2130189822363299
Ni 7.01480335258338 6.932536303571289 7.80271388997276 -0.08659758268558634 -0.27370961524816734 0.6776026681926717
Ni 5.441888078269559 1.9063878597461494 8.423535417985764 -0.24427716891966317 0.42753871738790233 -1.2230889433323517
Ni 3.2297241148811127 8.115946387260939 8.478127915777373 -0.9983344178266483 0.8516077310596495 -2.008824240068908
Ni 8.097122648400013 0.1750242204573583 3.535404272281644 -1.3545918711710607 -0.7739046226502156 1.669233191636583
Ni 1.1829075081375382 1.4547460554063045 4.74921560800542 2.113654286602121 -0.7932377757611887 0.043333629790628596
Ni 6.8956198448343295 2.886766558119832 2.0288764870806357 0.523810332828143 0.5802257355033943 -0.9480557241767543
Ni 8.496916931236514 0.8462504212522804 5.881270694232795 -1.230535629418384 0.7876764796233273 0.47131637669448506
Ni 7.962240507950444 3.237783599189528 10.420648216399188 -0.4998970165456552 0.6286596626350657 0.3361671103524404
Ni 4.894939673774644 3.9175216022897668 4.598918104711975 1.5613887837570788 -0.9840686519362536 0.9398011974774461
Ni 7.987314459132182 0.5558302851613339 1.1413225794083226 0.9251842188952195 0.14362362236164297 -0.6424806276785581
Ni 5.349532967265983 8.392984307059738 9.147563120059312 1.0066699342755372 1.0082002548771347 0.9732692473279044
Ni 4.666880025963494 4.0365863194537726 1.8753698104435232 -0.595065371619388 0.09238770700480219 -0.08420028609800338
Ni 6.378067541269313 4.817113565095761 9.357013765836347 -0.805836952582438 -0.7622809223683581 0.613356456619092
Ni 5.1896591152704765 8.139795881642986 6.519197152718502 -1.8555044734654238 -0.6809440738610788 1.2966731444774056
Ni 1.3474233306870984 1.2922679482771258 0.5085918383577231 -1.1605229476746723 0.5654130959705941 -0.610724932533516
Ni 0.9968723142202697 8.129744370600744 4.880307415018333 -1.1218640976518937 -0.4688992826125602 0.21157710758348078
Ni 6.905086540688658 0.13845865083314585 7.564777261902012 0.6556025097724967 0.28732797736255034 0.19712185139009925
Ni 2.2648612944617263 2.084281329719202 11.650079600282604 -1.1367379294399327 -1.0851497729499955 0.7272092754762057
Ni 3.7198723442500534 2.874275271215519 6.652803665039439 -0.20900754708409167 0.29266430197379917 -0.20950556976643273
Ni 0.4580482719686773 8.954425162930105 12.068164891894792 -0.5323453668823477 0.26573559590375523 -0.2411568781231266
Ni 3.039887622242415 8.69206244925298 3.8903898326655635 -0.23464633069811847 -0.128395749668295 -0.8470931310187475
Ni 3.570479476950411 3.702282199926131 10.75894369958433 -2.0390447295163465 1.3319000860004997 -1.3302080430100576
P 0.48564697996947914 7.783625156729812 0.5638532185205049 0.29973277878480636 -0.14372415249524925 0.06657280282422728
Ni 4.670891492643079 1.788748629602679 1.7219161326828152 -2.0694883907181847 0.3115336280744764 -0.10418547097067862
P 5.5383734465377685 6.602472094156011 10.396935788076808 2.498700124933135 1.3921178931409768 0.16993114990792027
Ni 7.259182999232205 7.8601537067105145 5.486804626022414 1.6930657752798066 -0.12018775993620591 0.16161131718831523
P 6.1994978787352375 0.9816031551733737 2.940341111974979 -0.12852944703268185 -0.5634328323157716 -0.960483665527462
P 8.656626303960422 1.853736217359426 12.208685016265328 1.1099079537312821 -0.13989860810157195 0.4161083640637737
P 2.5292891367711676 7.562930525191433 6.32991532073459 0.5211752091981411 -0.6391878158598991 0.561955990659929
Ni 0.3612905991285981 1.4553491460688388 10.176198209173066 0.7368902502093955 -0.15938859850538356 -0.2687810675982984
