# total energy = -340893.94797819917 ev
CRYSTAL
PRIMVEC
9.08129828680682 0.00000000000000 0.00000000000000

0.00000000000000 9.08129828680682 0.00000000000000

0.00000000000000 0.00000000000000 13.29139799444408

PRIMCOORD
 96 1
Ni 6.476763888483317 2.050539026317735 11.521316199182198 0.6967651000537355 -0.3212781090557499 0.24431753523929534
Ni 4.696992856606142 0.24795577274634603 5.832717294623511 -0.37247597208580363 0.7869987368300123 0.8106330884195007
Ni 2.8592558967535817 1.6276320390255952 4.797357550762238 -0.3193734358338693 -0.3435767725529502 0.0513672987283825
Ni 3.230326832520811 4.073361929780876 4.830838481869814 0.8769112428214445 1.0065588626189699 -0.6178098644047554
Ni 5.156324931961774 4.6043545311671785 2.5794747136062113 0.31915669183737294 -0.11416160834678404 0.07288408975423577
Ni 7.502778068114687 6.145868617037426 2.5697322966342555 -0.513429246704135 -0.0846376307457381 0.11470513955507988
Ni 5.1491688687869965 4.7144834374114994 11.477374520395657 -0.39921775895602213 -0.38934677969921333 0.12164968919371306
Ni 5.883546230150855 8.172396690266188 12.175731819606677 -0.42262173970225925 -0.5790011190676738 1.2329354971091282
Ni 2.1194025124272993 6.351251262672914 0.5622922046073526 -0.9395777686127303 0.8295738911880617 -0.5850522103577602
Ni 2.873113958180879 1.6550938855237256 0.29478621256828996 0.044427634185755745 0.0652635970945005 0.43587886182248164
Ni 0.3568741419079286 9.386611698874823 4.746770177773537 0.033015278583756046 -0.5208700192528966 -0.5313776036524397
Ni 8.62047703684828 2.447591556936536 1.2743368368348997 0.7917732754005202 0.4322217246858685 0.7625161783076158
Ni 6.764177902973836 0.7207644949945792 4.577358555279284 0.5776176084565858 -0.3002475136376958 1.2627358683000123
Ni 0.6891751983531287 7.574256968176454 2.536145114334872 0.7659498865795132 -1.1751509820004922 0.45815901337692067
Ni 7.47609721328284 3.9532163513515557 3.8365625321743955 0.8413809111253187 0.23475894501658282 -0.16703891596178974
Ni 7.787631156443673 3.9630786414629875 12.654248137927686 -0.8234371821627045 -0.35518915998089795 -0.2311205769330471
Ni 7.888660601645955 -0.13012047664147175 6.721366845843715 -0.410412599230577 0.26047229062228694 0.3799321712535328
Ni 7.078072983730408 0.7802905900428413 0.5340048680805582 -1.3650323497780943 -1.296882432274734 -0.27732587184451596
Ni 1.7911953053211724 6.614717893163574 9.384019896298579 -0.45752729333019265 -1.0417454378224318 -0.65105834204524
Ni 0.3647158431153147 4.916215401072037 1.6420458759177357 -0.7931992092137694 -0.561848004327155 -0.4182410941360603
Ni 6.258440392563492 1.9516618488469537 6.960519207877334 0.5967034214434432 0.2368939890817146 0.741180392944317
Ni 3.6616612647700495 4.294664091590709 0.5015592049957301 -0.7749145519719687 0.3090352871326549 -0.19685137133753194
Ni 5.889194797783738 5.589021558977785 4.742982368192065 -0.6004027246719015 0.0944355906727664 0.9343126635590491
Ni 5.200151278258063 2.786060631285681 9.505781945851135 0.8796908624491109 -0.3048744708867459 -1.2275040416809118
P 0.28792710785266895 5.577370253072659 12.57127049777467 -0.26703400300020463 -0.30105561136128794 0.268500303133086
P 4.164292971112152 6.167772708887126 12.740044613118073 -0.3140589655994914 1.0371323645304524 -0.44933601576865195
P 2.455891863715402 8.379895278439395 1.5581110669086022 0.6378091903448176 0.11737497307775915 0.2208549333409809
P 6.141927333512232 7.644301023083888 5.7995823609866965 1.0464518421591655 0.34980989794685563 0.46374139256070457
P 4.899169803890493 1.0402536555933632 12.71028519811332 -0.5194672253680989 -0.5847200238293221 -0.16616859754169447
P 3.8306914727296064 5.952727561705999 8.14278893294547 0.875512305591389 1.9015835272116735 0.6976094503319018
P 4.80177287806627 0.8692973042335904 3.7471244563075015 -0.8982208029324982 1.1464335594611417 -0.020769114226551325
P 0.14273712457131715 5.60851910673952 3.858146962318825 0.37747342530039507 -0.7434280513279131 -1.9849862571090457
Ni 1.604138719947995 1.090545886382598 2.610962299705076 -0.5179693006663337 0.20755590223922965 -0.3081454283285338
Ni 1.8820082897726618 6.383035807230935 4.839078852078941 -0.45729872225915436 0.29763321594330033 -0.2040057229941261
Ni 5.87685331319678 5.67772768219 9.011661232411827 0.3095649343838798 -0.15909754962752598 0.7089840107174307
Ni 8.532034271290975 2.271405285802202 10.150135487598387 0.3211693513920275 0.37359157374748564 0.7284094664318939
Ni 2.117359220277141 5.422788390939334 7.0488938636963 0.4024133830751844 -1.090623137359741 0.2771854896119097
Ni 0.5356858164227553 9.328582201810322 9.183558406290516 0.605360325787493 -0.39927843699062854 0.077027422498648
Ni 1.4464782976417647 1.1382136219211847 11.509168146252124 0.14975364651878081 -0.021797555491065688 -0.052985808168411974
Ni 4.184662323524621 6.7754205504489295 1.6502735323090405 0.7672806895757946 0.7496241528362961 0.42571503391560234
Ni 5.335798633133253 7.966214890367526 7.993619524685452 1.571762156571603 -0.6917023408188474 0.23728299699001715
Ni 5.379606816832651 2.940506273942329 4.906001664710778 -0.8431981668397156 -0.5790736241768221 -0.9050702217541639
Ni 0.5279367444595097 7.270296827918875 6.814632689005238 0.26842779802393774 0.5420368831384987 0.37371138715480157
Ni 4.8345382028563675 4.466391445188476 6.935398520118362 0.5939410282069577 0.28958977681353354 -0.1522699851827313
Ni 8.212072883173043 7.435122394698328 8.917518135820501 0.6277962861935059 -0.6502463876669059 -0.2759487889913312
Ni 4.862771959722336 0.4393959008789968 10.418848384200809 -1.4707903074422155 -0.6850287854534137 0.025624899656955868
Ni 8.149911395315998 7.183933679705509 4.767983182811561 -0.42716359343667076 0.9835955689545771 0.30711133063706464
Ni 7.271159551271164 6.234583821548086 6.960146874641081 -0.31038794450580737 -1.0928394282847695 0.3221312010846646
Ni 2.5470136123140263 5.09869501202886 2.5411688886347283 -0.48653422208550395 -0.7237092327427471 0.7510184620806614
Ni 2.36152809157186 5.147688617140438 11.76694171074752 0.7745486839921177 0.23424163906053208 -1.4728281638078504
Ni 0.8900153785063531 3.2869668909232055 3.760641969043106 0.46938933487510126 0.41839098945036335 -0.09503028683397181
Ni 3.793939457922089 2.5674465338156116 2.584419480609595 0.9005944453709973 -0.23781187291029365 0.7115556280993487
Ni 1.1873979343001113 3.103243142079398 8.454831428819231 -0.5290898360595275 1.249348648359829 -0.485760320033957
Ni 3.61472911440552 2.476306622620097 7.080235240890198 -0.3162114931661199 -0.04249107928467521 0.08529094805902085
Ni 3.966511372275254 7.125577255896982 5.947249722483885 -0.14336368383203696 -1.8170220011195095 -0.23468695412806678
Ni 1.0739180289295303 7.335727583216173 11.643025577203774 -0.3635766127136448 0.9363834300451486 0.23271594644462504
P 0.23314962376137524 5.492914177532773 8.21062804859042 -0.7073050803531109 0.3748226179411093 0.1352549386819735
P 8.478763374611733 1.687559527465133 7.954688906380944 -0.5867846196678346 0.14630374029696738 -0.37668718195367384
P 1.958209465025906 3.2725276263954184 10.638847379683764 -1.4944688820060779 -0.32909246289384614 0.35586793121547744
P 3.800314529430583 6.132319319757264 3.8633178536534927 1.830455500916596 0.0037018743316194307 0.3626690132977109
P 6.894240259305258 3.962161430320027 10.38422411761899 0.2639705335835325 0.3998993584040791 0.3864216356326184
P 6.576222269054588 7.785805815456198 10.10757689056504 -2.0234337624519667 -0.1578176544738379 0.4931129037442863
P 2.0697732164245606 8.557816077576753 5.859220156005834 0.7717374397955676 -0.3897987796349674 -0.5591737999291014
P 7.141678398040231 4.179195381860642 1.5634272590183924 -0.5591295769547273 -0.8080851251866664 -0.12185897699104174
Ni 5.352126807737631 2.8400217066467563 0.45267457546549356 1.303904629228838 0.022617480289199757 0.19784407426810444
Ni 1.3616862140594093 1.1552501378042839 6.984616433301536 -0.05374994002794614 0.553190585762473 -0.24940034907884145
Ni 6.853556042270991 0.804453200815849 9.237375997136159 0.3132868633201572 -0.7266510889798905 -1.0121314716107408
Ni 2.7982931402912974 1.6852256337647298 9.44707407579278 0.779302139516703 -1.6818249122586646 -0.7402830779410283
Ni 6.363283983112737 2.1428595063111193 2.6080644573712295 -0.5171473189856707 0.14505598393279534 -0.7323823350367129
Ni 4.124653103399077 6.983109845889486 10.20909672588336 -0.025158501543498604 0.237066767214153 0.6029967106513228
Ni 8.378778278730643 7.174952275543257 0.3952280977611705 -0.3553693943125041 0.3227348961069345 -0.1453416334940142
Ni 7.596705937932862 3.951699774511216 8.298271659884552 0.5845986677601094 -0.29970706775319356 -0.9188490207058111
Ni 3.212990633789022 8.521227526141248 12.794326258314262 0.7139770930566478 -1.0774760584548218 -1.0635633050284714
Ni 9.083659582744655 4.665580645284372 10.37535804594699 0.5845986677601094 0.5904942073089379 0.17357980240410104
Ni 8.437888450310117 2.3847489716961054 5.589258580867203 0.16001903300053086 0.21499616056735874 1.1537851147302065
Ni 3.884997637431597 2.7119209107794853 11.539472439163585 -0.4451973110099301 -0.35110856215362113 0.5713482305081063
Ni 1.0170146128722273 3.4709449161234773 12.786670723725003 0.7919262560386168 -1.1621550839614567 0.16110969496154834
Ni 3.00336702177965 8.257824464739704 7.869478174940267 -1.0483369749970204 0.5224671885366873 0.8150576998497575
Ni 5.799262699281427 7.69021606802256 3.6240855761935573 -1.4785686658360537 0.5856152819500818 -0.556435575062332
Ni 2.9273928789875336 8.348183384268935 3.7743184045015 0.9592143118967352 0.18280826298090452 -0.12392537260176723
Ni 3.4946834302590966 4.3136167614457355 9.539103954235921 -0.19632995161642317 0.8058991732789411 -0.555909784465849
Ni 7.084166534987102 6.070103344109548 11.514670504980039 1.5806514886414327 0.603924878892547 -1.4946758558105613
Ni 0.7976295131641642 -0.054371550050795595 0.3641800465070509 -0.4606977206383743 0.45803431487359825 -0.31951690339026906
Ni 4.746413282744642 0.21948590212080418 1.7091939047510112 -0.5300573421791195 -0.16771074521783372 -0.8501830827979808
Ni 6.299406129849559 5.765534756856145 0.36979955398490905 -1.506930247697882 0.025681978147136415 0.037628608986051325
Ni 8.202537519805636 8.846156384508676 11.234447970728233 0.18754500633494153 -0.17812576990357065 0.2726796313217562
Ni 0.03195890548816807 4.901467372397115 5.88250732960873 -0.5304826026419961 -1.1327375500312877 0.46997863171966797
Ni 7.826671658459368 8.731305203072878 2.677046908490425 -0.15031337567699274 0.7860595128451946 -0.40655980114339013
P 8.303893891751944 1.7721972289739207 3.3993815599861703 1.3866249883472055 -0.6116214762058563 0.49045155486203923
P 2.0162389620904078 3.1117704813193923 1.64078357543386 -1.9588947022283167 0.7095730504516812 -0.3580608251017382
P 4.651177705950366 0.9080163282843274 8.153648349626177 0.1324434373751074 0.7806501689041653 0.6332411113581611
P 8.569058725051848 1.4901320992675957 12.511817961243814 0.4956680660659722 1.2131068924189752 -0.5288535516790054
P 6.323898391756126 7.698761569859446 1.3584078653207103 0.7293700305729504 0.670211260824607 -0.20044448800542897
P 1.789033956291227 3.337131983534208 6.113165953206601 -1.4050721393087995 -1.0396582162761 0.1756323140577556
P 6.851222148570588 3.993237633599327 6.050324276096015 0.5245726649154644 0.6714405052460178 0.6224774450837538
P 2.3483148023341682 8.495654589719708 10.243986166379779 0.8729080351993224 1.2054110664366142 0.3767941398451833
