# total energy = -381175.12671610335 ev
CRYSTAL
PRIMVEC
9.17190472917343 0.00000000000000 0.00000000000000

0.00000000000000 9.17190472917343 0.00000000000000

0.00000000000000 0.00000000000000 13.42400968149395

PRIMCOORD
 96 1
Ni 5.138229417331566 6.621812517614017 11.711441846342733 -0.0853642244991175 0.2718959590781963 -1.2281589016560914
Ni 5.632164000922046 2.162120609688123 11.989882529102093 -0.910371065141787 -1.2233882197403254 -2.05571936195855
Ni 7.11275706027362 0.4773526970906887 6.891389471675219 -0.4643916245501937 -0.1574273610139547 -0.17211401649185198
Ni 1.7516411869260056 5.240450295167822 11.52596208643861 1.349626042525353 0.011815761688005457 1.8673652294587515
Ni 8.896032146495923 1.8263738663885278 5.816731156308924 0.13311732351368044 -0.5794220086551763 1.8740583252082113
Ni 3.789620066554575 8.834369431225117 12.71386590908568 0.08064393620531272 0.08347600633746914 0.023164611041921395
Ni 1.9667590396645922 3.4961007724750894 9.713049824572312 0.44587453958261275 -0.32323086190674655 -0.05024861174290701
Ni 3.743659652123217 4.565517344307654 2.041671488459155 0.44165613062589093 0.409756710814133 0.8540680196746839
Ni 6.519857625013944 6.1347293468314055 6.075371531210687 -0.07271979626222959 -1.1568964066656784 -0.9053612706320213
Ni 3.6522249342093875 0.8746117364240777 4.9264372972357275 1.1716265137870017 1.1307518870598268 1.003142380738253
Ni 7.045059231712884 9.250874795372466 4.314557522398272 0.7212173195588288 0.6485571728899411 0.15509974132204257
Ni 2.5119187109818983 3.7798428161487023 0.23904001456653842 0.5153861133201898 -0.7061987346628096 -1.1179490788682038
Ni 5.122939852203434 6.396559710186416 4.045190604954606 -0.7026323574677898 -0.4518664954999895 1.3091255113081455
Ni 0.263335472915615 3.6369537128906466 7.900217358276872 -0.4490858474310588 0.6969972706691996 -0.8014293104330455
Ni 1.720291616675281 3.532348139833446 5.618699644828405 -0.9152834148417399 -0.030628780629450472 0.8728869521534
Ni 5.681490504376813 4.870850051635512 13.516232386600775 -0.8549236828067599 -1.0952871184943138 0.7945868335899154
Ni 1.2596418752263694 1.7648579015928556 4.093047769277085 -0.04663955423541 0.7052129737107725 -0.40334540797115054
Ni 8.023848213244861 6.056437968346858 1.076379881877723 -0.07769282399678877 -0.19820145760752317 -1.6297055658556063
Ni 6.423882814275623 4.304961875705379 4.016543995017775 -1.5814811836315796 1.2116837868192036 -1.327268243655443
Ni 6.045495886044601 9.377538799223405 13.367387048433175 0.7526415995063812 0.9316407731538406 -0.01819852528589769
Ni 7.528235171095025 5.392768116453305 12.235380481765045 0.41495882384036276 0.07312603056171278 0.06337717870506504
Ni 1.8569254809307054 1.3048318496632678 0.4166365223845024 1.0677434045480902 -0.20809634812373196 -0.6405458725496904
Ni 9.12762274006842 8.84152351688795 0.12925690130847955 -1.7841854142054625 0.3386327982841136 -1.4893680704444026
Ni 3.2629050955808045 5.304919613275588 5.049830599872092 -1.314417355834704 1.2483675153934823 0.0925651131229309
P 3.643071373322839 9.376254732565974 1.6883779742857565 -0.42615572099744675 -0.9965277036352128 -1.9389239155333449
Ni 7.542781811942786 3.8380935828726197 5.769142728794038 1.8411595175976614 0.5530669157004152 2.1369693071789775
P 6.2533220745499145 6.242994509862285 2.238051139903935 -1.6567818532471081 -1.5011972018688469 -0.9199898191784737
Ni 4.30023834478697 6.429092456142917 7.098226928854311 -0.5650683110366655 0.6090341750946544 -0.9112167009715338
P -0.05921748547886973 0.1676431568419294 7.683540281739975 0.3216614605370976 0.19506625441265116 0.01335945202604151
P 5.4514132750791475 8.903791577868688 10.678464334676672 0.15894328343784883 -0.35239077130015445 1.2205656626898655
P 2.0626513032606493 4.292112037226366 3.5755927532843357 -0.354889369352292 -0.5150482703647968 -1.048210219611169
Ni 8.008118396691323 0.7544331863836401 11.536580400505098 0.23605375256860636 -0.445097295096956 0.416938830384869
Ni 5.682150881514921 7.241814931250197 0.3245230835231727 -1.1477448220733975 -1.2234859216604543 1.7077300621602005
Ni 0.9439999470202758 3.0379366171987776 1.9227210564575037 -0.49892205422689556 0.4425315912523088 1.226178638001269
Ni 1.7713607820222772 1.5842722700344847 7.78996647787932 -0.20165239227060114 0.6449154623722958 -1.6195263113297593
Ni 3.174478762407243 1.9126448019585436 11.634535425467275 0.24845778265991403 0.0007787871475534975 -0.592029927227174
Ni 7.824322598489374 2.9808781980853323 11.695520336981051 1.0832782669588956 0.3092162927952094 1.4227595292862334
Ni 0.18474233876657112 7.295919997051549 2.2799199676504336 0.7412431278614525 1.1960216548019142 0.7562709687288524
Ni 3.025453654907603 7.547276045243796 5.010873851866555 2.6570836792127723 0.005804265386602907 1.8282834329659416
Ni 1.4137665617369521 0.014875912226345765 11.511249434115852 -1.022205053796659 1.4071372493679444 0.3834257862290881
Ni 9.202171981437024 4.454252968441201 10.438241144404357 -2.8450251496551844 0.24081492140267555 -1.5797192066351504
Ni 1.5607738502034851 5.413725918683529 1.6592076485907876 -0.7761237417887215 0.9748106236730955 0.3927822877433235
Ni 7.03390619560262 6.318928708839977 10.22083948739648 -0.7656526670540685 0.07344973244971867 -2.070607591924292
Ni 4.901190712369682 8.73576228383906 3.293540174455715 1.1110168705247447 0.7443441353842793 0.15285593959318836
Ni 5.429556626188721 2.9771910923975646 2.2797457014612106 -0.6122722224159778 0.6451532894147147 1.270835100368379
Ni 4.000032732184144 3.292631238700347 4.300676761831435 -0.3214496016366077 -1.0281553578428229 -1.2216396124803348
Ni 4.378272909940031 1.9771874953038764 0.4142793428776457 -1.6355270576333896 -0.2600123202667328 0.751321595143377
Ni 0.2953958657802747 0.5794525057849582 2.170407425580905 -0.7779772500576925 0.9898376932095468 0.7755933232065482
Ni 3.5965331288956373 7.007371875317265 2.477334209944916 -1.1505393540993993 -0.3640193566780182 -1.5550283887566896
Ni 5.865928335907479 2.027981503509994 5.107044024174899 0.18755683340948345 0.25092809857727755 0.21022419310001214
Ni 6.078404680093635 4.125091652713292 10.920820909981261 -1.8155225337558474 1.628915208743827 -1.422466423525847
Ni 2.7622750215622887 0.5349458382479074 9.547343774002167 1.1186013677402218 -0.2865484188840485 1.2736815686782388
Ni 4.764208315735812 4.2271932957885 6.136947113386883 2.616636884051635 -0.9461153126209318 1.571867057580583
Ni -0.031123024204734628 7.076124472918034 10.851473055765727 1.2417376687817905 -0.06579581544888669 0.3518639522624069
Ni 1.2525244771823196 8.061067802500988 9.015431084637207 -0.001993633391261083 0.6159946655728876 -0.07072924819476206
Ni 4.637663546645922 7.270825665803457 9.359689355494634 -0.5428598932604264 0.47425257650467356 0.457004073836871
P 6.533147714918361 1.2425821324919202 2.3503024127156715 1.0196750882859535 -1.7859970134929049 0.7552155308811445
Ni 6.455718495475232 7.407120169585132 7.889182639737186 0.014235683983407741 0.19050408896326546 -0.06746574695214187
P 0.7179528526460066 6.641532112710289 13.054621429539727 -0.22643474142160358 -0.10083120978646505 -0.41860721922622746
Ni 0.227556789887221 1.749871009319689 9.472357032779566 -1.0334505448034912 -0.7431143767422363 1.0633748431667491
P 9.346721199445044 5.472407764928155 5.862493457598849 -0.9300181499487532 -0.2970493184153723 0.7276605040810114
P 9.014634046119129 2.104676970577448 0.3722720193702385 -1.2538784179093827 -0.09838429090786927 -1.550850089009284
P 3.804799568826356 1.8636026275493502 7.045443534519643 0.9241637480505052 -0.17900174475062075 -1.1979677227846917
Ni 3.8045335835901737 5.201157855450413 10.262373540621576 -0.36386354782644426 -0.8120865330365755 -0.05428215838233232
Ni 7.157277485667715 8.21928315850596 1.8476939588542416 0.20011435835951988 2.224379101353214 0.0371311005243425
Ni 8.740522502376255 6.50251355323392 8.27897574864808 -0.4597721235003114 -0.8817387461170749 -0.33808592464170806
Ni 3.9139268908986553 2.548028499769816 9.010262716341044 1.7252130494363127 0.36924255275017054 0.6334020624160576
Ni 7.446687766443419 8.801405605747906 9.497191799124764 1.3710610724706773 -0.28452418936516805 0.49278791630469965
Ni 1.6882174659535774 0.12796182836541276 5.725514729726857 -2.9527736553867725 -0.2227657772104486 1.0977839167742383
Ni 1.8299875968387285 6.354891747152759 7.190248648668682 -0.5091023371940071 0.6351990064154802 -0.7626015389325705
Ni 6.647530538381434 2.034961322983605 9.833100885137478 0.6282261746420729 0.2002190022581842 -0.7824275725195622
Ni 7.469580840564485 7.7404913895684775 12.310823983841502 -0.5693949634364774 0.06939664542626758 -0.3437536644504467
Ni 3.0758257554977075 2.0102613836374377 2.5916262315514995 0.05161541018344659 0.40897226723962465 -0.5666590525625531
Ni 1.2495344362514431 6.421910854765995 4.159268003991305 -0.23688884687539202 -0.025144617586427664 0.2837988811633693
Ni 3.3237881989524567 8.691893063678377 7.285827233124136 0.8936637796894352 -0.01839701444994896 0.4411719919006209
Ni 9.422205975092634 4.444273936132018 13.192310980025656 -0.4230531708127231 -0.6550648921014718 0.5916982549193681
Ni 5.430501332372404 4.93476905546152 8.425136470311177 1.0270569825723217 -0.3297403808904902 0.5638987162085966
Ni 1.8852941821552494 8.065809677228788 0.8294089213206051 2.2866188240197265 -0.769240641515643 0.5741682164554047
Ni 8.220026082786331 7.787772558276051 5.971133751531793 1.967259272142928 -0.29586738229212917 0.276750201846704
Ni -0.27376576293583843 4.631243213358764 3.643343778892308 1.1135602057718887 0.685359172209639 1.3617040567358096
Ni 7.976576216441984 2.4444501800385607 3.852194469152159 -0.4253676778785126 -1.0786271413401294 -1.5442549522902693
Ni 2.2505561147663804 8.815759636597052 3.4064765885482378 0.3056329463193253 0.4967638702333122 -2.362258107921596
Ni 2.9217652723199965 4.378318769463511 7.645899702058305 0.3671185644286323 -0.5109519888082361 0.399591340245357
Ni 5.4384166861250005 0.3676989076888426 8.600467517669244 -1.9949742215596933 0.970569074787922 -0.5418049696333508
Ni 6.272803200124092 2.657779511361439 7.406885368824915 -0.38067239185366697 0.2580125162278847 0.9296371124602506
Ni 3.3463510845044704 6.208535663919637 13.416129301558811 0.005484163043022814 -0.23060378519762864 -0.32681729370642426
Ni 7.319400073073157 6.975206005548601 3.8757396656971075 2.2945661038912615 -0.8722158942283043 0.600497855488869
Ni 6.701910761323664 2.4370759686630246 0.48815169767968897 2.438647125505297 -0.03872415604307525 -0.393322990738142
P 1.5543076573928474 5.8633051711644395 9.379275040782346 0.4404042604966608 -0.27982138457286004 -0.018018805174923807
Ni 0.9919690085800442 2.568004908197574 11.732316184240226 -0.39394005549685057 -0.2801085767959757 0.7301439326244974
P 5.155573489111589 8.240516117877062 5.67600662255911 0.1436205370378494 -0.27513863438521 0.18963351343285406
Ni 2.6028856617562357 7.391106023986019 11.129376264909903 1.1421961243410266 -1.0035604421122781 -0.9863296800562885
P 0.2669602096514507 8.644290878306446 4.035230833645285 -1.9985981914655258 -0.21218260237796363 1.5871381248070409
P 7.497335024174402 4.14258247496845 8.878626622954437 -0.8471622936937862 -0.31227899088093314 0.46001483563873685
P 4.051918197049079 3.8633988679287197 12.183120803188514 0.7766891273738882 0.7675953926027361 -0.7745859649879563
Ni 7.6735915167162885 3.967701768130954 1.948280403273681 -0.4178500293452288 -0.332001409010525 -1.2075610229000815
