# total energy = -340857.674554787 ev
CRYSTAL
PRIMVEC
9.37503235259265 0.00000000000000 0.00000000000000

0.00000000000000 9.37503235259265 0.00000000000000

0.00000000000000 0.00000000000000 13.72130749081050

PRIMCOORD
 96 1
Ni 8.607301752498026 3.3359365796380143 3.647123909825408 -0.9715646059319719 -0.7006060710663805 -0.14804360580620957
Ni 8.267813074071546 2.694665603670706 11.111474194932585 0.9326753850659422 -1.6953964802955122 -0.07870532442170315
Ni 7.932936911655939 8.355413378148013 4.153385042149179 -0.2136645862401288 1.3463553421938812 0.9200355848147446
Ni 1.7069590501629743 6.140674440389393 13.048593106521984 0.06338772022802631 -0.5599222480593519 0.5472783340430961
Ni 5.774729420128173 4.766350919864384 3.8188595059506607 -0.7070037470626082 1.53713813873983 -0.23478902692356984
Ni 6.773648512556652 6.052249133449191 1.2274326981404506 2.111982041106021 -0.9304500952798491 2.0186687369631553
Ni 4.115639286126847 3.9053854312977663 12.537789770931404 -0.3193356406173984 -1.1175271608394366 -0.9205976279658016
Ni 4.537900126870445 6.101102428027795 5.821044893397541 1.421672723979958 -3.8144724521338373 2.429977622755757
Ni 3.1422390322788645 4.483046811464686 7.380320930926121 0.5324019311518959 0.27567033851896394 -0.3204661546774158
Ni 3.1833579250099633 5.621203887213337 4.2295515565369 -1.3116853016155217 -1.989826615920483 -3.38946832824233
Ni 1.1042007078799685 5.956511301125895 8.466883452580761 1.6023940225248465 -0.12338338405536817 -0.12374128161541914
Ni 3.2973770707909993 0.015143490065787465 9.136469839335973 0.6731294629126665 0.6937592233478761 0.13813997353925242
Ni 0.522066499687055 0.6935639699857302 11.371190721455529 -1.8634039308181587 -0.24957235588033147 -0.8078838078091377
Ni 4.227277173642106 7.691332948004971 10.501259889268583 0.2609122063731829 0.08184926936732356 0.6668408016904774
Ni 9.110337873627204 6.972671078399901 9.935612613304789 -1.9791531953670367 0.34193897983921107 -0.35045293084749324
Ni 6.985083621486079 5.513325387747592 7.935210357047478 1.145382235378492 -0.44642964075513436 -0.5937592512134547
Ni 4.531843855848035 2.160607499858628 2.82543699510181 -1.40614068978263 -0.4437497799301261 -2.3224129509002003
Ni 7.927011891089124 1.0564911672715414 2.7636086554844828 1.6687714215088163 1.0589222067120345 0.5756689693706473
Ni 5.850067181639142 0.7952830730710976 10.186465984062119 0.6986669450621387 -0.29867117028951146 -1.3180348979826333
Ni 7.740917495121884 2.883291258424401 6.232066945129274 0.12148539570170691 0.19361280979557624 -2.447912095746991
Ni 2.5378119342033063 0.28426223672553386 6.2195803392860105 1.0971118304078782 0.08779931630317138 -0.956857124518468
Ni 4.8830794500501815 7.420947634448742 2.362054449117351 -1.25927593477587 -0.9806670824538725 1.8112552738390613
Ni 8.65834880469156 0.8030512250357552 0.5677688458281478 -0.9548110406227169 1.9681995245690103 -1.5619143172432455
Ni 4.772172815073232 5.590181904530436 9.318084844754438 0.17429791151704818 -0.5264601117461644 0.16805707281365895
P 2.546624464793191 4.534853241294155 10.171756558003045 0.19644487992773266 1.7399925217383325 0.22578399521148212
P 6.737610887463549 6.920077145836868 9.566990083749452 -0.25210592093546264 0.6593552919467096 0.43488307356811556
P 9.108115990914646 1.2472074542821985 5.1594310343164125 0.0075446451164773295 -0.2273423408375375 -0.3433116918170217
P 5.4903190578884695 5.093417680172145 11.59888213681353 0.7516404119353765 0.6518908652488643 -0.9446767804021925
P 2.648062316902285 8.001749650517377 12.69649032180966 2.52843339033151 1.6413755459943666 0.6121534374499263
P 2.897353807238046 7.466163416400883 4.937132137676818 -0.8085296689232526 1.1408488662845127 1.525577173375108
P 2.794209699206229 2.493111779040999 6.486419078031438 -1.6146299024694064 -0.3202584095419839 1.1691829373425153
P 6.556588384101765 6.809508012031447 3.7753762300123612 0.6199991587465903 -0.8476495177428499 -0.12868654143583644
Ni 4.347774466909961 8.024962231092434 6.877777936508677 -2.9064351773315495 1.4338633525088789 1.5106915145125273
Ni 0.6465931819416465 1.9124878885906713 2.142884000837164 0.9216047290740772 0.35620885949466397 -0.11924390796569785
Ni 1.0624630630010694 3.0546012280722272 5.0195977364297955 0.6340381533381597 0.15251346865210508 0.44034255402079
Ni 0.8237437968634072 8.542642153052887 0.0703689942634809 1.7978896511654325 -0.6914776264025511 -1.886584739809996
Ni 7.091452740712491 0.6374825253169129 5.617297311152906 -1.8087564186766076 0.06689367649875576 -0.01960980381112752
Ni 1.3056514071517082 7.970352666532778 7.065307649958163 0.6255380862869485 -0.9882232975345755 2.1863059486305763
Ni 2.360689444379173 7.5460105685647605 1.7472435649977969 -0.6254516972207294 -0.9158683408109323 -0.4448098457635243
Ni 2.2037701496839768 1.13186642891268 12.693307498261506 1.3227513296216962 -0.5621290259026835 1.289452201248934
Ni 8.463507503362232 8.973087397206026 7.17289552341509 1.0879018817738362 0.5327341176803341 0.43254465524292607
Ni 5.890511072027186 7.128221618343903 12.492990240424147 0.06362734704265817 1.9662987080018717 -3.6343327371240313
Ni 9.356666853679556 4.626081682964544 11.774528996515485 0.4368988184465637 0.8244321990861221 5.176102461098602
Ni 6.0865805026195705 0.06720398327715647 3.1008370135649845 -1.7638168778514398 -0.8687603315795359 -0.3759053094823268
Ni 7.503907297416707 5.552278647961391 12.58001022998624 -1.9014961097041898 -0.806968752194036 1.503528678215501
Ni 4.694847546663268 1.4382706174969255 6.477952486142369 0.4031217219961186 -0.178052493463474 -0.38688109176754015
Ni 0.21917419829320386 4.375262062324366 9.814974694548797 1.2588792135580835 -1.5253398605533215 -4.707653892870216
Ni 2.354426922640829 3.6567689433050603 2.7723761859181635 -0.5083662303589309 1.0796586679284372 -0.17245288788850946
Ni 5.507803493580102 8.522738958965308 8.525652719079494 2.019734973444141 -0.7959374340805389 1.6204855899192352
Ni 2.7048750141094122 8.982753055757271 3.5406329151759435 0.4441051063870158 1.4033520712938992 -0.6703426441961488
Ni 6.026327168469372 2.6245684853509554 4.376191128049321 1.728423071733178 -1.0224490514866649 1.2171113855926783
Ni 7.626973349601188 2.785359668486175 8.36575778905533 -1.4182279599644672 0.2467888795979234 2.286028498733895
Ni 1.0380036030978692 9.320863604400015 8.952727639033629 0.16720089546095074 0.22966301855091414 0.6082852127437718
Ni 7.058105749959068 7.393497539164508 6.39714814315591 -0.6236051309302937 -0.9226036026522368 -0.503489876103236
Ni 3.649222042108404 3.378602352738614 4.7788300256816125 0.726198060602872 0.05843886086318323 0.07404828526566602
Ni 7.733811220454723 8.557773455576369 11.464673858452372 -0.41636007506326356 -0.07951393636592757 -0.9204952980599824
P 5.851004684893385 7.909836831471392 0.643419733426034 0.8250582627058951 3.123133922412311 0.265667204559665
P 0.4263839800557584 5.195746160372771 3.4568229367563807 0.8044431575587049 -1.894084904841783 1.176046240121252
P 7.071399546104233 1.1659821723345833 12.322049647058492 -0.6426297516619126 -0.4277482622955472 0.1079199983124464
P 9.135200459929727 6.68445445294797 12.054649343863774 1.2674929233690235 2.6176128748116594 0.4368229709033058
P 3.589999961537872 1.634311922991683 10.938502969518241 -0.7765420602730626 0.996164149648207 -2.1103738160786363
P 2.9209882642775122 5.455368936570289 1.357772838074603 -0.02652941374909625 0.4037979221275368 0.6941541447934497
P 5.463768965728307 4.294683657622179 7.048100715229785 -0.450032013394412 -0.3173399503436083 -0.12962576542065418
P 9.042397012792211 6.450538015981794 7.0055371299838995 -2.012609675253269 0.1669820945819253 -0.6048887854677131
Ni 8.834571291391619 6.9184458901744845 2.7693443003939415 0.10115208346099352 0.311628758891444 0.7247687843555131
Ni 2.3400362476881993 3.7680318295186215 0.20470664807372563 -2.5018281290391555 -1.4161669636703804 -0.25504237785596723
Ni 1.4476925252020678 2.9964104010813633 11.374277919671751 1.8203675205529748 -1.3234696958449592 0.2987079370647178
Ni 7.205012509898948 3.2783832548600356 13.458709530110118 -1.158421070840321 -1.217497308177187 -1.1917726497175734
Ni 0.25121149700045053 3.86489466574701 7.461688713368381 0.2617066772500203 0.8791522163368215 -0.4737082739654294
Ni 0.8140837633316871 8.199422211674516 4.969816313629491 -0.6654398075778927 0.8328844436185334 -1.7067563853930217
Ni 6.021658402263242 2.844712999512301 11.187942585368171 -1.7055780488142045 1.1414942131779955 0.4419926880297033
Ni 2.4239052888127794 2.8450786257814555 8.982859931128255 -0.7662679320405642 -1.8892345187280173 -0.4419196686999228
Ni 1.2958263730472415 5.757919986779597 5.802576079288953 -0.13461987620113589 -0.645645912780417 -0.81676234124569
Ni 4.883623201937643 2.791425314541127 8.677711996904694 0.7870984956326703 0.08239819989225809 -0.293667546427333
Ni 7.948921342140783 5.012276773517412 5.148674121977228 0.44223025796180615 1.5312734524289369 0.3125674686556294
Ni 9.04971891320785 5.965276956553067 0.8489307592919001 2.3559679040375103 1.399180713525029 -2.6802578033363904
Ni 3.964795012519146 9.189125647113785 0.9043025139972555 -0.2755615808552416 0.003907562584522303 -0.4341585366972652
Ni 8.29214128351915 0.2908744471777098 9.548013142877062 -1.8581012876583223 0.6563854106851083 -0.8700723655227401
Ni 4.725616403467524 0.32927926798777507 12.062566558845855 0.1128896836128959 -1.2508452875100136 2.554257293373149
Ni 1.6242243879760279 8.006624667439441 10.901126589778078 -0.19615691637366864 -0.37217438168498485 -0.5787298676841581
Ni 4.869232526985012 6.01084898974182 0.3219086174029165 -4.332925634415125 -1.0584709781072288 -0.8731941989811736
Ni 8.477054425386045 4.0191608262326985 1.326435854298276 0.9894049765475024 -1.552708996594894 2.005654069871043
Ni 7.405694456502209 4.75541963191991 10.222388296254948 -1.9843059432125698 0.9009921950300482 0.13670426953399037
Ni 5.144530357593474 7.947308836543485 4.945516229279513 1.5296307746191915 2.9084054136840427 -3.6355820361500997
Ni 5.98735515819049 1.2924794864295936 0.7016002478811014 0.2026440667599091 -0.0006898269781730055 0.05354270911314649
Ni 8.03898727977591 8.046890432209178 13.608875051361746 -1.8365567287183275 -1.3305937084842503 1.374813597534574
Ni 4.531421979383626 3.946110572662082 1.1076113447189047 0.5446807485192491 -1.8332855141662232 1.4399337270726749
Ni 0.7787427031564881 1.56621168660347 7.169067697628017 -0.1943319473497879 0.09905200639885521 -0.49186077650474
P 3.0881919696717546 6.6036416724322216 7.905517753979093 0.575368407411093 0.5017536101384197 0.39298720466527803
P 6.379006517683052 1.004159735619696 7.853870699702846 0.6931424156994836 0.1963690323844747 0.1821732005000669
P 3.8193601326884266 1.8616189620154449 0.22245077216678322 0.7168294749037784 1.1270867795034138 0.5645258082696342
P 4.515268798313019 0.6983405490660983 4.352192919747209 -0.2926833281371927 0.46057430768663266 1.2599827310349074
P 0.1254782480576482 2.9037475794319834 13.400036826446572 0.9366040306963869 -0.5836527589070722 -0.28266528177955835
P 6.445522373571595 3.692122191022564 2.0902628806797576 0.5613165573037171 -1.0158521149954376 -0.05418882733757765
P 0.303802617053721 8.801036799987346 2.0331408073987305 -0.020067974394468665 0.9369321034597671 2.0928139528180023
P 0.06091896146071129 2.1270167582591006 9.228211095286431 1.6907342989331529 -0.2875447213590467 0.6542781345341183
