# total energy = -340876.834654803 ev
CRYSTAL
PRIMVEC
9.20235880563970 0.00000000000000 0.00000000000000

0.00000000000000 9.20235880563970 0.00000000000000

0.00000000000000 0.00000000000000 13.46858230073763

PRIMCOORD
 96 1
Ni 3.6432966876805124 5.821108527050404 3.0015002557473487 -0.6446724931235542 -1.3529597348842761 0.21473622203775275
Ni 7.912077706006815 4.659255508806841 12.04380799406524 -0.9994788158437368 -2.07142725961211 -0.20792434132224194
Ni 2.1806645706116194 0.9523981285888793 7.314207813780944 -1.003862032513097 0.5933674150916749 -1.2136249697059744
Ni 4.3795590140937595 2.169814989534212 7.073039755077097 -0.4011000635803995 0.7102325384125511 -0.18095912558730767
Ni 7.555329860690567 9.194647267569659 2.0927884852999252 -1.8588566777671085 -0.8311605189488911 0.18665437619987207
Ni 7.851581398964512 3.2714201644242658 2.902425819958049 -1.3119681229632632 1.6054101836433512 -0.6210635954553627
Ni 4.70191764440893 4.17600283645826 8.795334831655072 -0.527461299317169 -0.4606660960694905 -0.5794847435723116
Ni 7.8985318337880335 3.238438910326362 5.324049555727749 1.0260514241259426 1.4080553903068396 1.0118615057788056
Ni 1.8217265638904325 0.2561136097028424 9.540942153474687 -0.3206656722827316 0.015662132017289155 0.9082671314249067
Ni 6.349692019065915 0.2911166220388347 10.863717741064079 0.7461122830282957 -0.22333193412656374 0.5334563405583393
Ni 1.1579420157347433 2.6258654891390982 1.0092429396417728 0.03096045293725636 -0.13306255901634503 0.27547956266439655
Ni 1.8196008189974036 1.196914005440274 4.934349903861898 0.7181085987265181 0.5854301625224692 -0.5071431565851072
Ni 5.149060260652551 9.09040294658164 3.515300158279521 1.200149560927359 0.5050960442480914 1.1293514071678743
Ni 1.641111866853726 0.8274089300581992 12.326661818097794 1.1387135651090647 0.06601384499696374 0.35455178350721517
Ni 7.945132578975474 5.566221591781504 1.8080767050167104 0.29128876178251123 0.5149335991638035 -0.3587105428705951
Ni 0.8161949355705581 3.383348455047258 4.131298697428627 -0.8635685029659516 0.013843590751311642 -1.1265579035831372
Ni 7.946006803065679 1.9548754940083368 0.886025195188617 0.7774928542221062 -0.4670390894753698 -0.504435270735641
Ni 4.8381861741750445 5.995879726220992 10.29537085648243 0.054021448521777926 -1.6937849128340183 1.895656105983645
Ni 5.0310584131923335 4.005556745944485 1.6673836811182643 1.7836940763913411 0.4318054630840563 0.30016061035084435
Ni 4.629780353428609 4.769554981914395 12.511410214727352 1.3816501608404335 -2.0281584216211455 -2.0871107317856374
Ni 3.3551616299072244 8.262273471825935 0.9073958331326911 -0.2526160278026617 0.1329147205845711 1.4297241335295248
Ni 5.439799585978769 2.0104761461454834 9.58631714446407 -1.4359086650736819 -1.2666352033544186 -1.1496785487610006
Ni 1.6685901103627496 6.953449580480357 2.0113034382055845 -1.3399952043038084 -0.741176279179259 -0.5125167621921947
Ni 1.3632558439095004 6.885352125032677 9.495525751870508 0.2220623233855208 -0.276638101748872 1.195875101921721
P 0.7019632945288428 2.7448611913544974 6.334166719459728 1.3698459691166538 -0.4165454516011923 -1.1582876305862504
P 8.954254047480502 0.6646339258770163 8.713270035953542 -0.4592522464410994 -1.1735826090721078 0.381995995761097
P 3.4190075955688473 2.6996223952760117 12.406315595782123 -0.7900835464029232 -0.11476478914842168 -0.5094756613730258
P 0.5066920005608497 5.525114654824101 11.073370481433916 0.47872938132910464 -0.7991939933446235 0.5344300173255183
P 1.5341436476478019 4.585332960210731 2.3049994814284713 0.06666433409676906 0.07041968737414324 0.09085815773415319
P 6.291155814457442 7.388997224580185 11.175259918793682 1.4556922754585122 -0.46572345598773984 0.5654694031298261
P 3.6808331094063353 6.5269754622009915 5.297449217252469 -1.4405834448415318 -0.32897444925874314 -0.116478943626051
P 2.111987366556749 0.6623379373453682 2.826583659307021 -0.019350122391837643 0.4084135665226773 -1.6364490552270268
Ni 0.7439674614735641 2.4656156122247856 9.53005944390544 3.2982265619165134 -1.0326712434353054 1.2632274632244502
Ni 6.634100121507268 5.368104008222975 6.016657732255495 1.699204541187693 -0.2732306187292198 0.7557649756267113
Ni 8.983361108504964 1.3530136185158155 3.27863021257876 1.1109011708824867 1.0363301803441314 0.16943646965968884
Ni 8.11863385262555 6.7278997652070265 9.78725525100837 -0.4463391379238571 -0.7822920753829624 1.070488057172763
Ni 0.19245261145398973 4.550198354143266 9.047237441950772 0.29444556224393803 1.7221416095998408 0.2967122467909277
Ni 0.3980581544041105 8.018861878035855 7.583390613514434 0.6531098252576301 0.3759081376958042 1.7811376285180742
Ni 3.076192121542841 4.166745263460913 0.5273255295614969 -2.284496378360085 -1.3856767655013231 2.241907854265597
Ni 7.632841329235947 7.294516606325951 3.5420348511939266 0.12722461217832928 -1.7705966197774345 -1.0444504954584206
Ni 4.248609447739639 0.5150017305972356 12.207384523701759 0.29152427483208504 0.2887045459951028 -0.923741572911422
Ni 4.4799567490848675 8.25505882249202 10.075670980726409 0.0917924966229645 1.3179253689879626 -0.1758248896845359
Ni 2.5465779653367715 5.518268099843956 12.26081433938754 -1.8306228797323956 1.1816152495685972 -1.999816637253659
Ni 1.218603965236245 5.807599464267 4.182452769772217 0.64675945755957 -0.08243085290240643 0.2897864662053719
Ni 5.387723437278983 6.537567377230759 8.160088638747268 0.2389195041521756 -0.13533541421092174 -1.1147452272189255
Ni 3.567662500339365 1.4233380448038122 0.73048968671023 -0.4124918503571089 0.8875201286855425 1.0695179799500096
Ni 0.6221687207541963 5.010629176558029 0.2927325562518905 0.12921361758390004 0.41555249156030366 0.009661434349164007
Ni 6.666869721351753 1.6560104858226172 4.610039453235857 -0.6972924333121152 -2.009116574498346 -0.8601720756898927
Ni 4.3754731667668985 4.794226505975914 6.354167126171888 -0.37241092317582314 0.12408066723270887 1.0284327798739257
Ni 0.5906193536924628 0.12584225719554495 1.2740444963295012 1.3418705669496505 0.2160001763518409 -0.3664809308446334
Ni 8.926527340282682 0.6420568586884567 6.211332713370378 -0.5159736103925437 0.7836586167131858 -0.2212046033709158
Ni 6.271159088688819 5.94207353405848 13.437631313347788 1.5142362944409922 -0.008538119377998199 0.6666389700923164
Ni 4.315823476738268 9.173472639868967 5.9877273565208435 -0.773107580670217 -0.013830221014872954 -0.5422389718469758
Ni 0.04058884415447094 4.759772874462924 6.604197976678661 -0.44612316525830914 0.5393287401787163 -0.13304533262516444
Ni 3.040348933844366 8.051843132133758 8.18448041109992 1.2138396568199417 -1.227862710571911 -1.5123881854886598
Ni 2.862964264762002 3.520785684386597 5.017801495041263 1.2366545978319283 -0.07131468838458686 0.9475983249243615
P 3.130725300054051 5.827274107476073 8.764087301963432 0.8993744569209672 -0.5823893188136163 -0.48225179266006624
P 6.2581009414887845 3.2545798477392314 6.785458679306236 -0.2012065629824341 1.2449266080327335 0.4988703750533537
P 4.544538903454033 1.8741524022263023 4.368440724138099 -1.1847530238666306 -0.6092406346785055 0.40035264389141373
P 6.063756325056411 3.71405362483419 10.579706260288914 0.5868422123786473 1.4463817966908639 0.7883891894196358
P 2.593077484576924 8.26604643895209 11.149912021357109 -0.5478923134780113 -0.3300969928989605 1.6382459992264495
P 8.793774111595082 1.6155109045489358 12.364239650438417 -0.34961526543754623 -0.4571051181911095 -0.4183380247252408
P 3.0878239031220125 1.9233390102489851 8.958210141547658 1.3969340835826975 1.871034450780223 0.9970123565811152
P 8.51478619851301 7.605519525827276 0.9759994183168073 0.8240766155189162 -1.6540549412342482 0.14156853960482715
Ni 7.460591576388692 9.027127527168364 12.990447286489369 -0.08329037268922429 0.3067560041801749 -0.09831847066694034
Ni 1.9908935265248533 5.967895352975534 6.939498804472428 0.8549128841734825 1.2229840423233713 -0.9557188971489669
Ni 7.141315736286358 8.496878408202038 8.611878446207253 1.8860383803882226 0.1761640181915095 0.5473202430246251
Ni 8.470789720878502 2.5774150698239575 7.954167454888788 -2.3406639266905884 1.0580673149109068 -2.410210981651791
Ni 6.4910034414786955 7.874752938534411 6.108338992949299 0.6387651265001838 0.611276948382244 0.1738834496874489
Ni 2.4204780420935865 3.6239165199544563 7.443291141761444 -0.6816297870741937 -0.30212493316606676 0.7388610007825211
Ni 0.6278152881410473 8.425845400283032 3.883302488462325 1.9069077676380644 -1.1910527408324132 0.014029481509872613
Ni 7.781790709489482 2.160686249560685 10.239139842764452 -0.4870607840129354 0.3826709103409345 1.6304373018153082
Ni 5.734652365708382 1.6850807374117014 2.1164661546062606 -0.03970503189910581 1.7521019034073566 0.32932283373709736
Ni 4.554560272235454 7.3779820010435815 12.629247339964257 -0.28315327715957045 -0.5895832654588943 -1.5265871026968612
Ni 5.573178575067781 7.442950654484206 2.0203815652054677 -0.13880666058897387 -0.5361680830625476 -1.1806821962313665
Ni 5.5577186122093885 6.534769860142097 4.348156884773535 -1.709369654646153 1.332448245194486 -0.3355248487827512
Ni 2.5284309136958485 4.061295433464296 10.04333297151172 0.3566112371394052 0.09192053756039653 0.2988262078101369
Ni 8.897530707564353 7.011120763357468 5.6663938689809275 -0.2692947740099233 -0.2519295432585984 -0.7499571106956826
Ni 1.4215159777526445 7.468542414430152 13.054207670213739 0.12858189753717209 0.7838661047383017 -0.5581741550199936
Ni 8.385207783626687 6.857165299892643 12.354690362665705 -0.35135358828489166 0.904328972712765 -0.4092391477477662
Ni 6.163721549181837 2.207627482025363 12.570241815054725 0.19721672509675067 0.6213335612872978 -0.2764488685562013
Ni 3.129933897193443 8.044766518182506 3.7012476222664885 -0.867356509253474 0.20175292240420736 0.5093152245357616
Ni 9.145442254829288 8.99498368772529 10.971183807883481 -1.2453431267448618 -0.08888586449913079 -0.16229857306332693
Ni 5.345668657360618 3.892680612360532 4.30779165793898 0.22537339003662477 0.13990863540390097 -0.5532098690361827
Ni 6.562413746110318 1.1788957868231715 7.084595157077862 0.10286443816640994 -1.0137587228015186 0.24545113462310628
Ni 0.8948272514231719 3.2188286836291993 11.834331938985214 0.5552304990106374 0.9934218110163794 0.4400491911500873
Ni 7.038000853541614 4.6703995653672665 8.400111924010885 0.12082256530672741 -0.7102898740130477 0.5021536737903158
Ni 3.2579203039997053 2.707886113518176 2.801505390984586 -0.7253341699406799 -0.12611672382613118 -0.22751100520491788
P 4.129954232801477 6.027360995827278 0.9322458829557879 0.7424474325821988 1.0315314734039074 -0.6688123235945514
P 7.9209947917269234 6.527352758913606 7.591741754165619 -0.2646523901419055 -0.20313694723592757 -0.25170868549704395
P 5.250617492858038 8.663257056106643 7.928240729080911 -2.2511653683081234 1.3985232824466882 -1.1089905841233352
P 5.625990912475111 0.14732884486105705 0.7031559202350617 -1.3339294577257026 -0.3642674681330823 -0.3234576332055719
P 7.067568032508288 3.829322371717656 0.7127226924895763 -0.7091323633698366 1.0369361893592466 -0.3628104239715816
P 7.061384047364932 5.231071682672784 3.7925506660117927 1.2397676895396132 -1.9974599640960247 0.11483806558851835
P 7.902083944301926 9.074160783221485 4.408132338305252 -1.6388409524979712 1.313435708647725 1.7054754617980694
P 1.8253338885573906 8.457105813277057 5.9137045022133305 -0.14009735437593937 -1.2267535366681324 0.11102074872495718
