# total energy = -381171.3940516655 ev
CRYSTAL
PRIMVEC
9.26560056895974 0.00000000000000 0.00000000000000

0.00000000000000 9.26560056895974 0.00000000000000

0.00000000000000 0.00000000000000 13.56114301392886

PRIMCOORD
 96 1
Ni 5.1791462623404145 2.782793326677467 4.0167563224830305 0.17252205056354802 -1.1792043261342595 0.1881949812141146
Ni 5.716115595557008 0.2833948705841425 2.3489936729350465 -1.6434244581035953 1.8180648405617268 -0.450589685670095
Ni 4.745506903482894 8.515058863528223 10.931406964602475 0.7907728591604639 0.8658259315415605 -1.0063508603732219
Ni 8.091000135363608 4.383768602823582 2.8321363544260163 -0.1252636317972165 -0.7067034422133699 -0.41206504723233556
Ni 7.599589758739873 7.778656749814433 10.684309156568032 -0.7883053714565778 0.7976860413405295 0.23301805106607612
Ni 5.951350655548777 2.9075731656923223 11.453157549353794 0.7468293636999783 0.6147564222904123 1.7774262411047583
Ni 7.433568732864164 0.9350380525866251 11.142620955859854 -0.08241105540806452 -0.5097116886432318 -0.11641800848112854
Ni 1.1319413242064869 5.582941122685507 11.71859012722878 1.8478341014043596 -2.897095645098178 0.013318057265144805
Ni 7.29565953824791 8.148854543532373 7.315748286222077 -0.1974794918398341 -0.2690590038500334 0.5574439617221884
Ni 0.33131192244909546 3.13700795990676 6.4131592923875065 0.23462267654903465 -0.4403428111311062 -0.3649554953390424
Ni 7.92642454313209 8.556457565593892 5.030654825640632 -0.7385005321193088 -1.2756911429090998 0.12205026706624142
Ni 4.603520844741999 5.210380600895331 4.692263984575114 0.21459378292261752 0.8054759696985934 -1.0421485867981213
Ni 1.4630382847290107 6.551483585896452 9.23634507693988 -0.27126655302431346 -0.6527825238251984 -2.1284705256793472
Ni -0.17953583044889262 2.185217702007975 9.769663763644866 -0.16248652070441694 -0.050485924564693696 0.5090558002267878
Ni 3.274287093703752 1.6751556720140088 7.208791755912128 -0.08916071542707225 -0.4235717623203544 -0.8177943820546302
Ni 8.610179516036316 6.382516099130663 12.65599090788764 -1.2702928547116639 0.9013071551673058 -0.6245608099753437
Ni 7.265055260512256 8.04334715310673 2.631702889098227 2.411596549145408 0.3418991277402112 3.176234401781717
Ni 5.870749198684574 3.775861833838239 2.032286189652448 0.05025606794207474 -0.15977632086210547 -0.92131033776211
Ni 1.6141416941486475 5.9732545346184365 1.9800356165350077 0.6990042737968994 0.6926281950672265 0.3296966721367483
Ni 6.759357328251711 5.521649176811647 13.668546825564194 0.9528382331670622 -2.371147954212058 0.3998427941345307
Ni 2.1767396777487793 1.4859150518284148 13.197066755149782 0.6528902530476562 1.404247072304343 -0.7629776913250667
Ni 2.4707464403373556 8.838344923011945 9.412341448080563 -1.6594010360375098 -0.46033828041642655 0.9363345790850842
Ni 7.396802830940132 2.1040139811253593 2.5756135777834257 -0.09693855960027821 -1.376199165028191 0.7866914900022387
Ni 1.593182906307881 3.167649300043548 11.223255768885078 -0.009817757421370189 0.2832679483605638 0.47533758203873616
P 1.6304676818477768 0.8976810053645198 11.127459654116333 -0.08998989619658695 -0.28151779843867647 -0.693206950388832
Ni 2.6646476574654367 2.4993215516109735 5.124525548670511 0.798571015048644 0.23672609604528266 -0.9820922449361731
P 0.9418667999953982 3.125425959552667 3.7437704272571186 -0.42991544515019514 -0.3782488700138389 -0.46773303021860096
Ni 7.072330774620149 3.4273733415840097 9.59500997798523 0.9919213152114529 0.8772053770230958 0.045605199433624684
P 2.6662228095135934 4.113463245759621 13.57822946024295 -1.2056167546895173 -0.4504966117356564 -0.5558025694640234
P 5.345991926641334 3.6739587619227883 5.9460590712269985 1.1415628616324016 -0.654351410974215 1.319895605340456
P 3.6049671022135286 0.6840440596330644 1.0795906826059871 1.1617771317967476 -0.0975265708932643 -0.2776824838529863
Ni 5.13060378245634 6.669249365496869 12.723538987072764 -0.8428304990876517 2.065195933990417 -1.7605970853625614
Ni 0.4910934930940473 2.3999201917720074 1.572997796090768 -0.6226412243551277 1.9794097914625328 0.6850627240151428
Ni 5.6607999618658615 7.281427576212801 9.116084997743206 0.5965465841506048 -0.0824341953365161 -0.4057612165014947
Ni 8.736831006308392 5.918031556930122 10.135055490495871 -0.20453794134851225 -1.4861210242620146 -1.0107489894409174
Ni 8.40098079284055 3.6750984307576315 11.988334915475601 -0.609431410533073 0.6146576919290189 -0.04490380249122589
Ni 9.081696648851862 8.958575352287713 9.228344231095273 0.7831575087070513 0.04284974817567459 0.8037386752925124
Ni 3.7086213725825172 6.083348397184302 7.975484043511972 -0.945346038555075 1.1147069177818223 0.7431269751477266
Ni 9.519385075033174 5.3673306040937145 4.309174961183054 -1.6906985605992109 0.975134068450785 0.5494606864063957
Ni 0.537685564118492 8.043569527513528 7.248457790724825 0.026611946160573528 -0.3722561427655138 -0.4472202549772298
Ni 5.011744662022497 2.8979554725982837 8.505657058920784 -0.9907584052516033 0.23022788991544865 -0.2893545208742759
Ni 2.73896703733758 3.781699162016702 2.319755144681146 0.38633833189019273 0.4626962391256419 -0.42906698110697067
Ni 1.1449409614039208 5.550845083304245 6.6617210652667085 -0.37352292529307934 0.8282767696431929 0.08780420139917781
Ni 8.466627570847548 0.21858755596280877 1.1157172581104735 -0.30551853222864805 0.312958533446461 0.6755303590446753
Ni 5.610802782737313 1.0990299120002966 6.648905813514911 -0.38397883051908066 0.7127334504575338 -0.4131572518552497
Ni 6.54813870419419 7.8648731604503 0.6051521060211255 0.11416469367057759 0.3624414706679371 -1.9581264566037246
Ni 7.597782966684635 3.969966894172552 5.343619006408787 -0.46459602725151605 1.5832706714318345 -1.7472180929524943
Ni 3.8746146016573766 2.1598577540326533 11.22500511421856 -1.5783904605213979 -1.2124638595183377 -0.9036278328806825
Ni 2.7766131712885236 6.504210493251186 13.122562063271973 -0.8259756323138421 -1.5798909563263241 0.7276759306999789
Ni 4.4005949329380085 0.0011674656356925606 8.473435933935699 1.751302804544829 0.5972130140900103 0.8687647024549101
Ni 4.5124863219588285 5.074815603150745 0.644018519529376 -1.1952492954122642 -0.4119789152764325 0.7779667085347312
Ni 7.631361502111221 4.900464802620373 7.842056619752737 1.1010926694324972 2.5226977733993134 -0.04987554467420442
Ni 2.6130382638875993 8.077713264557394 3.270283427821349 -0.3000950472202315 -0.6152282197205082 -1.6560483175151928
Ni 5.726854426285324 6.124311616036658 6.8938067477221905 1.1085812645000586 -1.2128572383020144 -0.9670469205672765
Ni 6.804740238439188 6.372240548416511 4.348190550855866 2.114798170398577 -0.8354480905806514 2.332115522899945
Ni 4.415030738179349 2.5374865591777804 13.554619784161137 0.23341760049733992 0.641662759762953 0.45828062655644947
P 7.847574284721426 3.1549461620551793 0.7558422696681285 -0.22676409973656428 1.0327280648151698 -0.779296225979432
Ni 3.1884783694803485 6.748201545510649 10.62407070944638 1.2031752351275602 -0.2704985645100374 0.3656916021741186
P 9.122066869286089 1.2601309041255868 7.58080097448545 0.14420263479356457 0.18301446545443964 -0.03709279108723934
Ni 9.187991615301584 1.5420923863459066 12.667558083281278 0.31683138613830597 -0.44641575679806345 -0.1845861808169337
P 2.6540200139405212 8.407457447438558 7.071688668520518 0.7230875399983483 0.4223908546383758 -0.21778220795292813
P 5.610561877129948 1.3661571681670943 9.944602929793223 -2.644206823250104 -0.13144147847315427 1.6771493611598665
P 8.007563404812723 8.568021034747419 12.682367292214037 0.3001269288994315 0.6747852533485347 -0.13978882199658504
Ni 3.212457743013463 1.5205035376858775 3.0108308683691876 0.4653195356811019 -0.017355460559312044 -0.07397860836999517
Ni 1.559502449278179 0.5473088165727007 1.6520593101878909 0.2683138981538928 -2.8525319995551905 0.9345191231429002
Ni 0.8445427877399416 7.776080912935682 4.862713967386229 -0.4247339009492556 -0.19618751250128794 -0.5624280452003411
Ni 2.269451274183222 4.656677593567143 4.616592753621641 1.1953873636520251 0.6659612272990014 -0.41141070147778824
Ni 2.9353236385407286 8.585449628880259 12.46085921904194 -0.6873867441626291 0.88581548728961 -0.7383902317936897
Ni 4.084573104076372 4.6755979493455895 11.661701194609533 -0.27369367440856734 -0.6984905673852745 0.5848156688669218
Ni 4.998856212028462 0.19883978207906627 12.991574272067323 0.23104781471358277 0.08071824108667389 0.8925458640349079
Ni 0.9405325535546066 7.682062866861298 11.161633967641134 -0.42389880664247 2.5467573854516785 0.20502208007378236
Ni 4.913649751823472 7.651189886717428 3.950103300285269 -0.5064440736355535 -0.6244510238703569 -0.26980076711206435
Ni 7.079159522028923 2.9281613295217577 7.208384996059693 -0.30514829337342286 -2.273585902095168 0.7033682071925499
Ni 7.1723529296780955 0.9393094943172144 8.788854572218893 0.6842373999003699 -0.3804551336365383 -2.3092892690340485
Ni 2.9008648710872316 4.199781577998604 9.355059654009303 1.0334816551517427 0.6323219419780013 0.2470886702265293
Ni 6.886425770536535 1.4546529164726472 -0.220801107870483 -0.4133667967628945 0.8806840796003155 0.9626197380338584
Ni 4.835929896647368 8.186500677483316 6.512264153017409 -0.10682342281415798 -0.941251042550095 -0.876424018772381
Ni 6.707330982661126 5.598247894353476 11.192661683309733 -0.9555458619062124 -1.0999932657207312 -0.32602667948432884
Ni 3.408962593821144 0.12278217559378093 4.880533569851021 0.524856000483838 0.8116319619976602 1.9608191729445392
Ni 0.7451720043819099 7.994591564416139 0.1479373538028423 0.677433489604659 -0.39542075380743513 0.08711411731068869
Ni 8.489717446753469 6.292519323579219 1.5663793778084252 0.017207365017221976 2.0414366267872905 0.7024505804742871
Ni 0.26595979053110524 4.661504971314729 0.468754130811073 1.2532960630433512 -1.436784897031048 -0.9378404742066494
Ni 4.184873227142816 7.826300466471029 1.2618709838587856 -0.14098052831184107 -0.27120278966591355 -0.39998677591156273
Ni 9.188566082519147 0.6816841112409144 3.55023890758034 0.3295909997968195 0.3483225147680517 -0.3067318358104588
Ni 1.9978116706784694 2.0209664057863717 9.036318371464526 0.15084045182505634 -0.20793539706583544 0.45153816562629334
Ni 1.2041759440148934 0.9089748455498027 5.6206863985594815 -1.2629492698623992 -1.0231478773259024 1.381001214402525
Ni 7.429834695950005 1.4813934388901768 5.195110891628495 0.7214525754980866 1.260289977862681 -0.237450632916133
Ni 3.37765413046396 4.169288487466349 6.658996052223396 -0.30267849167669164 -0.3323701052038534 0.874778512749158
P 0.5278769996586179 7.948421078204584 2.6211382516552373 -0.9971576239097278 -0.09746049354201924 -0.7753405837657937
Ni 0.6896812508454085 4.157132019894693 8.503474083494046 -0.22346048928462803 0.07985666441732699 1.065198012418417
P 3.885418291587674 6.076788352183743 2.5747861596781294 -1.2666328893615733 -0.687208566713552 0.98095016091193
Ni 2.882333670520683 6.8776697782688405 5.357302444907127 1.1674294449865183 -0.14408744937193893 1.1564621473417374
P 4.984800296398735 5.404355942825679 9.837957723652794 -0.722907305666742 -0.6461979286291452 -0.5638969164363837
P 8.283520778049482 6.4121382232362905 6.172829078799967 0.08283425898841218 0.10908187983103149 -0.1793629847447814
P 5.820826144358291 0.16833464626644232 4.569427141939662 0.08372668889569453 0.9501478308190926 0.40006210923418845
Ni 6.036760958959999 6.13020453781682 2.3201897013344315 -0.5788622794969643 -0.6737647825038203 -1.179051088385847
