# total energy = -340870.2527931652 ev
CRYSTAL
PRIMVEC
9.22561081164076 0.00000000000000 0.00000000000000
0.00000000000000 9.22561081164076 0.00000000000000
0.00000000000000 0.00000000000000 13.50261396186746
PRIMCOORD
 96 1
Ni 1.4050974411148736 6.858817319220882 3.953538678344938 -0.5573819981360013 -4.044165552591739 -0.04831282817277486
Ni 7.697453026028749 6.3170433196577 7.101335565513214 0.8286922599140568 -0.1321981541335207 -1.4146669820860864
Ni 5.6364792298530775 7.921294023072623 8.13749898198217 0.39135686815070664 -0.38078243506897 1.093853985592213
Ni 1.6633499667814922 7.96850147400093 5.8962133886287615 1.0746984957096846 1.0067910332344339 2.3674028853473295
Ni 0.3902774754418221 0.9445180430017647 1.504002447792047 -0.4531201654014326 0.838864315351052 0.15828405258729514
Ni 3.9059575901755528 0.2941281587377355 9.457433886402828 -0.14248102411676752 -0.4382116237207162 -0.9514858329042258
Ni 8.667784328303018 3.043870380483231 13.012766599306378 0.20295954111779888 0.41831925567216344 1.1386066072175551
Ni 3.22865936662628 1.7469063246196146 3.3710225359657326 0.6288419538492008 0.29331016308791424 0.9617905572643437
Ni 7.415850479197475 1.2558178312905763 5.583627550181769 0.5346904700757565 0.4106871930482024 -0.4139442665329193
Ni 2.9831566352107695 5.152974188676291 0.6025633948449488 1.113702644887024 -0.9855064128240447 -1.043339521782429
Ni 0.7083700810295419 5.320169934850553 8.803610229765237 0.02536958911304018 -2.6582005664260344 3.5355974906346463
Ni 8.488226263535061 3.484319495632579 7.042977118701177 0.6514249813560393 1.0801250660418946 -0.15045992855718604
Ni 3.7306156295847 8.189537885333996 4.315030402685235 0.904632362885797 -0.5343264018681185 0.5130785482329357
Ni 7.801342630270231 1.9053930941129464 11.240048860536435 -3.4497483560793105 -0.024701616511738102 0.9123880955718157
Ni 4.019238866303885 2.975425573284266 5.765022434078087 0.4644065369485292 -1.0863026556075162 -0.9551961918762775
Ni 3.4081713033397825 5.893154176057367 2.8331315960264942 0.20915949928092364 0.001658875759661659 0.6680443350802752
Ni 4.463894860019446 6.626802430927745 6.506112989254087 -0.8931408173064297 0.9055060237400018 -1.4070719433476477
Ni 3.8534546385959176 4.299392992225301 11.783406897489572 -0.3451322899655282 -0.014268594103872198 -1.001035104587263
Ni 5.382258296145746 0.8915178309951146 3.9371595287693824 1.133807386056699 0.5059964445751737 1.2034313170024242
Ni 2.988867288352185 1.5609733627261044 7.496988804421114 0.6767302928900474 -0.47978507628712863 0.4232935689583032
Ni 8.090648562195337 7.138104237718562 12.133327860650608 1.7395065832408494 0.3495381323427077 0.20671695127770207
Ni 1.4870116402144309 9.090058989997457 9.284059748614988 -0.8029472897394687 -1.5860832011799653 -0.32034454149788705
Ni 5.375929527074646 4.241013326508217 3.3129473154080444 -1.4988752386038895 -1.1993406918728184 -0.37285083892671916
Ni 2.448218813317682 6.83640831036709 8.172132847827381 0.6922049914868789 1.4673278028149115 -0.07375003729895685
P 6.199896512566116 5.711492672006305 8.298557851791859 -1.6536350800880104 -0.2828933386299644 0.8067535508594363
P 2.139004013090195 1.2002335256734085 5.343510730404319 0.5874883306030786 -0.33229502899154384 1.1751373551537374
P 8.7499752957293 4.513814640549652 11.290669787494345 -1.1151733158952795 1.1308511316418524 -0.30398872584768294
P 9.376080604445434 7.49401908027536 7.926655948122366 1.8481277213853786 0.5380118211395057 0.43970492043679116
P 7.368071040393938 1.8883349395758273 7.776128113144542 0.8316806531184192 -2.593389226377605 0.6387589558525968
P 8.750353545775823 5.980363875808253 5.021433583472855 0.04093479054114886 -0.8383135850539046 -1.1166812678993734
P 6.306157098806536 1.0256849676191657 12.82328362234208 -0.6920242429346404 1.4287062337879717 -0.09211311318717684
P 3.741455722381409 8.56993749919502 7.2432614408964415 -0.496883426530312 0.3727937604365386 0.04729621398280241
Ni 4.083209252220805 4.682338874692192 7.6387799858853365 -1.7407173157194988 0.023303450612630835 0.057444872381030104
Ni 5.549823066755641 1.6010770932684826 1.385719045438714 -0.6184459553268574 -1.2652316381386726 1.1025854519279397
Ni 6.439070474910526 3.959964316330391 11.543128629521531 1.4851350061996615 1.7512410980689581 1.546573058900485
Ni 3.564665340880698 6.613277685361808 11.710546712918262 1.3099390083483762 0.22614035010963635 0.5603662775753059
Ni 4.363547890360038 2.730725470016256 -0.009467321896155604 -2.1796737880260397 1.1772574868205337 -1.0159601013282116
Ni 8.992904081706271 1.5054075083307183 9.521219760101932 -0.02061947602256449 -0.5371664424200748 -1.745335531217801
Ni 5.792050706304912 4.841452985726099 5.710390211504852 0.5468787846118324 1.3255160368510268 -1.106224591342424
Ni 0.9591498618745992 1.9884973970174191 3.768053158579632 -0.9389848722237378 0.6093699611675184 -0.8785431219979127
Ni 1.6838861766244488 2.9379419162348794 1.049763812044196 -0.5853149771008436 0.13040866633326573 -1.1810727468015658
Ni 1.5400865796692966 3.15281561949288 6.325921125017932 -0.16731325266909894 0.47733738607758436 -0.6010123332314423
Ni 1.3981690073358706 3.727128348667972 11.788889678041985 1.2877694142298726 -0.5070179438611525 0.15837841207331432
Ni 1.590818213957895 -0.3313931688090095 3.752660226808305 0.8450280209596027 3.4708311448915388 -1.2385520719649572
Ni 7.3347204570236375 7.188153176801239 3.5140822389274415 0.2973719918621137 -1.0026618415574087 -0.463246455202157
Ni 2.203952313761541 2.077865889716756 9.86156638428048 1.7514930661787642 -0.5082271336779054 2.3946750907997214
Ni 7.8032154292810665 5.204812896271787 -0.18316251094299799 -0.06800387884379902 0.6101227801731428 0.5974086750405839
Ni 8.037582848351361 0.08664416980327869 13.490299902553538 -0.033043560718530186 -0.827673074620923 -0.4814830328148418
Ni 0.5143148913077572 1.2669623692466825 12.094088569848699 1.6188894490767085 -0.7677838544644583 -0.4730009634857596
Ni 6.112843648200374 0.955699483401434 9.392634118066825 1.3550587835051502 0.5329436625879789 -0.9778787210754578
Ni 2.8042166863724987 0.7623177632746788 1.2909563380515172 -1.0837924875911529 -0.03967777820559619 -0.7259604906707692
Ni 4.168186354136113 7.405047288844329 0.8610336449285906 -0.8200068163249168 0.24999144569562107 0.9155736923886489
Ni 8.423416347027079 6.6587322702208604 9.911161423307329 -0.8052021472119165 -0.38300772485506296 -1.5053279362077687
Ni 5.946976389994388 5.966811453409643 1.8847221903509837 0.031174368720275344 0.7635908994290332 -1.4755491622834394
Ni 0.7236735243752278 0.9503301778629789 7.2989463056723185 -1.055210562188402 -0.09857018166643024 -1.2474141503412775
Ni 1.1770495655047875 8.401699258990096 13.556354353970693 0.783275008121522 0.2801988225169368 -1.4783478080744992
P 5.170419818870824 6.393016225343572 4.080395440899106 0.8917915023673868 0.4261186971119241 0.6873589762484871
P 2.107858350722799 7.102401123571103 1.475403976591606 0.0647635175296304 -0.7325833953039255 0.20077847430608
P 7.611534911802578 7.182746968819221 0.8573240267893933 -0.4364036239777 -0.2100375310105028 0.3076566616175734
P 4.560265591384912 2.4007530452844326 8.972608660307566 -1.3552109928122982 0.19068663728771676 -0.43760175805085927
P 8.70442845476134 3.252489119557258 1.6799145511359526 1.4852954430369258 0.6657452546334535 -1.2685187935303766
P 0.4638609479069723 8.473419158055302 11.398745051396991 -1.2021475651939943 0.011228521725967758 -1.0176732273645763
P 4.957511170732567 8.339186519593925 10.963987215606187 0.2862974792155069 0.10176272046179893 -0.024278412931390447
P 2.9836455925879832 4.835926844802501 5.8391511401468845 -1.4416088007822527 1.121436523196172 -0.7646273111133477
Ni 6.538208889543237 8.928979823843807 2.00519206248544 0.8621569673304054 -1.6482180228374972 -0.08344386754795306
Ni 5.34239443148653 0.8098001374075318 6.744434505152187 0.027065488758224357 0.35818680915664114 0.10405871558482722
Ni 1.415264064316553 4.466865506726288 3.772725007934741 1.3495553371884177 -0.9239341485382023 2.8839112851974202
Ni 5.122123745857401 2.286023348246242 11.22547885325657 -1.101524614763593 -1.9536424526904417 -0.4317082753845598
Ni 7.51491508894306 1.9629701316825303 2.7753276084289964 -0.49444704917467747 -0.8776648331580176 1.3738728308878596
Ni 7.706235807596806 4.592721290498804 2.93237610518445 -0.051330274842859985 1.335677550765061 -0.1777521886142358
Ni 6.032313290734439 6.396494280649409 10.677056878485466 -0.09216762057419611 0.057619707395997546 -0.9619507369912917
Ni 7.374953346118486 8.692804185038911 10.472236323415187 0.38409041639628044 -0.14908284570400132 0.6981735503654879
Ni 6.602594427950244 3.4358850384557944 0.7186077414350805 -0.25369383424787273 0.8544464860600252 0.29530791024423336
Ni 7.719373077505328 3.709175309874443 9.426674777131758 0.20242603721183206 0.6672904876333863 0.24586096846701527
Ni 5.93704040706498 7.450667934699415 12.853232722976937 -0.18491913867632023 0.9170857581578012 0.09542983626523564
Ni 2.7023936189705595 8.71077567505422 11.255751772833696 -0.7076622065822135 1.139972120106514 1.4600664932668082
Ni 1.3659623997160313 6.603046482883893 10.943653046641739 0.06882071831813955 -0.7352506577234433 -1.3435494973139699
Ni 6.010079568487572 3.4571685227809072 7.468282393573251 0.10071910968863299 -0.9605548850850296 0.7543202727603847
Ni 8.541753257923578 8.245611148328376 5.283843169406875 0.67523982438745 0.16623287512072663 0.020111940258526653
Ni 0.08973567201279121 7.642163939960088 2.030239596054006 -0.6414534719656243 0.2515027401338249 0.4690512348093922
Ni 0.9279765226745311 5.702119451341236 6.803467344120341 0.1998896439432235 -0.4324153287539134 -4.844410355798379
Ni 6.174701369223296 8.209225338974997 5.2902835683697536 -0.8537458604485749 -0.4527375852510332 0.7010590994433991
Ni 1.0073721300008955 5.842699310095493 13.060025713655673 -0.5155648049898991 0.1372125766289766 -0.081558220489466
Ni 7.774468425745283 8.787385147891559 7.514150285800211 -0.32875924792414346 1.764737075672864 0.3465366265122225
Ni 8.667775102692127 3.4595671816125195 4.59272498074316 -1.170059683520514 0.49203741129192036 1.9816643918246646
Ni 0.9077004750586952 5.204914377991586 1.8466176496886455 -1.4113332897271629 0.15598137259604752 -1.0344381055277412
Ni 4.257831615162175 0.2041203312036652 13.018653461615807 1.2156188602075515 -0.1988000104234705 -1.0886068782606606
Ni 5.100212919991713 4.390984857149325 9.564954691090934 0.219113525169842 -0.23211302275330345 2.726478781977143
P 5.047184108591301 5.487577870075304 13.185964527926204 0.5014252802647235 -0.9735453838074265 0.3546096333283441
P 6.120002722251647 2.9227750119303777 4.83045236729989 0.8947331014942138 -1.2100848177631998 0.09473872373548199
P 3.0543045464007443 3.685428587441482 2.4420284284099445 0.9526343446863722 1.154753906401379 0.5952237515741233
P 3.182826531720705 5.655871463945574 9.752627603198455 0.002694773223343746 -1.010996329565033 1.1127706199910579
P 1.0339880174209004 2.979420262799989 8.540727369992519 -1.0956910388009518 1.5376364185324873 -2.3159440553464052
P 8.842268307081024 0.18576966858074265 3.359477606496965 -2.3493282872338055 0.0994178743787062 0.7005757320490774
P 2.500601831955737 1.4829615970333625 12.694131527798278 0.8409271114173517 0.9386300599874803 0.22346974525600868
P 4.325981202812634 9.097384125044766 2.3806596647642344 0.7862364047426911 -0.6726967462506221 0.07998136292064936
