# total energy = -381170.8469568607 ev
CRYSTAL
PRIMVEC
9.21359898363955 0.00000000000000 0.00000000000000

0.00000000000000 9.21359898363955 0.00000000000000

0.00000000000000 0.00000000000000 13.48503343741223

PRIMCOORD
 96 1
Ni 7.028566430626685 1.631590196156669 9.67711591939407 -1.2116657890970746 0.10280453146275197 0.21556874524137715
Ni 9.001446764547904 3.2517923838289966 12.41792209728327 -0.16983884730443008 0.20286132497703768 0.6836853840516419
Ni 1.362479393720867 7.718950624591252 1.8093002528268025 -0.2642021899783643 -0.7122128020673735 -0.32952955043126475
Ni 7.347246396206304 1.884494277780208 3.020027062614539 0.6402548236718328 1.0331669521248013 0.00552118692854533
Ni 6.181302284831304 2.7727773667570523 4.8222346868561905 0.5699235822464378 -1.5916493824138331 -1.0003465631606707
Ni 5.307862304000313 9.123923137349161 10.443969300427119 0.2880208896645169 0.1989643039154767 -0.5397192907489156
Ni 5.201039836065477 0.6521136673938471 3.5068635039602354 2.2955644632487884 -0.4732781284065462 -1.1051218451965483
Ni 3.2806125218055504 1.1528147326612563 4.3418836979151285 -2.1327418993611915 1.353642619883914 0.6630954757154321
Ni 0.9485953086681878 8.584973658148865 11.054814336103965 0.098185801743818 -0.19398099176827235 -0.1026312391096813
Ni 3.6158677521613267 7.711275696543148 0.14863101655894365 0.39516287216035817 -0.045356573757928335 1.3289926825457177
Ni 8.110906343792205 8.583029588739322 8.663891819857424 -0.11191729239729759 0.06857723484876577 -0.8479423663929204
Ni 6.545884401113989 7.6218208629068425 3.78302363106543 1.2493000545100807 0.21657533212902058 -0.4773021619642748
Ni 3.019913735345641 7.570713028713766 11.353710861701723 1.2093530818034977 -0.3700233967802531 -1.2140635999052898
Ni 4.208514086901059 0.37449594891144916 1.298376699360868 0.10352032658285398 2.0765609812942496 0.6043750790560882
Ni 6.623849876675883 4.82405621539774 3.906910605888494 1.3342611300335088 -0.12578787973180272 -0.5309297174817437
Ni 1.6752995102745627 5.293037623052655 11.669584364996286 0.4005465050697747 -0.14356628676114627 -0.35350148786582997
Ni 8.935099637447786 4.897811076172137 5.390615165653196 0.9860018644032246 -0.9813219424290519 1.5853779475828245
Ni 1.3430571268236242 5.17306734920588 1.7795255859837618 -1.0857398411255108 -0.24906507722660975 0.8088726540849682
Ni 2.9709803105395425 0.6022450622793655 10.373686123792607 -0.08387889820284264 0.047734329961485536 -1.3242849926574032
Ni 8.535809893365332 5.9439968264796015 7.746733311309443 0.5712469290435517 0.7898704019508526 -0.23098636534802797
Ni 4.933053092719554 4.82647017836125 9.786263899741082 0.8546848273230765 0.5744821481513976 0.6802069385847382
Ni 8.64842771513241 7.757177847246214 5.7389739766452434 -1.6274072567397326 -0.4393197691832305 0.1889657979418681
Ni 6.901538539871329 6.143277761356483 6.038651815446459 -1.2375354577749849 0.38485300559391783 -0.3555038630078393
Ni 0.5591678010595508 4.033676830429483 7.777695611076134 0.4349326958591284 -0.8518280746005716 -0.4731205197827594
P 6.610582293975678 8.02690596082154 7.104374081279974 0.2829779279239707 -1.0220944963607237 -0.30839688221770756
Ni 1.2756780766246025 8.30147121392298 4.330327080567305 -0.2734987847889419 0.18360787606406445 0.9258619616885345
P 5.923846685253667 3.4415833116355934 8.494451889737086 0.4275546582275023 -0.7117034665311227 -0.45168574694775115
Ni 5.0843496034973645 4.350403513000462 5.920995076333034 -1.6027287801564463 0.6332665652794578 0.5760127258633112
P 0.38094454691969404 7.08062326552679 9.366354120878727 0.26320922993747575 -0.22990135981396537 0.45110699162614576
P 1.981596398667325 2.0779614316266533 8.239881068036834 -0.3145816708721808 0.7334871380651173 0.8952437225820453
P 3.9767736424041646 6.315995890035666 2.332183057921115 -1.5264384929341388 1.4218776409019125 1.2954217885688077
Ni 4.730206494991992 2.2184319634650618 10.84428636080893 0.3821878000569289 0.3312550177628037 1.5541570418953299
Ni 6.5416553591283 0.7764972552082584 12.174004960219301 1.0973679122827424 1.1248108389850433 0.4936726329024982
Ni 7.443786487548482 0.5016933698901953 4.952783093826649 -0.6486103947253797 -1.0547400503098867 -1.5005109744350995
Ni 0.43661311266596614 0.4314820593286442 6.533081183808293 0.0348908983399141 -1.172243321435394 0.28345975265639567
Ni 8.81406058610572 8.315052058992494 13.033743397832604 0.48450973545630743 -0.6036705967898959 1.9235320064583068
Ni 8.970396935589788 0.6918252008633948 1.705020738242839 2.6936509368138446 -0.6879608714985442 -0.6745870212947994
Ni 6.905509601082294 0.1280017681799461 1.5593150393973083 -2.0005332037047094 0.05565641302203963 0.017197337714892964
Ni 4.590574400671444 5.78721822423886 12.303339936188635 0.923499632103945 -0.84977736271913 -1.2695251233077038
Ni 0.4678895961618773 3.189794075502835 10.195130258725337 0.7507798637072941 0.47156140282575565 -0.40292734659712537
Ni 8.113292665958422 4.989246833614375 1.8081808005364728 -0.9854087109039159 -1.073283360529713 0.7543814650156233
Ni 2.6539864335947407 2.759454502462264 1.5942815693317136 1.090425419526638 -1.0546215224541513 -1.3818656192853491
Ni 4.018225624743204 0.5589162698041927 12.483257571202497 -0.08474587418882824 0.5858312546156298 -0.6843183896499505
Ni 2.01694897840391 5.518660237748899 8.900216951265168 -0.8852236193418819 0.5356824016753806 0.7222802136057045
Ni 7.036093941089231 6.615990676645832 13.038085767087189 -0.013611420135847525 -1.6170670511559895 0.19713804934001533
Ni 7.3720770457736995 2.039872412958151 0.5896021615979629 -0.18223567830688614 1.980421520556499 -1.138186231850685
Ni 1.6690619036856476 1.7968545231660835 11.865076667924331 1.704379657630729 1.3704887449069754 -0.1925655994779845
Ni 1.8172165771712574 3.488664803023122 3.52009238954423 -1.2974650442510816 0.1264532812299435 2.176252935269949
Ni 4.82793514061773 9.069489193881935 8.13406472512343 0.8057904156152187 -1.783132033240284 -1.0156456554115862
Ni 0.28342781407319556 3.0171035876209453 1.4382465045381285 -0.13640165069190702 -0.043294806132893174 0.31254047207243596
Ni 1.4328805044238238 2.477168253317232 6.014406229421747 1.5920970114742128 -0.41480172943720817 1.4509483330156239
Ni 3.0437677434087163 3.6674178391110774 10.029089225312013 -1.962136349094066 -0.9522535643081858 0.6785796873939604
Ni 4.6061269559477935 2.765424914677356 13.262072046583743 -0.8383968887963302 -0.050296691372023056 -0.2469104927774522
Ni 9.041194231053932 5.671191370805757 13.345166732763136 1.968412926131397 0.24485206758652672 -0.2856382483649532
Ni 5.512441058358179 7.722009539491577 1.543200454576019 -0.7098432733939323 -1.7381302717186131 0.24454944874444332
Ni 6.533243343152407 6.53351053752623 8.743196952728075 -0.3478802850243105 0.3455745197092694 0.8689048275772004
P 8.514839741819731 8.465491705054252 3.3537417792012367 0.13174872530092793 0.8797266007830525 0.3628255934802332
Ni 7.818199514068055 8.210790971606725 10.928392700169216 -1.1707222568051774 -0.34982738144835235 -0.17681887816668904
P 3.1578781682295674 3.169726856668777 5.432175868461584 3.9500228105690423 1.1182869218235967 -1.8149250093811644
Ni 6.682577357322479 3.357850123038751 11.367397663160856 0.27820313224314663 0.9124462025032608 0.8628892175107398
P 6.322076865439926 3.916092878748927 0.08733662720382122 1.0438884523073635 0.5386365992076982 -0.4291952791547189
P 1.9889580643461189 3.7449134211190045 13.158911984290109 -0.7258895282235177 -1.0360265330607836 0.36938627741688645
P 3.462885152748698 7.716656438416008 6.293289896420122 -1.1350471720010709 -1.9924455416005686 0.5410328673540166
Ni 5.481999326940489 7.897915573458446 12.425487383502116 0.19198967236985645 1.1594932208585773 -0.9007690232756487
Ni 5.600771832904606 5.33460938217996 1.5680937566172766 2.152901662138518 -1.0246504300133579 -1.178293384284216
Ni 7.256584581088244 3.85261118096809 6.706822021987282 -0.3589105746965432 -0.1787495195304986 1.7286884095794226
Ni 0.3968149713649032 1.3239296950974968 3.9415270190571996 1.1365690079622361 -0.13885422599745764 -0.9561806672767338
Ni 2.2656977268345377 6.017005385727113 3.838096998310013 -0.4304684894401877 0.4031276355333896 -1.222833632788436
Ni 4.403160581431966 6.15286911801684 7.702894085444276 -0.3311053795588169 0.3610481898648362 -0.8886475574217663
Ni 3.164005211629314 5.464530343051887 0.53963312825332 0.020915667106744626 -1.2864247272765201 -0.4685161882415286
Ni 2.8795629802954985 7.65311024544149 8.775560640917474 0.5189568613905837 0.4608748696461869 0.3811557592479887
Ni 2.3101257016820265 5.140266936419265 5.848701492375478 -0.20578672615394883 -0.1762954015630512 0.3945761464189527
Ni 8.958585101546968 6.3916395386250215 3.8235865010915746 0.1326630095850812 0.06475940376457234 -2.165668474885883
Ni 5.13203919242532 8.572433949777352 5.360570540356602 0.22475298284380646 0.1480747161544611 1.6693751165310864
Ni 2.792826158392916 0.41813800375593224 6.866242163089239 -0.10948245770355984 0.5880125785376646 -0.0704641674588335
Ni 3.226104869545546 4.03141949865063 7.6124358908662675 0.6988384376429965 -1.8988201055339233 0.5957017196518063
Ni 7.82796592911126 4.312535620710296 9.283973488629378 -1.4477676212947967 -1.1497469401050908 -0.9089453884388539
Ni 4.86687181040319 1.7553196184351674 6.42366324500773 -0.7866040724947551 0.41186655806828426 -0.6750577902836309
Ni 7.913504983131187 7.275371109647769 1.6407512777391777 0.7298197165158592 -0.26086232697185396 -0.0162452582142688
Ni 3.352128477999288 8.073886102618998 3.539228113509545 1.8526392361024868 0.2434438743850904 -0.7131132023944557
Ni 8.85721708427777 1.856531004519709 8.388904583917324 0.49493941543006376 0.19720721201505392 -1.0144956009675432
Ni 1.2731719776701198 7.017970791664716 6.8276749586275844 1.387787641196739 0.6887810534069944 0.4484019339901568
Ni 8.540370624918527 5.608280916168957 10.946665109899108 0.3310660416804492 1.0153461218932964 0.407781075145001
Ni 1.1598815631689343 0.009082765990181237 8.790057317737267 0.08614841096330969 0.43522323051635364 -0.26128681610378224
Ni 4.26474468219227 1.9430190592466627 8.715633549668402 -0.4515631053269578 0.8977988849037313 -0.7053140180650112
Ni 1.9262226680921686 0.35713384277237675 0.20091634871666375 -0.5709368540023005 -0.3938966038534248 0.1548439165574946
Ni 5.140994810747957 2.4749662031329622 2.141099462161158 0.819945109849046 0.6597142179480251 -0.5564481734678224
Ni 6.95784284395532 0.8615949778314201 7.091509132860326 0.27548059110566103 1.4193127083882138 0.988768371404768
P 2.2496844916033196 0.4613682107207632 2.3440363531598734 -0.25306031442893195 0.9142058655068448 1.0412235038806907
Ni 4.94736181211776 6.212029637821013 4.421836546802323 -2.508176954075319 0.4096219850084816 0.6270434671878814
P 9.009711362938239 0.9535706521807642 12.047528964049878 -1.976712704246344 0.6304905451962174 0.07952036412383078
Ni 8.65051920212751 2.232519556484931 5.748453848756521 -4.57066834465038 2.2847177503422715 0.11536874128100776
P 8.555222946663477 3.6567024233608434 3.677327986300202 0.38679316003942416 -0.4747287448101437 -0.7170619026295586
P 1.7812190454978571 7.149402782788611 13.01687329788533 -3.6057631530164542 -0.6409513355182251 0.20782406829895173
P 4.762343528643597 7.148536704473459 10.019406654020596 -0.2279987434746138 -1.4117096992299754 -0.5763228009045623
Ni 4.015728739387819 4.28473819223355 3.0258528213238023 -0.17743260049128798 -0.38678518961962416 1.292039502360136
