# total energy = -340871.1134739985 ev
CRYSTAL
PRIMVEC
9.21592320515253 0.00000000000000 0.00000000000000
0.00000000000000 9.21592320515253 0.00000000000000
0.00000000000000 0.00000000000000 13.48843517053402
PRIMCOORD
 96 1
Ni 6.813829713895134 2.44846805552987 4.53722664615936 0.20178866073814924 -1.5892924521458824 -1.3425421390953782
Ni 8.652996220093476 0.8888979150670707 5.738547123963577 -2.212082543374048 -1.212180523949964 0.24036086458439254
Ni 8.73198589821491 7.167490768370698 0.6539655997396164 3.1334895546150228 0.1907681412579295 -0.22808179010672333
Ni 4.46599032426282 8.549307867679024 10.21697710142069 2.0336346142443684 0.9824797101825788 1.8492253253249313
Ni 5.285774344556364 4.0239762136502595 1.7665395014843317 1.227012446756474 -0.4149577953990983 -1.1720779995021233
Ni 6.6332529138588034 3.9677959455568907 5.9928310349180745 -0.06665070725001425 1.521819506104889 2.8970974448703912
Ni 0.8686072168614982 2.3693493544830244 6.657446555558067 -0.2668278005266695 1.3342153643972376 -0.5854466175827014
Ni 1.4930717247058252 3.1888753289257465 10.595219787964078 1.1379682023026079 0.5006513782131764 -0.6367753497636646
Ni 6.691479116912266 2.9197058587480846 8.809998688472517 -1.4685333930872384 0.49754265738086567 1.5644010882208412
Ni 4.522788059213514 0.2393126436451674 4.044993126607433 -0.34887478772709596 -0.8641359454336472 0.3452073661778377
Ni 3.154969947312311 2.7441886005725245 1.2463614594729695 1.0593994034587688 -0.3763303128348873 -0.47651437595565677
Ni 4.0313397363219465 6.698077717954729 4.0547721427612835 0.6575588621679191 0.2779542494571342 -0.7585834189121129
Ni 1.5755173740436335 8.755652389104638 0.11763849542838373 0.6814912046138006 -0.13496620379696112 0.75877753720079
Ni 8.331572465124244 2.6288052415618655 10.696517529889123 -0.6585081134550659 -1.162006217088418 0.3582289752484863
Ni 9.093231657520008 3.6258944091402414 8.877184612103468 0.17510163836526615 1.6214865203799236 -1.4567158316270203
Ni 6.399223759009228 7.625669608352642 4.118194283339523 -0.08817778268851266 0.5600163504350549 -0.2766818105026138
Ni 3.018141134913648 4.59232220008695 3.1597742080992326 0.7976554452129102 -0.32895773708819476 -1.97137740807636
Ni 8.117864421026946 5.857216881202926 4.723865680505373 -0.6021418188501952 -0.4318540569338047 2.0044806183882318
Ni 7.540468397964979 3.9156061722280278 12.442191259557477 -0.6441526160643423 0.9015089867654669 1.258578394488213
Ni 6.9095462927038165 6.1787051476348624 0.36820285976173917 -3.3263996819166195 -1.207887553001565 -0.43420918742954256
Ni 8.622583673389387 1.3645464591497025 3.354978521507905 1.0683738390432373 0.24572572844073165 -0.5889212063948632
Ni 9.23048440238788 8.225718370747533 4.059169059740835 -0.5518351001758433 0.0562181990627806 0.031890163840377336
Ni 6.952584654251723 1.9194095498809145 0.933804344256467 0.5087475249577496 1.1724598083215743 0.21981106545749884
Ni 8.0692872896096 8.346649715550877 8.135927630584526 1.04967986217816 -1.4611137035844 -1.8430410508910904
P 4.227731060644403 4.443282289390434 5.337765053943165 0.6211911221721624 0.7939134616719747 -0.6210427695197562
P 5.028806756753312 7.48614974636683 8.128535538550784 -0.3622550656887438 0.004166729783179921 0.4854672142735703
P 3.7391857535745894 1.3420411745886778 5.985466590654064 0.33431257364220496 0.8282063214165736 -1.4163831934462445
P 7.878517678465777 7.686494701760817 5.837255191457152 -1.4932625204028025 1.2523473259768367 1.0219322597512464
P 2.2835767568542535 7.835156759604343 4.583828805225591 -0.22913131441716023 0.6487443492000827 0.3291300010000009
P 5.193052940801872 4.912824362731815 13.120821434674108 0.6106706822568129 -1.4836954455396576 -0.03371744685710322
P 1.4959102290648734 5.372275000121384 1.5371422696570212 0.18596789165580876 -1.0621859650649708 1.4752614558396915
P 2.2526296866020337 5.058067313051942 9.288635956463068 0.06798536690103775 -0.32309870720425643 -1.7145139178512538
Ni 4.993583498116032 2.9037899593062786 12.092503189592257 -1.7174406045797455 -0.3507056702882476 1.345053335553006
Ni 6.647463867500532 0.39549397326319813 2.8000914693762593 0.011903179195489177 -0.7101260947416738 0.6616582290482734
Ni 7.489817683817807 0.36959446417153224 9.905609761894945 0.5461269940474723 -0.11811236546441595 2.2554891924944576
Ni 5.017038022771155 6.902468463652684 12.360006420847464 1.2431851998615944 0.4691275965732824 0.05331542359368882
Ni 0.2726853448951195 7.813158350821721 11.666134030278139 0.41647268938172793 -0.8256480737710941 0.0824485935142193
Ni 3.7241177190712005 1.2837135963795352 8.283072747462144 3.6434346994252995 -2.3625843809127636 -2.1572064601614587
Ni 5.98390817803356 0.32409268634059546 8.274129615546494 -1.0238539022539916 0.11725875921486903 -0.47003339621700346
Ni 0.7935453652265126 3.729859239252002 12.85648848101472 -0.340407116575717 -0.6237642822159774 -0.007377266300677618
Ni 0.6893510586259844 7.123457087112477 6.004551846099365 0.1331278650366417 -0.3244811893740799 0.7777851886515444
Ni 2.744243896111987 8.352852031893862 8.927496180275272 -1.1164586103656062 -0.10628477670186856 -0.6006950591013397
Ni 2.676414701038628 0.37340801320975997 2.5257767492516603 -0.155004610505075 1.0451894305069742 -0.25603739477938486
Ni 3.8407913073359725 3.2601236315225046 7.118697062757125 -0.19390283023216928 1.1562842270029763 -1.0863700185103418
Ni 6.472158575559576 1.1785599121693418 11.89682702091351 0.1498788592427354 0.38327152003941095 0.4495553308683097
Ni 1.481044944872845 5.6662353038245 4.457294179090099 -0.2503565423445237 0.437313280276163 -0.35547429532148456
Ni 1.339552875312889 -0.06124349632343739 6.9730891618765485 0.47175886354854235 0.5358839761632255 0.6953098556644477
Ni 3.9567091898947644 6.233576754627631 10.131581435052588 -0.3174926738713887 -0.5400028834276055 -0.3376123274393992
Ni 2.922866920420661 1.219091542594971 10.259411819996139 -1.118703697646041 -0.14151840309318206 3.1545021523109478
Ni 3.7777083127331004 8.039796335229877 1.3293149061815037 1.9407892508768572 0.4969836995536021 -1.153152109131898
Ni 8.640812769565354 4.728137260928811 1.1295616130597592 0.3892652757290006 -1.0710644985015232 -0.048842475423999755
Ni 7.888609114417588 6.265712678978284 2.6810558399841367 -1.1815430015697652 0.769836623228429 -1.7808321814625137
Ni 6.468573581417791 7.084132742631767 10.076926402256044 -0.5911665507856142 -0.6178998530154003 -1.2406853162578761
Ni 1.6385819368000187 5.7589106279627735 11.10336920695781 -0.792944412890486 -0.02133398559108584 -0.36920321487180285
Ni 8.35387499937391 -0.07060503115435016 13.086938171276458 -0.23569405523634246 0.8120528515851627 0.7823931197372008
Ni 4.616689101143195 2.5868727908031994 3.692108052868986 -0.7439345586506865 0.03959396024253826 -0.38067830539093794
P 7.587488038354147 3.49163683932656 2.7835000427606933 -2.5710293706251655 -0.7619009133211201 -1.505914404838858
P 3.189640250554971 7.814448580075833 12.193235073830142 -1.0925548071648152 1.5553361498050955 -0.5193795507502991
P 2.0414191577037673 2.3836708992036764 3.001594866321976 -0.35651379232959246 -0.1741881254120613 0.7215178815183833
P 8.436136330246844 1.9653140635575992 12.775800308239479 0.3471372362106989 1.6543015100274157 0.403610231596763
P 2.7178494919421365 2.215111663077082 12.597982755622303 0.1786237925859117 0.353205811002282 -0.7678561024632905
P 5.182168935451107 1.7952618478655316 10.16019042557789 0.4115117458320268 -1.2916070428084079 -0.26250526189191564
P 5.549322101555393 6.537665357975532 2.2624695278492926 1.100830416910046 0.4009182865868966 0.6079694812755659
P 8.978898913759126 5.629242587924438 12.422269198281652 -0.2564099476274552 0.6957330592447953 -0.5875963169358526
Ni 5.658622951225235 6.445146704532401 6.005065173024037 -0.0023163068380024623 0.11068393421082874 0.20881368590573068
Ni 1.2010283330373916 6.969505089327088 8.172035617853197 -0.41822283930361526 -1.146626392198238 0.9853516324137352
Ni 1.536902655652686 0.8495800217326318 4.62521106536661 1.2608263099821253 -0.016843296809583897 0.5902000731072867
Ni 6.0439959975822415 0.6665204519744583 5.8882680913878 0.12846696922586262 -0.6403018748596844 0.10074970581625228
Ni 0.5480285620537114 2.4623103722418516 1.493453263928113 -0.5191864609028864 -1.0501462602916174 -1.8916449279417231
Ni 5.243381097635515 5.298068386163411 8.02882938656992 0.35820377843750567 -0.5017847204866713 1.0607957695856634
Ni 2.2853462141170366 3.3146081697390395 4.869608133865306 -0.13836545928649716 -0.6749647163491924 2.2992347130115243
Ni 3.8361741297908973 5.763407998505682 1.2070638411696668 -0.6932038650650385 -0.3650051176300552 -0.12735368155702584
Ni 5.797082982038026 4.657174651952606 10.975472467366906 -0.127036150316607 1.2077749386831005 -1.3917018886494805
Ni 8.813242693454287 6.546586371675398 9.840420928830897 -0.2540990401060914 -0.8161419340528718 -0.4640450398440524
Ni 0.9870253793962958 1.0780879169669288 11.919042003892358 0.2713172037565908 0.08554343038945914 -0.8944618501106982
Ni 6.271159289615289 8.760168191494031 0.4941780793563404 -0.5764613833649557 -1.3912416611836107 0.3203270579963902
Ni -0.06485060868100705 1.2627473710002022 8.565911274994807 -0.051123043928060344 0.7144738301874082 -0.47139428112027204
Ni 3.9052751222718816 3.4212179698217318 9.53547432302901 0.05262739638772872 1.4717220752278652 0.03204905801574481
Ni 5.950915172821246 4.74275371519326 3.893652921469298 -0.2552961457379861 1.077624411107228 -0.19558870257502445
Ni 0.26950677296838016 3.889598836834411 3.2991364777975782 1.8819773229449714 0.9479978743556253 1.7410860119128273
Ni 3.1138392818758436 6.12503161066377 6.266430599398965 0.2792570274289578 0.10734278565273772 0.7252567797355252
Ni 7.685849587133761 5.785148361437482 7.423036339217253 0.9889655750172388 0.32228366750212883 -0.25244504944243623
Ni 3.0279837409378803 4.411524217892772 12.772159096965908 1.8254835016233013 -1.2127592792715696 -0.8124860824678394
Ni 1.9731752460844436 6.316418688664917 13.19021917988354 -1.056582245724948 1.7710213660196787 1.6716536281526178
Ni 1.263853281789442 4.739113425512013 7.186678320564004 0.9997613800811621 0.35921242220767813 0.3971205101073612
Ni 1.7854008099948122 7.366610005973278 2.3918094810201547 -0.9101445509532777 -0.5869188312528537 0.22798228841438153
Ni 4.315660184312191 0.6315828869577322 13.089636593602203 -1.2367211894038055 0.29109592904541476 -0.13498368729845786
Ni 3.771782474087425 8.568228158098265 6.644848388483981 0.25486060086246426 -1.0911502135078048 -0.3440776234487687
P 7.2606821842106175 4.973253171440513 9.425638028218712 0.4500011601564766 0.334300746567663 -0.34710946829655703
P 2.055473440650353 2.28339243838938 8.373135357360841 -2.9001146344301603 1.8223724667981456 1.5447630022749395
P 6.809654900665755 8.30750968953504 11.736854260473034 0.02007080260794608 -0.6623123176925045 0.6987625900997385
P 9.003192087429422 8.724880421394046 2.0263271617999448 0.010547693608859253 1.0511451338697768 -0.5172812734603737
P 0.6497972376565077 8.944071939821324 9.884945818798005 0.615313837455779 -0.7324509834911191 -0.47038589446041573
P 5.017609410012262 1.1495205380285598 1.673172983102783 -1.6976911898669598 -0.10642593026542316 0.1857130953325253
P 7.414680261612224 2.166036871804577 7.085232202274736 0.6024477801263882 -1.517974678437502 -2.072874790691914
P -0.1088225432534958 4.32237859235682 5.656105160995066 0.6746065616788253 -1.3801782042805972 0.2115953624159259
