# total energy = -340878.0967270861 ev
CRYSTAL
PRIMVEC
9.12599323170143 0.00000000000000 0.00000000000000

0.00000000000000 9.12599323170143 0.00000000000000

0.00000000000000 0.00000000000000 13.35681356412411

PRIMCOORD
 96 1
Ni 4.361129669288512 2.816947724132193 0.8400203035678404 0.24996573466400823 -1.323098942769102 -0.028320958431880257
Ni 3.444642668016292 7.244779278314045 9.205409500076575 0.16090837758401966 0.672422666653629 0.24081903516773367
Ni 4.746301341720902 3.4764102506286494 10.895086243518026 -0.2648637348217632 1.4434065161126237 1.6796374176890427
Ni 1.2081446205506812 2.634610378370947 8.298962004013163 0.3189183505743217 0.8043508549552149 0.12870325360638477
Ni 1.4512610815656766 1.5014814225929107 5.387150492320729 0.6509439279545628 -1.221082197314968 1.0947623563390954
Ni 6.274549302607993 9.078401226381459 4.414560534752122 -0.1748967214433117 -0.5458413444862535 -0.3064924661061431
Ni 8.971526719063643 4.556435051502547 7.496497900596035 -0.2959422013941226 0.727020042283535 0.1671039648717703
Ni 5.566144074143691 5.404623119057191 4.2750615140528305 -0.18628053780022114 0.35839121185796347 0.48747473162190247
Ni 4.459297979015925 4.254209532004289 8.496789810770162 1.03109695696965 -1.4328374823475258 -0.21988434189759548
Ni 1.9427870796988462 3.136266229046408 1.5225834568573615 0.39185797615684126 -1.581455729710283 0.1328617558594486
Ni 7.967457560270369 4.633723088602247 5.1762058954204555 0.09535193183944869 -0.005374634048352034 -0.7047308918680315
Ni 1.2789532024206267 9.31462756246904 13.114894674470715 0.2781542812830823 -0.2085720022085698 0.53473340749855
Ni 2.9252185084220548 7.519024502411704 6.844565231156016 0.6644180511815976 0.31432378922510384 -0.5109049376203846
Ni 8.444902150770424 7.876215879443494 10.520387560975305 0.3482505238795357 2.457834754177341 -0.9185659422477535
Ni 7.6654328126243 7.397028224226701 7.24327987761792 -0.5006318378291508 -0.2210937888246644 -0.5722468310629757
Ni 4.93272713247219 0.29971587134588873 7.720024504433297 -1.1655520254581475 -0.7675146599634718 -0.6497270248283261
Ni 1.7948364766217026 0.34516240528765196 2.758676431832158 -0.671210648623399 2.658676991841821 -1.1234990621521554
Ni 7.38981868953444 6.098235112412434 0.8183506325212899 -2.0790251265640256 0.25141815083981867 -0.191207028567561
Ni 5.807417084515856 4.792889537422161 12.767511002418384 -0.337993879148534 -0.46771477538615575 -0.22196307880349517
Ni 7.030555712027784 3.5789864151109523 3.2209289813167614 2.24391665716551 0.2072712811192753 0.0021941794378413826
Ni 3.5935971303543837 5.035522320793246 0.5588995561320176 -1.1430785269459798 0.7467517163845074 0.41932969921454877
Ni 3.1116990551330312 2.308912804153073 3.9103010381934933 0.7093863883621717 0.031759294689467886 -0.4265709541579944
Ni 2.847118257920316 4.65609089813482 3.930362709223871 0.1363358304509781 -0.6112463522546246 0.6856152540845031
Ni 0.6493874299138526 5.91707501978448 4.034759509365802 0.0978333035004057 0.850301096433084 -0.2730616972515233
P 8.021748094301083 4.354933119850479 12.850710857965739 1.1282574027727474 0.814024887709869 0.1393890154550051
P 7.759384913455733 8.751353005157945 12.732021839745897 0.4177649258305902 -0.0030783818150076016 1.6987260588893776
P 8.639367941602577 6.547261359834386 8.829308152366512 -0.2475967202111994 -2.5850922764761353 1.3750573381142641
P 4.743499661783529 6.221673297535888 7.860698953067226 0.36079519331376575 1.3142126960230658 -1.008561494871295
P 1.7672668509187635 5.9466797419891595 5.95908926765313 -0.9559428402343149 -0.34832662853310975 -0.6531532769010557
P 8.20021601891104 2.3195537123191197 9.162587601802526 -1.1869418039878332 1.4062957273032555 -0.4827626708582137
P 5.895875337391919 5.516471292713338 10.651550899411419 -0.9892478821443479 -0.9458198928677002 -0.07459413046680702
P 8.854969532874321 2.8890065670816827 5.850618624110408 0.7863973558005876 -0.8765916546984968 0.49338466934843417
Ni 9.11034220286616 7.0533433172513 12.910134763217208 1.2091381375792143 0.5407320482841461 -0.29803533647772545
Ni 0.3760840083228288 0.7430922163273612 9.635752101453631 0.4855579742151638 0.19378867325180818 -1.081776999823021
Ni 2.770761072135313 3.3126625531814997 12.396031057705995 0.5799346866255367 -0.4873477191257349 0.2521180051203206
Ni 0.11283104313254869 2.5037345087231975 -0.04712206630821802 0.7315115023959854 1.448639482376789 0.6813227973567363
Ni 4.306930395190611 0.4749212533577651 2.5409731243077207 -0.09553448016389998 1.3249326535437311 0.9445636518630959
Ni 7.0256368016491395 0.3256400804602016 8.62199661339154 0.9732911017047755 0.22282439836252593 1.7715630974557621
Ni 6.47943697776744 2.7544346701549896 7.393584074362322 0.803637373827958 -1.167496036558396 0.3513294199151756
Ni 0.7666445797878529 3.764043306870039 11.035546231309842 0.5839006132518202 -0.40505879111783144 -0.5029394029164048
Ni 6.922805109354959 4.495829330121143 9.044285525697811 0.699737295308182 0.0502979769236037 0.8813888189768241
Ni 5.214410041094144 7.554542868262693 5.935286851976731 1.3929671285151493 -0.8927752064368947 2.2583449167756977
Ni 6.581264810800673 2.1894353001137214 5.0527622347010315 -0.664884449295055 0.6285539902951368 0.7800145922026953
Ni 0.5172266204120899 8.244340196426336 5.853449507226281 -0.2565405596680485 -0.4491323843982781 0.41706867109451395
Ni 6.7011073545712785 7.032599934522805 11.912835266240036 -1.4868098227989233 0.26037201759899675 1.025232013548441
Ni 1.1270784222325054 7.792621780986387 8.362581128376064 0.23001268858084903 1.1013898889579419 0.17943986072930387
Ni 8.72286165413359 4.4246283305401 1.6220649970179606 0.7311572043803601 -0.7531033696341481 1.3266177545556377
Ni 1.2560104553113287 4.964147927339857 13.247568364794889 -0.2780540082597921 0.8123716683771622 -0.5413501414841193
Ni 8.592670233981941 1.23408069345626 11.680012925646395 0.5651966090844137 -0.9294908166903734 -0.7617623308607268
Ni 5.744885778552088 7.910757764013381 2.1168279849680234 1.0917683067077777 -1.997350949321986 0.5566638890230542
Ni 8.492959631389981 5.784118423668585 11.07206389342514 -0.5960477901373153 -3.4094080045890514 -0.1735890583754817
Ni 8.737773527155307 1.119284823970238 7.329537853513853 0.6184721805791026 -0.22681577891010615 -2.227965533152892
Ni 3.8576577459500623 0.5077520141873989 5.364029788342445 -0.07451494048943941 0.08770289993462314 0.3979975133956758
Ni 3.4749044617372276 2.1236733925283593 7.521969460443594 0.06331110135382 0.8739079372187467 -2.370273779137221
Ni 1.475043420056858 5.922085190095938 9.947593680072442 -0.9696031113302268 0.5698593046674058 1.1254135055660488
Ni 2.321716572726798 8.01596221456071 4.351462504605584 0.3486832405415802 -1.5283207975585162 0.6615767250780606
P 1.6979549319469585 1.7641001312501374 11.456339393317302 -0.9797995922472544 -1.9062055993647171 -0.10637810774662325
P 7.265194125284411 5.845226074680462 2.9748429220880173 0.5200948316497688 -0.32847179859071174 0.00852526386219177
P 0.18797264661247617 8.228369708183985 3.652500853988816 -0.628992363384136 -0.8297327853634291 -0.4767820277947466
P 1.7477646032765322 5.12575101636589 2.1112583912684193 -0.5047366040261436 1.3135490942971377 -0.035606693460016096
P 2.101077433163752 0.3615362624330388 7.221388444934633 -0.21370263856691585 1.1459175390566716 -0.06255288303155677
P 5.167593695560851 2.595733646992423 3.176036395167176 -0.6838378504691061 -0.3268401765245597 -0.40291809062574485
P 4.576329716855876 9.216158094963342 9.87684259196017 1.2364237127680449 -1.7599717930737364 0.739558798180494
P 2.9252367604086174 1.1269962882929734 0.9256914780957822 -0.584734164896709 0.6824821077721601 0.3170707558426217
Ni 6.531792801222509 0.3108057783813775 11.030737745449903 -1.7062995003612613 0.11523812924041443 0.31543322023919873
Ni 5.440643414538653 4.630282589135179 2.0340424495156424 -0.8105387289334816 0.730643240858419 -1.0176058644617507
Ni 3.7774311390137703 0.9139864791131309 12.053108171169583 -0.03890310482310074 0.6342512977902304 -0.5872800712470143
Ni 7.547296829597307 3.2154250947687832 11.053043498228163 -2.0368088982072923 0.12092592365381108 0.01692402944884827
Ni 2.3450973675136004 5.271630018968168 7.992997565067538 0.06340957460489725 -0.15800097412923755 -0.9677732572103398
Ni 6.036187484092578 7.349728201049498 9.366559027236526 -0.3501737090441776 -0.19491533065708366 0.14595355604640026
Ni 8.370789959332633 8.022094882045772 1.5705076979750097 0.0721451547056822 1.620305612697945 1.2229161651999134
Ni 3.8036409917177894 8.392281673510197 0.40216700972023706 -1.2993339791390204 -2.2549459183964773 -0.09762967213003187
Ni 0.8441050981605698 3.3458902947188722 3.8733024362322697 -1.407648384676408 -0.30322639376036165 -0.8545570434959605
Ni 3.0397132201297925 1.442883419733403 9.593598225887778 -1.547985365866979 0.3786131953317931 1.2373853053503658
Ni 5.770986119336731 0.41947810637561783 0.44398687393199443 1.5455731568810607 0.7200065870801793 -0.8390666611698452
Ni 2.0212523699318394 3.7069328409153903 6.041299865528787 -0.08534134168098206 0.43513144213349575 0.2846236910575098
Ni 3.4193545406336887 5.398809861336973 11.273792149710584 -0.14626645930112875 -0.46476057785383834 -0.2203322280682915
Ni 6.452360155701693 5.039136214132658 6.8555711790533165 -1.32684606851636 1.3248022986134538 -0.7042531809006646
Ni 5.507062393640273 2.097089374099805 9.510118202346687 1.1292670749841842 -1.8396410240706058 -1.6576807109122935
Ni 6.950064451286333 1.2426956311138482 2.594574645845692 -0.2948579671910083 -0.6372533178413476 -0.9107425895485929
Ni 7.492312720077211 6.888619138523047 4.918406623815105 0.4576090544107216 0.8619865031908122 -0.838118438323963
Ni 3.4334907042264904 6.385868168653823 2.690035273366531 3.031849218663701 1.2796753243678283 -0.5248464874021412
Ni 4.194598543890551 7.545654150806665 11.397181967069649 0.6492143468579658 1.3225939781082254 1.0862175520928776
Ni 8.550161357277444 1.0335004871256075 4.311512556417174 0.35618751933842524 0.09197941582278998 -0.4281380415347982
Ni 6.784546311142602 2.7443413215858232 0.708744715414368 0.8263849519371187 0.7773828110068031 -0.31687740888489296
Ni 3.9248159305074704 5.429819986506979 5.9212492491113675 0.26344654275926244 -0.7946382556531412 0.8152633881026604
Ni 1.7984868739342403 8.569526715020455 10.779937198092016 1.0828779461966833 -0.9505507226844664 0.5970448639432622
Ni 1.7389123897936287 7.376741141162275 1.6198610696405165 -1.6943515839707657 -0.5069616367019205 -1.0707209991191753
P 2.679190855550311 3.7686519334771176 9.669584896345558 -0.5575203234860785 0.5373417916556746 0.21441869079733394
P 5.6953407610276745 2.040654231647976 12.325961681291837 0.07180114110270215 0.759499245858163 -0.7300228336656008
P 9.050347923034609 2.194910896082528 2.0441403610814493 -1.1408311256726997 -0.6269833033739073 1.5326592770328702
P 2.0996264002320184 6.891594212332764 12.203586674385658 -0.1992090729364311 0.1836868089311159 0.2670280894629336
P 4.801066427402245 3.3256032116544456 6.087635271216153 -0.4769974862396623 0.26624621699158657 0.09903966510368105
P 4.4679950506130455 7.813109635903003 4.06741687632309 -0.2047749970599828 0.006725748759607773 -1.649951717699152
P 5.034874375270269 6.613005015433186 0.4361494709019765 1.0704931993790854 0.1120054812357297 0.20828403865450584
P 6.785312894578236 0.10576569913413242 6.519086680776894 -0.013923809169943763 0.6793157942290364 -1.1750190844083181
