# total energy = -340890.4149431402 ev
CRYSTAL
PRIMVEC
9.09839534650871 0.00000000000000 0.00000000000000
0.00000000000000 9.09839534650871 0.00000000000000
0.00000000000000 0.00000000000000 13.31642126950981
PRIMCOORD
 96 1
Ni 6.2114652380109225 2.067655778995095 11.392038638623841 -0.018601417151271192 -0.9121996337100934 0.768446941969754
Ni 4.602377670571709 0.49264897993043766 6.407076183514894 -0.21898085624671965 -0.7259134394829176 -0.6888450738757105
Ni 2.7336583004905117 1.4181122542399132 4.954760332566543 1.0974725561814067 0.437913118643691 -0.3077091121220636
Ni 3.7177407147657067 4.230462573971051 4.968104038823717 -0.034583137291508186 1.4080237657379555 -0.08622605827878053
Ni 5.099186436742962 4.704625434732439 3.133127886658777 0.22877290263647698 -0.2536940913581889 -1.6579632751497189
Ni 7.289570467274283 6.001938297197836 2.321358157548847 0.41522081925249776 0.16849158924791627 2.2072923210742568
Ni 5.23244153141266 4.617371825700459 11.50919594283887 -0.7585201697743452 0.005347123244526275 0.37374738259905954
Ni 5.267342975025453 7.76669030644395 12.354349503258513 1.3906598205382115 0.28054309323023296 0.2216956840747214
Ni 1.7462003816323275 6.4965179565690025 0.45271976318406076 0.09401315842336712 0.011198696929296842 -0.6346022533717457
Ni 2.6628090978281507 1.5555071186812013 0.4649452766831508 0.9052417143350215 -1.6155195041632113 -0.7178589446095572
Ni 0.663212953557022 0.20308709675961062 4.868403825291657 0.2903639359753967 -0.13634122976761678 0.31130479989312193
Ni 8.626752497078378 2.4418636711615567 1.5972914981889568 0.3037385575100898 -0.018323223789220057 -0.5003909254629383
Ni 7.011705480847096 0.4754593820634801 4.8125542367951075 0.2579664934812977 0.8045516581121112 0.18510477232456507
Ni 0.7175949709235556 7.592010218873042 2.462845480107193 0.49756014088236244 -0.33948203365828633 0.4460668580990769
Ni 7.949422473680479 3.889718578991203 3.852254117478066 -1.2134496204703746 0.26603050143635476 -0.5384080281366598
Ni 7.439502920166672 3.5346173165397743 12.816002980593616 0.04489094697541946 0.43238421840566177 0.21180285044104166
Ni 8.155874156948956 8.895728351490524 7.263961214579567 -0.35934097736574244 0.12692764976320076 -1.012903831000391
Ni 6.75054514782791 0.5278069982851178 0.21458200913197825 -0.33102079026481057 -0.001196848521578584 0.09080802122250813
Ni 1.8819120429796723 6.528908243133533 8.997732278662511 -0.0923321711765184 0.06683839778078811 0.011735543269373337
Ni 8.874720157199091 4.880988725397292 0.9839632252993538 0.9314176013994411 -0.9820814463028956 1.1539434946849416
Ni 6.156638309123882 2.119762287746519 6.834439629388086 1.5692404185910136 0.05347920286506274 2.157962364490877
Ni 3.3377189481288134 4.13861427541236 0.4879187243167017 0.2910329370179633 0.5288736062836634 -0.911612650858372
Ni 6.136248805699412 5.805594930888122 4.954507397182696 0.38106371375481474 0.2181169655845276 -0.9843895256107821
Ni 5.640413567804115 3.0308664749053924 9.36266890621963 -0.5724859436569754 1.212906860593027 -0.38658644334525677
P 0.09590436309534002 5.527438795817659 12.341898349560882 1.123670040512381 0.7934236665197497 -0.4695937375764235
P 3.8368205098658708 6.051870289519788 12.766066439074114 -0.24676651100042019 0.09184109047271279 -0.401692959969392
P 2.362643945004991 8.585846112698006 1.2772536307831426 -0.13268254996910697 0.3037717247408704 0.5838756735511558
P 6.567439946392183 7.860767711802729 5.9685926791475525 -0.8031424364694103 0.22990598779965568 -0.6025315980894462
P 4.645840703975857 0.9354878860332958 12.649455038565229 0.5667313005613852 -0.6861472153285731 0.06627224086467295
P 4.217015146009709 5.79111938428021 8.184352133619456 -0.9159470165676676 1.226321077116404 0.9442098680681028
P 4.781224823099516 1.2323139278538762 3.9152277493397922 -1.015740786228554 -1.8664535162777596 0.20663544730748928
P 0.26691142856341116 5.6239727678540845 3.214863319061155 0.7011151494923151 -0.20387768205669404 1.0107582454122979
Ni 1.5686088076286522 1.0904062594417994 2.7655272490156757 -0.8048643042565234 0.09229180485688622 -1.2624499616284772
Ni 1.9896370409920459 6.2481681638539905 4.651332495259663 -0.7902524678806196 0.30928751235277696 0.5370157757748235
Ni 6.22272905114769 5.499998036188831 9.237242070696034 -0.2168913207075426 0.9638081019150047 0.08635744165032223
Ni 8.615625159868149 2.352108003476416 10.408646792536917 0.09317163635867826 0.14375474862286858 0.2032127947791855
Ni 2.477492986382541 5.156751982555824 6.981985573245118 -0.5797220563940984 0.7337141664742589 0.057581655069210515
Ni 0.42737163442878434 0.16894718881688858 9.260452076602247 0.7535805663808829 -0.17373098326998468 0.5075324216037259
Ni 1.5267015997870144 1.077450144815987 11.590506480189966 0.08361098925343664 -0.4380596715238843 -1.7214893207278223
Ni 4.020790058836326 7.2466624359713805 1.5903930950223197 0.7670320639000984 -0.7594820194669823 -0.4131757637980111
Ni 5.812127578571642 7.692938715743924 8.14814507030947 -0.16448503919168447 0.23959519006296157 -1.015050959250381
Ni 5.570437811071584 2.8791325397827277 4.837350092967668 0.5617546732824003 1.3472860815382666 -0.23744240538601685
Ni 0.7272092450282579 7.298341320152993 6.638634888068434 1.613937504388072 -0.2774364292804512 1.2783234383256241
Ni 5.4315235146481955 4.506380503846325 7.084788339507096 -0.23564289028343285 -1.004027868667 -0.6671107675224124
Ni 8.300029128951325 7.277633372899937 9.246403244724638 0.020466752494784107 -0.9265985827442429 -0.2660132750451741
Ni 4.3405167611296385 0.3369299477529231 10.31362133440847 1.2302222119430233 -0.5119374926499571 1.110649459882997
Ni 8.591114083462292 7.413454214988512 4.805057159230732 -1.9220204549097863 -1.5319925899831486 -1.7626287710806097
Ni 7.4422051435120835 6.205878823418052 6.910343900369338 1.0735723525250414 -1.1833512584230976 1.34832789253922
Ni 2.556412465500727 5.300306460481435 2.411377678691957 -0.6639897053949274 -0.2538920663016079 0.9256745282680768
Ni 2.1102180712841054 5.835983570530125 11.257901909468721 1.9542615743316796 -1.7082949335247355 1.3604413879733024
Ni 1.1873041672823212 3.360392148723985 3.666010879571522 -0.08241234095964517 0.8764942098886841 -0.07283909544891327
Ni 3.4943842133969776 2.8084107146518003 2.860872970651729 0.45561310702661534 -0.14637881650927692 -0.39697524277874857
Ni 1.13361453778308 3.362102647003236 8.243569947982914 -0.31039308671212995 1.0412975516517355 0.608223506267901
Ni 3.3707370239554106 2.9077560907748667 7.175460215579047 1.8253847712619078 -0.7909101560692765 0.8982010054381564
Ni 4.446331096170509 6.837480313031307 6.258637687098317 -0.852482677465435 0.5297521522338748 -0.9314690234626667
Ni 0.8067765298777348 7.578981317086409 11.533818019664976 -1.1818795589735775 0.2785281196827332 -0.7395929938525392
P 0.23022033063397718 5.587597384234703 7.991104041323577 0.1670304313213575 -0.426052362650363 -0.11621232022822565
P 8.53575034926421 1.775888444851447 8.15103472059399 -0.02980397073530996 -0.24538582860280966 0.027794910725081164
P 1.8570552275599255 3.195074309713443 10.484551063518172 -0.7181772471809245 -0.7420445407168252 -0.22034714046662698
P 3.943153453427578 6.437069042969944 3.9138156784199003 1.0318703448005648 -0.7902972050756261 -0.5253874475072758
P 7.176923237511512 4.168202256285353 10.61895346581028 0.009065452636377936 -0.7184554405429756 0.4655236812721079
P 6.384589500019321 7.78309471281357 10.164889869669596 -0.38291156559683087 0.4531335351378712 1.6119533840785076
P 2.519773228423377 8.541418649413004 6.112530199506974 -0.40650143710162895 0.2589075172383283 -0.608135831650101
P 6.75947067342336 3.907378563884955 1.8177046687420608 0.060717629595030916 -0.2488871568878488 -1.1851122069782623
Ni 5.1484815414077465 2.653601521984526 0.7919579737744619 0.4939315429908397 0.689443883801974 -0.6757411895039007
Ni 1.3079943783156094 1.3701000232845673 6.985647677273834 1.2294611654072825 -1.662248532788634 0.2464374097957756
Ni 6.747187840035125 0.723527124530318 9.04541878707319 -0.17785246163752597 0.21530854960145498 0.988974573878303
Ni 2.536532472201991 1.4898712964125136 9.157955926255221 0.003986238341257651 0.22409889419957532 0.2714766121525905
Ni 6.508336771807015 1.900818508002452 2.778524306419449 0.7351149034765274 0.35990122074458664 -0.30646315553010445
Ni 4.2322822529915305 6.8135879274924145 10.179777573575645 -0.014451142428323498 0.1458561112365875 0.31370363914260163
Ni 8.162770740436573 7.084356165739732 0.3006874007020373 -0.31632616436711325 1.0602206138084838 0.34756995287274334
Ni 7.770174991768168 3.801300375386115 8.428468443093324 0.3061975605735436 0.19106818899685157 -1.0700725669018991
Ni 2.9396732607940734 8.155009809414228 12.304585831245955 0.5879824966306777 0.7147980462960465 0.3026316975991562
Ni 0.23931326669931216 4.861445372717344 10.192694565102519 -0.6705910127615289 -0.36657169078622676 -0.01530063491281236
Ni 8.655130391402754 2.3980639971386206 5.97009755369749 -0.8528274623993635 0.5173846318074574 -0.7267811867998515
Ni 3.649466357917324 2.6170987608337115 11.740382523032721 -0.011289713981206364 0.6072061207469801 -0.7281886086703394
Ni 1.0872309195510632 3.179470562112833 12.537703090880534 -0.8442052679479912 1.3926007463146661 0.8307455428986595
Ni 3.384939618710251 8.243136864376039 8.087222216703823 0.24073290321183058 0.28875956760275434 -0.1553427105707841
Ni 5.43620918812593 8.095014992109027 3.5818643724670087 0.5426423779329816 -0.3649215567773134 0.6018651681500409
Ni 2.9598444027360866 8.441418188842563 3.5539131928729364 0.1673767589171827 -0.30679277095538127 0.6366475659365487
Ni 3.421515167021884 4.368366948538074 9.729150441265137 0.7167040050695077 -0.011134419350264695 -0.6800657850211836
Ni 7.253295166001028 6.264363307136255 11.569400023231426 -0.060598330408347244 -0.5313230962654204 -0.7720827389501284
Ni 0.542724726895007 9.049154588102235 0.15575724543694452 -0.28953886897094006 -0.13587894541921758 0.7086762496690246
Ni 4.612158445306785 0.5958857396387989 1.8228316143822614 -0.2463638762453628 -0.9034465701078118 -0.5752743050353899
Ni 5.693293440139243 5.539849006737327 0.5572484949969624 0.09436874199057296 -0.14169246677720113 -0.23570999607594245
Ni 8.07342450053104 8.844122254469731 11.294748589954406 -1.4654897211649083 1.1003043692032468 0.11590224518697458
Ni 0.24145775842494696 4.824078264031803 5.7530271335050065 0.12031554376332183 0.15294284288003981 0.21833422380165624
Ni 8.117296961714795 -0.013105328305491782 2.197661836773727 -0.4193584955699552 0.5493442154331893 0.8462791197578845
P 8.675865633841115 1.7192600337341317 3.7701720362222866 -0.6551721071032974 -0.7677087782521488 -0.6256627847902709
P 1.7032741535392213 3.0806255977203985 1.460292413934623 -0.5934833718442488 1.4482332480773057 1.1315008494107093
P 4.650426295107464 1.4328880478862047 8.473398137787978 -0.2176387403965284 -0.9297178450995149 -1.6769675841663636
P 8.492987892282947 1.5847038685647912 12.563444270304235 -0.08282577434797994 -0.17598095564642596 -0.1784029348243573
P 6.4160608486785105 7.8033750354968126 1.597957500710452 -1.122794836996279 0.6327487451027748 -1.158313084507547
P 1.970985331032133 3.3454980759413626 5.70129274911327 -1.7840815416377467 -0.182575321034492 0.7782089064525243
P 7.249946956603346 4.09252180582362 6.008755724648062 -0.6467226907843636 0.26477271776985367 -0.1985801811031806
P 2.452226743183186 8.386181832175916 10.016851702637524 -1.5026416476248574 0.6087058452209582 1.504266841933106
