# total energy = -340861.00250580924 ev
CRYSTAL
PRIMVEC
9.28286947337391 0.00000000000000 0.00000000000000

0.00000000000000 9.28286947337391 0.00000000000000

0.00000000000000 0.00000000000000 13.58641780111108

PRIMCOORD
 96 1
Ni 0.7819768549307647 4.611126157384117 1.6208456318737896 0.037662804658096426 2.5462135971330664 -0.8665941771661528
Ni 0.9563397767139954 3.9979833471907984 5.58351508709418 -2.8692750233414843 0.21560448357531897 -1.2176993968856642
Ni 5.657509767785342 2.4398537096236366 9.516103403854418 -2.4594589200443253 0.5306957470940667 -2.6516835912431236
Ni 1.1701521088086302 3.4631601065664643 13.336672550073018 -0.31695479909004765 -0.0003509555815155246 -1.231517276605363
Ni 6.620523927635535 5.216731277582175 2.0885852881141926 1.8339961670800027 -1.0343735708383928 -0.5009097740808858
Ni 1.6935945514844544 3.983075058850418 7.735875544919507 0.4673507071785177 0.04313205530278378 1.6878574916059899
Ni 7.452761022641843 5.998413865551303 11.375785199005385 -0.44966794518677394 -0.8136705896942439 1.3032428272751235
Ni 3.2219818753264735 6.663085884074292 4.152920008071218 1.655314781783278 0.6296235692102319 -0.06632237737631803
Ni 2.9304440773078 8.574827867687603 11.560329572003889 -1.3889508082669046 -0.3677865370299343 -0.3028337863076333
Ni 3.0685824576273535 3.446636598941385 5.668104306691243 1.9495901369979391 0.10305752801382252 -1.6995274717447504
Ni 3.759070136097167 8.60698372747034 0.2340898321262207 0.5278323095033427 -0.9196537759952936 0.528542962417122
Ni 5.531931109834741 2.4543442688386636 2.380639213674413 0.06738424298192912 0.6405245323934518 0.09585201140431879
Ni 0.6016803229936293 6.793844383179273 11.048081341600584 0.023993791811436096 0.3032261366500455 0.8201898788700004
Ni 9.124058121701893 0.6408438209259026 11.849720242318247 2.0591898370056536 3.4378734590185953 -1.198560104953052
Ni 6.576569540778934 3.4146199822004304 11.093093047287802 2.068160158825064 1.5354450673081232 3.0710577705423625
Ni 8.719120790454024 8.93063097092449 1.8229439110065775 0.4655344799053853 -1.3806803407279962 0.05861909519478937
Ni 4.450541798728922 9.16435505799429 4.751211155427816 0.5678134778819705 0.5496337216491501 0.18717219637655508
Ni 6.689709153663466 7.01548217422219 3.7815216841544794 -1.8950177010686977 -0.008130599526934386 -0.04933509878970214
Ni 2.135635511933133 6.242107754412864 8.928096747564014 -2.3034412948937035 -1.102949263025262 -2.012474692337302
Ni 1.5311443360693497 8.4255500440253 7.807597779168748 -1.0494417780254248 -0.3404899060975104 0.4370122040959764
Ni 0.027036357279799576 1.5502856128799751 0.4968563045644609 0.5596018886054557 -0.3895655805782388 -0.014571984276903937
Ni 0.5304472959645237 1.1607856935312677 3.423532465161576 1.5724692099409565 -0.6512434614728525 1.678694079939167
Ni 1.3762596592578626 4.4067080891752015 10.362728018224834 1.852625609255732 -0.16657688872370666 -2.519724292593286
Ni 1.4135303801088137 1.8122110573458379 6.58164077236072 -2.3226343228823874 0.709942517975958 -0.6129769617924863
P 1.1053391142927294 7.269452199567439 1.4469941961973805 -0.30027322466930867 -0.6279937469162926 -2.838234866206228
P 2.1669373477262606 5.804049144959219 6.268854486165752 0.11805605830518379 -0.8064244496547918 0.012131236045895236
P 8.967474679780636 4.382219879560056 3.4594961579936445 -1.412173269129955 0.06941104360397078 -0.16654217883102929
P 2.043855781658325 2.2837622597833516 1.5563510397801028 -0.6183652226875931 0.11751355553815244 -0.3813030834591304
P 4.925731885991736 1.1277479611505616 0.8558926312315827 -1.9426790117004025 -0.1813710163137457 -1.0220988672360978
P 5.099349393357946 3.248178132920841 4.678238518663351 -1.209061518705008 -1.1039674198771312 -0.13638750962451995
P 7.291749651991844 7.699546107031018 10.077752280621985 -1.238851348372931 1.4220722734112219 1.3421762711155272
P 7.4265461993085715 1.6506055830508917 12.693096780667306 0.14064294246676423 2.9444527942259033 -1.8965207679767853
Ni 1.71330208333167 6.133683839210097 13.085690680404461 0.5266606577927445 -0.5771527530050254 0.19424298718040742
Ni 5.908797043858878 6.265110704915643 9.059491123226477 0.7251930163771253 -0.6138069138929493 0.2089964913404981
Ni 3.734322006137357 2.73759246443644 7.662087872217131 0.5195510433311569 2.2326174301026067 2.946334327519332
Ni 6.348554418422292 9.20360303003858 6.589031793018635 0.399539403961499 -1.830991318815408 0.95400525689197
Ni 5.405052850160817 8.084961563820716 11.470169702448507 0.9803644636117891 -3.6163702391083397 -0.8995924864690442
Ni 7.92846166772453 1.708317182435789 2.487034821901854 -1.3522765927743228 1.6134271404105567 -0.21433153040016636
Ni 1.8368106613944106 1.2910707662941818 8.825111665573345 0.6375356249684568 -1.1505550378286828 -2.041163318521246
Ni 6.880490686646963 1.2086667341661883 4.538936994801426 -0.06690987444867187 0.9457810692099649 1.1729048662787929
Ni 6.74708656974808 0.7430556398911962 10.792982519329936 -0.1742878842147192 -0.440044563164397 0.7145833591820789
Ni 3.778907628116714 4.310027003829584 3.2400073512289334 -0.4364661017845193 -0.41921657067545215 -0.4927712041341514
Ni 7.992114303558895 8.308697283359852 12.141325805283923 -2.925389092726233 -4.025903006837125 1.531577356822601
Ni 6.058715385513389 5.049361141357355 13.326102146627692 1.6349089644334167 -0.5289440545102826 0.4006200386201875
Ni 4.887913475843099 5.275983833296153 11.351914300208819 -1.0254749827971823 0.7116512731369486 -0.329242101097833
Ni 4.3368916280245156 5.192335896661553 7.102965792514477 0.039223721387313094 1.0701149901040603 -1.2952150718746402
Ni 8.116096307963703 8.361368284632153 5.006336898019875 0.5609758861348468 1.4542054065003407 -0.60069171666723
Ni 4.891802998143609 2.905835190389775 12.820823494609169 1.077610527150157 -0.7669577590187372 0.12045001245865708
Ni 2.877030446479314 3.7189124428465528 11.786366514880248 2.1052269817703744 -0.5497075123098791 -0.059275240721549535
Ni 2.5173285380724626 1.3189657889983182 13.283848381454751 0.526041536151507 0.4803175517518309 -0.8432652726322252
Ni 8.04248315320703 3.5392889189447088 0.7749989219634771 -0.8265543876354474 0.0862931640712901 -0.5530633161559895
Ni 6.631069267333339 6.794252829435175 6.413400831268222 -0.3550089256492918 0.561564154538149 1.1367518133970036
Ni 6.137332006904848 7.535267166333812 0.986296524723486 0.2972902307815848 -0.6269164546917138 -0.36284667652615576
Ni 7.394483168220355 2.4523484519064214 7.645104862554162 0.6046884965314488 -0.8992695559119867 1.0884852650811319
Ni 5.32749447588692 1.8219766360096488 6.324463515619706 -0.2313319216129048 1.6314639433076097 -0.6792741423578237
Ni 4.722334933422572 0.6522691766477834 12.12697820225846 -0.2511463852356707 3.101088769686814 0.8032511941331327
P 6.798420837819253 8.996929224552758 3.092364240877179 -0.1397723669363528 -0.02912519950073049 -1.2137589241806774
P 2.431489844247122 0.7193388367275361 5.135584145978021 0.544412582459527 -0.42174730751710593 -1.232421019366555
P 6.532299536360955 4.25281667939511 8.42211166918017 -0.44780852338053195 0.7850174447339255 0.6732675311524275
P 6.554745514696596 0.7204537093487563 8.622049824591409 -0.5732994406972062 -1.0192747675237415 -0.8685099061316268
P 1.0682169193530149 7.821959306498388 3.516790028253189 0.2542700184663169 1.9516909853910256 1.9709066390875283
P 2.7347054920367775 6.277159869464717 10.965774779601839 0.8797988487818849 -1.1154288835495112 1.326539593019535
P 9.20182071910374 4.522437622636922 11.69916880896709 -1.584069513184046 0.11114776122112471 2.9952436516255254
P 7.831697036553842 6.3979300010390325 0.1876764131517074 -0.36471072631808804 -0.24469677295558503 -0.03451397461646959
Ni 7.072423295442547 4.402289443315911 6.235975490852681 0.23473529086749897 -0.8768572496550576 1.2435258710304649
Ni 8.565842050057784 4.831399366617547 9.653965154664293 -1.839275156090755 -1.8468043745882647 -1.809352914610026
Ni 4.417095620092316 0.3393909900452368 9.334507270193962 0.270703738542308 1.4387088535266384 0.3264794507510313
Ni 6.948432008168288 0.533260005408568 0.6551468661779937 -0.839525860194451 -1.4420888257424649 1.2132408468936784
Ni 1.4542728941349221 1.9147681990547565 10.780944494224205 -0.46864294362737996 1.2574036574538217 3.773946724105649
Ni 8.664416840771668 0.844791247653587 9.480629846529432 0.16966838316483684 -1.5813104623816703 -0.7955126878382944
Ni 1.2706948678464016 5.719612164421173 3.9484573820889315 0.29431572153429314 -0.3096384679342925 0.400777133023342
Ni 8.651095923107631 6.677000905383277 2.701442185928381 0.16625910037297176 -0.7628460508432088 -1.415700565556923
Ni 8.890733198018541 6.972957349261242 9.002414472112116 0.5807242724063676 1.7734112064080945 -1.6829438563544565
Ni 3.324631845729915 0.7863193812605468 7.15449871399193 1.1887860562854236 -4.408788604292027 -1.4676391634077433
Ni 3.652270723048551 4.40414601720637 0.357340346418188 -1.629829235917664 -1.9743478035585933 1.6709527454308513
Ni 3.151060752710965 7.808926157787371 6.15016371734875 -0.23317334569701778 -0.27248242770928555 0.7843630989793782
Ni 4.527329694838279 8.197915519316203 2.5825202736620168 0.39003557823612184 1.3671478534592003 0.5564558867773062
Ni 3.1667395192158856 6.504757262696005 1.5739597148441546 -1.1039687054287115 -0.3047690556571332 0.5601137952448676
Ni 3.3608071879854955 1.7098488558954172 3.2729949561145975 0.13042512139349796 -0.14212364077734876 0.5168639834172969
Ni 3.781302608435405 7.538571867858828 9.568302835358546 1.0475437896717636 -0.029080205195407983 1.23936942565993
Ni 3.90932266105196 4.638612733832352 9.191700534826852 -0.037923257408334694 -0.7872985274586183 2.0036943750415106
Ni 9.196464503429768 5.461455564952941 7.263693107359236 0.15400008049996058 0.0855485725957817 -0.0925154908319181
Ni 1.973825814510236 9.320372244878959 1.9045848912655925 0.595763169017361 -0.5064880394996116 -0.020494520408925992
Ni 1.5446323453835293 3.3742302172135097 3.290276874173929 0.9905439752479521 -1.4950880036473155 1.5808111541477485
Ni 5.420666636579572 5.357886590473723 4.907454844327118 -0.9690675505417311 0.3437600922083499 -0.7065674308561379
Ni 1.0285790667917294 8.67150895303322 13.222396713967525 0.9081588879818165 -1.4476382948057844 1.0185515162044716
Ni 7.036712096659581 3.5880425493081445 3.9388793173880567 1.2866751527244293 -0.05643699994180603 -0.37847384154045144
Ni 8.419553310359118 6.044828212812761 5.03935142322695 0.2479512753371407 -1.1735563838198626 0.17237961144841282
P 1.1555501551601752 8.815411995282647 10.224010386851457 0.08996084273086442 0.48496224961269374 -0.6359667378194402
P 8.405034902535734 2.522174195926559 5.817160269773636 0.7803154112725658 0.15849205483304316 -1.5290975278235408
P 3.400937032627753 2.507321604802893 9.881469719201057 0.6873314654446614 0.371082948393019 0.22851090722434195
P 8.832056180210605 7.599124025296126 6.839769523220596 -0.007311703170064827 -0.1821300059669573 0.4156867031453228
P 4.343241110729883 6.174147867152636 13.411818306576265 0.3751632891099797 3.5138850386582194 -1.5679260706549643
P 0.14068931284504255 2.6354437689834223 8.922947539878828 0.791118929645973 3.055827069635537 -0.7405296467341956
P 4.923782483406754 6.035229725799091 2.770134491588394 -0.9803546934197762 1.3328076854164335 0.8335012512669259
P 4.659796241922483 7.4200853221697765 7.712479929038896 0.9791341907491137 0.6532702620948944 -2.051459558240931
