# total energy = -340867.471514491 ev
CRYSTAL
PRIMVEC
9.29021847943793 0.00000000000000 0.00000000000000

0.00000000000000 9.29021847943793 0.00000000000000

0.00000000000000 0.00000000000000 13.59717381433074

PRIMCOORD
 96 1
Ni 2.1014939131980555 3.2867678811808476 3.1577128085909814 -0.42820668998920447 -0.205423172166943 -0.49482217312590904
Ni 3.059882160935394 1.0822547332026007 2.3303519468661658 2.8030408348035984 1.5212818884338637 1.0973738258200132
Ni 2.51287408591892 6.507231471747012 11.446549952275396 3.0103938770034024 -0.012757042555352222 0.32124699870749834
Ni 6.089245953555076 6.870135283472021 13.431805578554318 1.1469395525632826 0.10745488575056979 1.3025514576350534
Ni 3.845518792590339 2.0159495797274087 4.805445500538661 1.9472198369935498 2.2872592858172025 -1.702335630617507
Ni 5.3305974071230064 2.572554450625201 7.9504985281543545 -0.857420995307317 0.20092579851722173 0.0855899673566784
Ni 8.455910578118539 9.032368646304208 8.297362777353618 -0.8695735715094508 -0.16843759608152928 1.0056715749180098
Ni 7.853402736795197 2.1502861416285333 8.194187466899846 0.29037036373329994 0.5377662807876028 0.044732824131000375
Ni 2.509353093044748 5.5245307217624235 6.713903534220373 0.9902565259145205 0.797449242739375 -0.09099416909138522
Ni 8.352148125845119 4.350971719516652 3.956016653396146 1.36448804723885 1.0794820331412571 1.100722687687588
Ni 0.7795199516856708 6.782054720305731 8.06733975026487 -0.09433017544315367 -0.06482496689518513 -0.18225367602901515
Ni 5.372449842210458 8.853048845625406 4.556738914692006 0.2844349720854714 0.4580134889379918 0.9000213464763468
Ni 8.202631346644795 7.485398595022905 11.940154134315907 0.15059028348746323 1.8865266328785508 1.2659512899135164
Ni 0.9329794996875751 4.230858482392195 7.692574187347929 -1.0156479694044316 -0.22489207952483206 0.5475413578964957
Ni 7.508698463435631 6.627530513244776 8.064143915043987 -1.2693883406195237 0.8616944258716902 -1.111151853440712
Ni 8.951543743915565 7.237962911089672 1.7662591597240922 0.2598405705755589 -0.13258767626245552 -0.3352104028661259
Ni 2.159771454885867 8.308316874181944 1.9747586082089297 -0.08374931460351383 -1.3747143529525487 -0.711680069492355
Ni 1.314064269340696 3.9508141309435434 5.364941487485114 -1.049881950886637 -3.0529317503656133 0.10675631702164841
Ni 5.607724629910734 0.6800022003204539 6.696662746421195 1.17470618115359 -1.0903899383030125 -1.4510084968295978
Ni 3.4828193656759674 8.544864421839375 11.689001433894662 0.7199191695726956 -0.016947940708248233 -1.2186782158591658
Ni 1.4349485946143776 5.843213092640312 0.1103473592634286 -1.6036533488532447 0.4035528959962663 0.7781919371716598
Ni 7.0488698003749075 5.548694580511028 5.730624003612932 0.014974619031961308 0.5859868063568876 -0.05405178753908111
Ni 4.513754930971112 8.90098637393867 1.1171692329907617 2.2850609926143033 -0.9089451313285379 1.0375661096337614
Ni 2.1165626478732715 2.4930859201617 8.903905360643325 1.3246989402663703 -0.5547810701780446 1.2704782312495926
P 2.1676123994394323 4.393186473132054 12.244581593673665 0.5556153931538818 -0.47720343160288137 -0.8353326480487098
P 6.280819552653492 1.0357757692197982 9.223507463169085 -1.067853190653077 -0.741476069807865 0.8182944616195004
P 8.534134219280881 7.356431779510358 9.765966118105132 -0.5756512287588343 -1.2542769388993817 0.93671407391169
P 4.933672814645444 6.887703086968219 11.705018699895612 -0.5650739674636205 -0.773637742142074 -1.4248256677866429
P 1.104634869967456 8.139151282504379 13.010156927142628 -0.43552816335128214 -0.5166392690010005 -0.06982884786767975
P 7.9546847006849655 2.848343881925117 12.203097051245361 -4.946577510787449 -1.801803641507858 -2.1667185134169524
P 3.0739754226507467 0.9061465611164121 10.450298489345512 0.08057940151596445 0.9749857157983789 -1.1681377839074527
P 5.392776840650269 5.0568704043668 1.0163815087339898 1.7067640987025057 -0.5168657831895099 -0.11164938344789159
Ni 8.772261104111422 7.7315243581243225 6.127621059796084 -0.43947994891017855 -0.018383130492878017 -0.27410813623816666
Ni 8.092570126116259 0.6219141790934157 10.92209295404722 -0.6683019596170362 0.14030869905579707 -1.7645015626232903
Ni 6.561941569467325 3.1732599895274634 3.4141414241922843 -0.2221065463598949 -1.1047032696018908 -0.6510478005222788
Ni 4.961915079388143 4.055719280112804 6.15616154055794 -0.44785994544375773 0.5436281388850185 -0.7600049818499879
Ni 3.2730833890867705 2.2927051937685223 12.111206569404406 -0.4089930931752311 0.91683147605515 0.9293686892902123
Ni 0.9646498551177918 8.275959042570491 10.77091972885886 0.24379303019439305 0.4888438440552871 -0.7467226629187849
Ni 7.7335031747000444 5.234109196064563 1.8911633626142754 -0.9642888982061653 -0.5755560979418668 -0.17649234806520572
Ni 7.1346185186561915 2.2925193893952147 5.7841022183382185 0.19531025210265718 0.8008847507834852 -0.04358482656948622
Ni 8.438407806152998 0.7938631202831221 13.12306745773583 -0.4927035841210095 -0.367749770254728 1.9187376703934567
Ni 1.7540304448948771 2.005776790288838 0.6456618360458123 -1.1871829734643617 0.8783371766346938 0.32769661098758407
Ni 4.694319620951075 2.540354552731059 10.270625660357425 -0.7496087262173283 -1.1624700440987141 -1.1582740037394956
Ni 0.21917762581880368 3.442193239452343 13.044911635169745 4.729245760108378 1.5693021250668844 2.4821656176132216
Ni 1.9830064643400374 6.048712729518105 2.849899993551565 0.4316856496767404 -0.5524601353543518 -0.2210523940637677
Ni 3.146299774960585 8.796201997612059 4.337647687906791 -0.5077016001917385 -1.2649457314671377 -0.9130635243722856
Ni 0.2133154978409607 3.2441350677255048 10.647579998791924 0.2467891367082395 0.03516034995121687 -0.25437209126182
Ni 6.761569788148609 3.549560296567923 10.463093907513313 1.4994989882308176 -0.6960873572604206 0.08935509082606545
Ni 4.154715850210894 6.2797140166323135 5.015195412455856 0.5147515650599844 1.209317600579872 1.0452318537091354
Ni 7.194902747575722 1.1528418146220158 1.606982076793939 -1.4765850597471215 0.01472059403962626 1.6922656479760145
Ni 8.934421870915305 2.82103992926762 1.743986789495755 -0.37830234895959364 -0.7116967816629033 0.9928564254312127
Ni 5.020397005886592 7.809859481910649 9.488733915846485 0.029002043659304894 -1.5353679342132847 1.2178564912888186
Ni 3.5743744706231033 3.668057035644607 0.5729092046555014 -0.5093918434099679 -0.5551276548841859 -1.0310779308062565
Ni 1.5251287471990398 9.205956382066486 8.289843274365873 1.0929517854929178 0.3353114472203645 -0.004514857151218031
Ni 8.97971168690894 2.0237812340623083 4.1600958158400045 -0.3796598914287526 0.29296152149924387 -0.4835573988453672
Ni 4.467053001740341 4.8685112209265995 10.202938985205334 0.24361999495163852 1.8423404252796403 -1.297184022675553
P 0.9220077514437834 4.463021046839574 1.794065713211385 -0.45708094982139347 1.139626306731321 -0.7180651470830924
P 6.023740621745613 7.6305118105758485 6.59337874040904 -0.4284851404615717 -0.5702020327188051 0.04126209197358055
P 8.173683025283529 4.10255127240489 6.96645812863822 -0.4839366365616569 0.09404298322003804 0.30599675741664717
P 3.18666577506158 4.492127301918151 4.663177878962918 0.9017082472604664 -1.1635185399678865 -0.06533353110048748
P 8.655120736959882 0.6111765443599911 6.358269318601009 -0.8148098455050096 1.1080822133764527 -1.7774169851333776
P 3.56272453641674 4.08737105510569 8.241641903842511 0.5476053783652118 -0.06719012469325203 -0.22714796543854426
P 4.542294482711102 1.6593631166948453 0.31232971935451503 -0.45534108431215126 0.08109439347917002 0.0417454593679023
P 2.5494310963671167 7.446231033129742 9.107468915951257 1.537227870240159 -0.7989818773338175 0.8668875400368554
Ni 4.468242149729507 4.018010282550103 2.6333236289590625 -0.6501409724372932 -0.8353768710230838 1.8944127204948473
Ni 7.689959919815496 0.016042349591345914 4.405185719560234 0.15507891538643614 0.16992060838495898 0.0022954809023960467
Ni 5.83622684820396 1.860905120421194 12.205992812403354 1.0371351927439298 0.04587028016955326 0.21873351612260394
Ni 2.0648254201258744 4.941653112478988 9.74302763919849 0.014674828403355373 -0.49080405310545155 -0.7790789677623035
Ni 4.162463892577805 0.15756396660826094 8.29787931351141 -1.3643072986866114 2.898798229611582 3.3693108794578492
Ni 6.941521323696658 5.887490274799425 10.788786677396084 -1.139061949587419 0.444761251913776 -0.2054961914967235
Ni 3.6714386752387984 6.056832380631631 0.26336190579126206 1.0807233617475258 1.5743031778259016 -0.573205081211187
Ni 3.6319273752550165 8.203513917418004 6.619199974167547 0.2603033691445904 -2.271899515531681 -0.8012801864496909
Ni 8.746137009224427 5.078609516043746 9.36173569766913 -0.29637080429110896 -0.35318472795635947 -0.7337820435977168
Ni 8.279721581129962 5.4321859482287325 13.170794098085393 -1.0733869759871126 0.2297321812259527 0.19753399922685336
Ni 0.5249818955827689 5.810938872996847 11.297524625642469 -2.6485180490309483 -1.0036033795350716 0.7062463000712934
Ni 0.6090017041704301 8.210797448851647 3.767994704893498 0.04710209569412533 0.5513910706598891 0.928636439109878
Ni 6.799018659588681 3.295974487878221 0.4832567364910317 -0.2665125832790958 0.3945195821494044 0.1970380334270413
Ni 2.7787322734655646 0.14824123217757085 13.52204983364777 -1.2501240930732727 0.34270182614716466 0.17871403830687285
Ni 5.9640509668206665 8.894483220872916 11.643545322986915 0.3717601769657017 -1.0188672476726774 -0.10898443502121877
Ni 6.407120075409079 4.58684108121151 8.440799108437464 0.6895693536362446 -0.36841748574571387 -0.5384414524777564
Ni 1.1003799498187206 1.1506400327983253 11.915611234645755 0.6829263943984303 0.23838934268031844 -0.8393014028884707
Ni 5.832873079265766 5.712611198642662 3.5022238454023076 1.2888999282898899 0.23176720937811052 -0.6350591384035063
Ni 6.320906846194525 7.9961933976818 2.660327507553668 0.33746448900762527 -0.4691453371850952 -0.7413796534393167
Ni 4.67850766878263 6.00450057888965 7.817042678982706 0.08850251301778307 1.0807382741458613 -0.3335777523587094
Ni 1.741349296416659 1.1687652494144452 4.7808069116162555 -1.7549769109623063 0.621270055039214 0.3160752246985718
Ni 0.7640879694606392 5.99717059636268 5.0423627988989725 -0.8631931219044037 1.5422798308417698 -0.5791127049448737
Ni 5.257501966663943 4.180366143945957 12.161734210681573 0.1319217605436825 0.7582224360282684 2.070139136928306
Ni 0.8826218694119842 1.9293647417662412 7.044953973207458 -0.085623134587459 -0.06054330880069573 -0.9967035670914447
P 4.044078636125106 7.216307411380714 3.053136533162475 0.4358192122291398 0.7119706041495802 -0.9870282487852098
P 7.407397919108531 8.486363914903594 0.8556820933261694 0.13869301782924504 -0.1847684720310689 -1.6155958659271017
P 8.000457608049201 7.047513428449765 3.968729388617826 -0.36849179062707504 -0.9311129256748287 -0.14718100069559814
P 3.302440480069312 1.0349117788839195 6.451546830088703 -1.1066495946949844 -0.23151832659209806 1.962226337704711
P 0.23877441307151684 1.409530556345949 9.523732956624501 1.212954683111827 -0.1759272195903551 -0.773207853693507
P 1.6876518325308705 7.863724169732413 5.77981849851162 -0.5032587339290365 -0.8877296735931872 0.16378955578655663
P 0.9856643297388391 0.9250112791382947 2.536688632445707 -1.306869368284117 0.20700748593492738 0.5199649909401238
P 5.243761733257874 1.483629340420871 3.200801771782794 0.7152292202961941 -0.919942767990622 -0.21132848190778444
