# total energy = -381174.3047093133 ev
CRYSTAL
PRIMVEC
9.16720077129686 0.00000000000000 0.00000000000000

0.00000000000000 9.16720077129686 0.00000000000000

0.00000000000000 0.00000000000000 13.41712496364311

PRIMCOORD
 96 1
Ni 0.9490803029378023 3.0449774309264988 10.77438074015651 0.42623156854070465 -0.12922441621717745 0.01276115632041028
Ni 1.5799120615233517 4.726269566536484 1.0083389226060198 -0.43057621866264556 -0.30250751331646614 1.5254139083243665
Ni 6.380417620460013 7.095605961172806 10.28947248453787 -0.1546773090726433 0.14830765810087362 0.20450554544868002
Ni 8.31070926527889 0.8744968736257993 6.943389174829422 0.20212650369354224 0.7326517866480156 0.012934962894113207
Ni 0.8318464717189307 1.9479110048328485 8.676452160461729 -0.0825681498112191 -1.6724642969793713 -0.8241699465636709
Ni 4.698584620000483 7.371859558478232 8.620369059164394 -0.6956554119293246 -0.37205688227051403 0.3280923037641059
Ni -0.15976872639515988 1.5478726945884766 4.18065519023703 -0.12124962554181698 -0.5439664960610439 -0.1859673774351765
Ni 8.620688994473701 5.964015856716713 10.182618674829827 0.6049049834176291 -0.188439750235069 -0.13743934792780202
Ni 4.721750136522495 2.3830596942934066 2.506922328439491 -1.0894381159127042 0.08814050169267401 -0.9487319243081727
Ni 8.762432253857689 5.672013008368622 4.757269372896133 -1.1793483079112916 -0.6699155839610592 2.730919077136684
Ni 0.7564719129744586 8.979419897734227 0.09939354166466274 -0.09577616386106085 0.3624646105963886 -0.43429917604018753
Ni 6.832681473888357 2.131007507204883 11.310945255786976 0.21235615184135043 -0.672034430076275 2.321344143316054
Ni 6.312085305400625 5.551510153330302 5.831565388823965 -0.39753677170917345 -1.131750246417354 -0.19354107601737636
Ni 0.7571035331123163 4.811790383170376 12.379632778241058 0.9242925603188855 1.1224492807314024 -1.8630272642050303
Ni 4.790733322841503 1.7994023512291355 12.924635702244501 -0.3930787359378198 -1.1730107957290379 -0.4861012483131435
Ni 8.247813100317465 4.41360384749563 0.8917018761618146 -0.22760665024251767 0.6281922360803439 -0.3178896521994912
Ni 0.22953937526630175 3.832852507097555 2.929562372354231 -0.025898722143632816 -0.9688636620610411 1.1768329976886056
Ni 0.3164691906692603 6.936710869017674 7.938832596014185 0.009469887163648208 -0.8349258995285943 0.08427356253810003
Ni 2.519357636378592 1.0772836066815015 4.10590858475008 -0.3327634839875301 0.6739954104573876 0.2871886235712086
Ni 2.0650678315646664 6.508941776233103 6.087483384506605 -0.14687812474319864 2.7214821000935 0.9899559639549662
Ni 6.987157975238738 2.9871140592260894 7.477229198370319 1.326722141343986 -0.9835636872753769 -1.4896917723324086
Ni 3.444759059547358 3.3514277877980123 0.6018148177675351 0.1852058166788036 0.4326582980026549 -0.4850540379955517
Ni 1.2303850279059219 4.213263840344053 8.463146981162513 -0.8327188645749465 0.5439412992500633 0.2650406267192597
Ni 0.14369312300259993 2.5977372035583293 13.120955891827855 0.21754438091050923 -0.14435895786577074 -0.12395442606748976
P 5.262037452413978 0.002388972538835036 9.65537903589354 -0.8726277849547424 1.0046302781376892 0.888125109259393
Ni 7.009406771676775 0.12848840368981485 3.8879473841443644 -0.5318997947044969 1.9078081679651466 -0.5221198324995976
P 3.3478525794705156 8.49359492203161 5.245385232088599 -0.5529216483718026 0.5444490921244171 -0.8177786983253464
Ni 2.0254471895353303 7.672736257239186 9.541883589177113 -1.0797262879415792 -0.19422421812733 -1.2000045507090622
P 6.020549984295362 0.6794637590403456 1.7795672787722001 0.5837738578659688 0.3880319175425317 0.30037658301639236
P 1.8687155567783746 7.621968298988732 1.50687697243318 0.6248878542974592 -0.8562909954679317 -0.537250774603765
P 1.0712149197255967 8.983664311723023 7.763484211791894 -0.2317888066446653 0.39848962254074594 0.8222125657269839
Ni 2.400440707085545 1.5969172190810608 12.451749313807088 -1.4192851975843879 1.3728819277295 1.6612699709254486
Ni 4.325543716229132 6.505439905512324 4.666650675875265 -0.7097170322287132 0.32136758344576266 -0.4409881580245889
Ni 0.9445425385221333 7.402230494860276 11.625281238820829 0.28823069168247784 -0.8060421266147085 0.4904512977517231
Ni 4.915883948705571 1.0111880886270095 4.3926329588546515 0.05184320992353652 0.37100452974659975 1.8180638121204626
Ni 5.361483247123427 8.284179386048695 0.42001272415407126 -0.3765403719631644 1.1657397159889213 2.0013477291862047
Ni 3.678733526579924 1.5558206577165272 10.59887101319944 1.531085247677531 -0.8204305341258967 -1.0751001020234774
Ni 7.623315877512174 0.4221413481890578 13.195688746513545 -0.7233104546424317 0.7807689538702167 -0.11638638391224472
Ni 5.747724920103997 7.202138002131371 2.3443071861835936 -0.2446237536258045 -2.1307289826962204 -0.8100677028343339
Ni 8.233035572563812 3.5983921784204833 9.221213987083086 0.4719550387197484 0.6553834517831552 0.9869351748507711
Ni 0.13367153904460125 6.587761369053148 0.48973020326034267 -0.003532438633290691 0.5070575388498364 -0.7005448788111419
Ni 5.412067861357087 4.642472183660463 1.078027066669604 0.38813707566182826 0.3722484294560299 0.15035914131326364
Ni 2.5700247554198095 1.8716948970512886 6.599266206107015 -0.22695950357682204 -0.2296576192342754 -0.8761663942356201
Ni 7.501107923117661 1.3871899982695952 9.389974820781942 0.9404552861216771 -0.041754715339282926 -1.1249571347549205
Ni 6.762488217058503 2.6488351810390145 3.0261791688845374 1.9329810676863484 -0.35255326501994766 -0.05151025206415
Ni 1.8210919484159493 7.5723829096466035 3.878434579832971 0.9346934439372353 0.5064435594149214 -0.2929226978415084
Ni 3.178167691927014 5.857868838193418 12.985549918384374 -0.9444001297020379 -1.1624211931386497 1.8253739726286304
Ni 5.235727586003938 4.378814320308834 3.7619607095637133 -1.0497132865192567 1.3379799736459923 -1.1999880956488302
Ni 7.706187373103381 4.427327147152714 11.908302063786147 0.15409238310345075 -0.12051866091306343 -0.21946576630293815
Ni 0.5267216920888428 3.0953970355450435 5.696710364150954 1.4105827847143835 0.6776754304121362 0.7828065531255357
Ni 2.9657453140686663 8.655157669631107 12.627352546212723 0.7261566658419751 -0.5882714886260063 1.2926203145642705
Ni 8.121965767189579 8.32244328235375 1.9092565857720203 -1.0160835142799534 -0.37674374622322215 -0.19885837446523172
Ni 3.329123988154936 3.65496297480249 11.71736302109572 -1.5053891284630074 -0.3248547706634147 -0.21855019646720428
Ni 5.4873214130504735 3.908940274067358 11.97219470347885 0.43434134213203257 0.5545041623675742 1.6408528407216774
Ni 7.543020365356931 3.3676445660835044 4.993800572242901 0.8506188847838189 1.0578711397397007 0.15505911789209423
Ni 5.416293940944205 3.1454041161257997 5.563115829593406 -1.6270758415422428 -1.085256730841505 1.8234186486744726
P 8.706879016768893 8.02664521285801 4.11791670113005 1.2551200036259675 -0.438834859127012 -0.7667361299262344
Ni 5.315014706066808 6.476572390067997 12.471124192781868 1.3018176647928226 -1.2519711735843408 -0.32271072773721843
P 6.659513050025756 4.944256435304551 9.94349865796592 0.929265588053445 0.7979405805534967 -0.154682708389282
Ni 6.73596750502915 7.06707763215955 4.213379347074634 0.33411537002973424 -1.0212809993204928 1.0520856434061752
P 1.5982556304036621 2.2717698760990195 1.4072285825851727 -1.2411450295031141 -0.2881520159257424 -0.3795737594728495
P 6.870670354168221 6.310985241299857 0.6006689176625681 0.5127533036830331 -0.10387950969448563 0.5166914623951746
P 6.233623233413331 1.065934612041909 6.185616436055804 0.6971438235493929 0.33802627504836624 0.17348235759428832
Ni 1.0014891901385694 0.1906841945070834 2.454757288781061 0.5372034663055973 0.7920910637512552 0.3921775642797891
Ni 6.813412017723233 8.676013051541505 8.35499142893523 0.14498296460301482 -0.8814081022505336 -1.9123160831378294
Ni 3.3361827328015328 0.9732817131547037 1.425166961188367 -1.4759690234296774 -0.3320068083271637 -1.9447796029831734
Ni 2.678921934195026 3.481932058952485 2.800704530470574 0.12867265747876547 0.6045414294306234 1.104195476727537
Ni 6.772251285952821 2.6245145972111965 0.2124214611382639 0.2306068705214222 0.4540653029235212 1.3729888856210095
Ni 5.243253857893359 8.177188985048145 6.312704091457308 0.2726336085751692 0.5796467230714727 -0.2778480628965731
Ni 0.8382891804690966 8.99592085924575 5.610666100349114 1.5713860041791068 0.25894839777859274 -0.16224637966915284
Ni 2.8147065130331863 5.880044297024738 8.527254133354866 0.7362934971656611 -0.5892953019048303 0.21621743456896955
Ni 5.326932067158464 8.825227579609876 11.812839417841564 0.1593636588047191 0.8921774249518957 -2.9243938186924994
Ni 4.11534896817484 8.69971026571222 2.8773826651744567 -0.2256641818041662 -1.781132486311752 0.5094370948256065
Ni 5.239284459929754 4.215381463738032 7.800059509702272 -2.069325896998391 2.525092498883735 -0.6495249361198492
Ni 8.036032426517899 7.714236175440669 6.162243740794814 -0.722151401337324 -0.1914677384281154 0.5482550961340686
Ni 8.498187689652317 8.32457007294857 9.912410846478208 1.1771158190363469 0.5062180736676766 0.5616405163020393
Ni 5.613425427801874 3.112668041927105 9.726852033960622 -0.06073999819253411 -1.3346092574015467 0.03497728740613332
Ni 0.2394692872159031 6.182882776765394 2.7896883052214645 0.46357581351711774 1.3213570203773306 -2.5982396124913705
Ni 3.1317174852720746 0.2730716618939531 8.374271885741363 -0.044969108511522554 0.15667017113295598 0.5320543180044901
Ni 4.560453237747351 5.056472140783752 10.238460678745078 -1.438814011645935 1.8744249645190103 -0.6688110380429707
Ni 3.426424657867887 7.052749297247044 11.20288320900826 0.7911055599095344 0.0972172671829616 -2.6847271519616536
Ni 3.343213975845609 2.8017440910458005 8.564606809896452 -1.6413277234755665 1.6652968326966546 0.9936976903855854
Ni 7.300978761585399 5.032362402575248 2.8885859013206976 -0.8316824528906323 0.542541333578743 0.3061620793499179
Ni 5.112538741119573 1.5951296149173124 8.10562064809233 1.1259158991237643 -1.6997830393989821 -1.2160070967849057
Ni 1.7932694938673526 5.249423384058502 4.2689665028065376 1.4754607163346911 -2.095684332387262 -0.46367840053325304
Ni 2.6927185714588275 4.488114855920999 6.631977528863443 1.0395972811311773 -2.4134024920058956 -1.1219252899071324
Ni 7.744304594195 7.470498639513784 12.296231418441312 -0.3082714123834368 -0.7016198570428755 -0.4467492288780822
Ni 3.3157673765314417 6.033906595918856 2.1779884947884427 0.182153403005725 0.3920284402964345 0.1163817559265544
P 4.311829583772888 6.159964774666057 6.881307974022649 0.30706813610395506 -1.324760132521609 -0.5024241538428831
Ni 7.008444215588603 6.252727679963339 7.888625670455123 0.4254831204104543 -0.5368535391653464 1.3128266143088165
P 8.835549847755418 1.261489340355144 11.462303992131764 0.33517646430439696 -1.0297437853758653 -0.966098183500762
Ni 1.5782986341755583 0.3794854459616852 10.562578065074927 -1.0921462588724868 1.529971702898378 0.9992337897124661
P 9.05204246278661 4.894249354723795 6.784409744426562 -0.4218972028314089 0.24749181920221894 0.8676251895338283
P 2.2438465823411855 5.127774628915214 10.618353148424045 -0.9519434892669347 0.721243287700758 -0.21997510183918886
P 3.259123242542717 3.1410863645302847 4.821483781338311 0.15633001418471787 -0.0564925357700898 0.8818341340443586
Ni 8.56637332949827 1.8890117394375487 1.8416878985425829 0.12438328607479224 -0.7263996350907167 -0.794526155555309
