# total energy = -340868.91750470817 ev
CRYSTAL
PRIMVEC
9.27513459295881 0.00000000000000 0.00000000000000

0.00000000000000 9.27513459295881 0.00000000000000

0.00000000000000 0.00000000000000 13.57509702176765

PRIMCOORD
 96 1
Ni 1.9218078619845067 4.61885001316008 8.174447769002422 -1.1981039912522398 0.5084909288622533 -0.25053189158012334
Ni 7.555941919528805 2.6767481569573204 2.9118449903440062 -1.2065104701483802 -0.9326874692508 1.4742803228733448
Ni 6.36761169135576 4.128631331068057 0.5768456554924895 -1.10194190480667 0.18084908237200467 -1.2345012989343513
Ni 0.44166149811971933 2.496226214786449 9.184163950164876 -0.0085453184668498 -1.2907848040174286 1.7613959271147728
Ni 4.947644254952979 2.2663791075092385 13.080746257032775 -1.01436164649284 0.2867793039479319 0.3626744126143496
Ni 4.516443253487441 4.397257775560313 2.0595862744682667 -1.3674957237169223 2.0363273305851837 -4.354588206990223
Ni 7.945942773682882 4.719986079410461 2.0767183753460254 1.9457964742834617 1.8035743602550358 -0.6810428042224722
Ni 6.069620171134533 0.8224586363401697 2.7659805156301394 -0.7628941304723249 -0.6043514249070043 0.42169177168882216
Ni 9.140830521925535 0.3570583590603965 6.3242708430088435 -0.7481740506533309 -0.8423867266820138 -0.994160746064933
Ni 5.7290836091038315 0.30879055928352694 4.936014163842254 -1.5295384720157013 -2.9528675006521596 0.24745865197143835
Ni 7.26343200377878 8.39737284342539 7.469439232930224 -0.396240421495253 0.24963483368715073 1.2440616889292768
Ni 9.157813293138343 9.2730661140506 8.975053261020093 0.9473594694406782 0.2800918646254273 -0.43812600598544543
Ni 7.929331007848836 7.754262844745758 2.746907129108011 0.17969928503827762 0.7254485840313571 1.1796920644039555
Ni 6.746667886836372 2.023621013051128 5.535734155962284 0.23043717771277733 0.44073310459098936 0.32261225448614117
Ni 4.37493252689334 9.218788027137792 1.075343322611575 0.9814386705125744 0.4952240365500182 0.5198930000516079
Ni 6.450995150232404 5.232010602639191 8.31782836270548 0.8122336001374012 1.657161862294346 -0.20985266869320632
Ni 8.42512404575675 2.921908511242911 0.6778425947258355 0.37767191446444637 -0.16768194886242735 -1.2583709064630972
Ni 5.505246788962558 6.376404518832407 12.94633935592851 -0.302991137821104 0.5622616948258059 1.4276083727381026
Ni 3.5294390940993163 4.564312222482141 4.202836116874143 -4.108648819876788 1.727732730534373 0.03937053137782251
Ni 8.298555560792268 3.707920506686999 7.834378673748962 -1.1038391218293828 0.040594376482594605 -1.3686324084245267
Ni 0.21349411769485124 7.2733471225261805 10.770414142301664 -0.1243640028010826 -0.22888603117557355 -0.5393066286915292
Ni 2.632589241750234 6.007226341561319 5.827626347756672 -1.753656135268354 1.0555566326739112 0.24626231767049198
Ni 4.099173503994395 2.5417300244915455 4.799705860171836 0.5379799394603056 -3.793035108195668 1.673087275275351
Ni 7.182228201502358 1.9392914904586418 9.813152556615401 0.11247547889361274 0.16137091904273498 -1.671853659978566
P 6.059732877790539 8.305001779248249 12.233171484063899 -1.2495227120438481 -0.6808484288234791 -0.31975318777079126
P 2.248264769891209 7.513721507425747 11.453879323542628 0.0507368642332352 0.6192849062883851 0.35549666391898777
P 7.7202045509754536 1.4812018741673638 7.70174981592241 -0.33216930204695694 -0.20239801218737402 -0.5028573847255597
P 2.9700928348095594 1.3484654247809724 0.33927792628325226 -0.7773172478761903 -0.5313868596238204 -1.1260295418834931
P 0.4349240404414107 4.807339295839854 6.537861422102172 -0.14607568344656136 -0.7911942629685987 -1.2883455984483165
P 6.273534002436316 6.440950179602438 2.275525317609156 -0.28026541408881406 -1.2438904534587352 -0.21358642470402572
P 0.07386902593830602 5.191005233151578 0.1225681194679858 -1.2944452835881513 -0.2991583943385751 2.075471861995129
P 3.5167599852801428 5.339082754949756 13.413485213515356 0.7463154001780372 0.30967343493728605 -0.7153222942306325
Ni 0.9754195164362965 2.0346398728003443 12.436580748050567 0.5735344395261478 -0.06374227535396763 0.6415645436221918
Ni 8.461899953926483 3.306307184177689 5.237136969460228 2.089294626810834 1.2627613222213092 -0.481661467374235
Ni 4.621076045432649 7.608411355220149 7.291048716660337 -0.2590427572646119 -0.004470119956211656 0.6008639805790362
Ni 8.21279766749155 7.641143304761381 5.451812739286434 -1.0663449815386667 -1.0485634891855296 -1.1214936016863524
Ni 8.147528546232936 3.0259569697165705 11.824153821707956 0.07151626287243167 0.24846986684477207 0.3230195172268889
Ni 1.5976697376950637 3.0990821298704594 4.861934592351501 1.0087643549107208 0.5612008576614593 0.5385088153805823
Ni 1.1727201768616557 2.2005442030480125 1.5189451788622168 -0.8909828904231624 -1.74536946977953 -0.9130087598749502
Ni 5.868359028290895 6.446979017007311 10.543574033619315 0.004602017548385623 0.8071700695715647 -0.21405513681032812
Ni 0.18286855119153733 6.708083327445177 7.4147317072915016 -0.4435811155627457 0.6014620191743513 0.5826675121756675
Ni 8.146647408458376 8.09479013164199 12.439567341349596 0.40141348105576025 1.7767811513215916 -0.17421460777462253
Ni 5.845542197497063 2.881598776840476 7.504666193643627 -0.8420586539186337 -1.2944416840437254 1.716362026803586
Ni 0.3920933244902908 5.4017177380191645 4.302925947956417 0.8345142659124724 -0.13293014720353882 0.7500152176271276
Ni 3.1306732378720006 7.076510218824273 1.2015955254906623 -0.23819291039879623 -1.4050939936856703 -0.06529290767053916
Ni 5.204444902997213 4.424610147109504 11.841679188287204 0.04498762045428381 -0.7680844164240127 1.1441005404525908
Ni 7.830894005728943 5.507333694218091 11.941334015562877 -0.6287365386195881 0.37584026057234626 0.39590592097396976
Ni 2.966484807501104 5.5007761741484815 11.023019647025551 0.9314723658967764 0.3121154687198754 -0.2900047528637651
Ni 7.0231967458962465 8.995090334013554 0.8949067116778192 -0.28437300849928443 0.833539817814345 -1.0234983186867859
Ni 7.422528385326174 5.589696888303141 4.063908515229669 -1.203213287454347 0.5892099412798755 0.836456477240508
Ni 3.729513019730918 8.045260913577332 5.096458222428 -0.7710473557070786 0.3389361884571453 -0.16037513078836896
Ni 8.80842825282418 4.934937320730398 9.709194066946091 0.38999315503396065 0.47895666684856225 0.2802584721102786
Ni 0.9595126608218978 8.037330673606306 4.367665459036849 0.8744730656935972 -1.4889888327281129 0.19191742437102433
Ni 5.4522208452030725 0.4079213414617027 8.755842877951975 0.5662420196297926 0.5272000752359823 1.5188599092559325
Ni 3.3122247199689343 2.2669912663841947 2.5041304843809624 0.45546655414642206 0.1803690574117926 0.004132791221450947
Ni 4.733527775735256 7.767619038381172 2.9032376655567393 0.07569944771584382 0.03363799976941949 0.6972271272918187
P 7.897007164224241 0.21324090652384653 4.007355237831608 -1.5097931710679742 0.5367424675087787 1.6913829882607452
P 4.135912311626251 6.3257437343625265 9.054738723783933 -0.2611052962205955 -0.8780998638129072 -0.5051996597054912
P 6.370255104679436 6.692083720486089 6.449881206582673 0.5788311691487128 -0.9997888908849878 -0.8102456231730949
P 9.324756438446544 8.78886699422898 1.006059923154761 -0.7193257589630709 0.0663624865856341 0.7127115960806629
P 3.6250471802061517 0.5351038403280346 3.642157948274632 0.99046375682932 -1.56269104750827 0.8332850214910618
P 1.7182279355236092 3.8076189270946803 10.156045930314683 0.6908374217153909 0.03014001391849003 -0.13017392461464034
P 0.3267119741046006 2.991740998660292 3.2800288732000125 -1.168506222990465 0.8351850667272519 -0.8533152006690594
P 2.970482390457259 2.78550838374125 6.57919791389033 0.16245258214268796 -0.2706644006639403 2.219216583315668
Ni 7.3181460220116294 8.844508525908735 10.327173088781867 -0.9361150068751105 -2.213002741195472 -0.656462800890263
Ni 6.509484148194153 1.0612237854093596 11.869752237784637 -0.3988164097525454 0.5988883449099041 1.4081605484261364
Ni 4.351744690720747 0.8203337030333133 6.951956293066466 -1.2401422992702127 0.8752999324702666 -1.693944064119702
Ni 3.113310186145963 2.964537029262606 11.61010134091807 -0.13497443132707723 0.09205577758668017 -0.618171104398916
Ni 6.63975341181178 4.394660737908982 6.097784116949764 -0.6970623195791801 1.5795297163321635 -1.0875763801136173
Ni 2.130127382159082 9.045482139583834 2.0436358257218634 0.21368129841067715 0.018966770910489917 -0.3494358024368885
Ni 0.5578566726940297 0.747420015945318 3.4319880387734836 -0.5491567820127317 1.8363081030426311 0.0443759550122139
Ni 0.6848267709810205 2.294454939547014 6.955431685952014 1.880774303775806 0.8720397736617562 -0.1792025479075172
Ni 3.839015257272371 8.265628833427186 9.944953144933866 0.8111272544470998 0.43904671802750195 0.4429432248684307
Ni 1.8421251817610083 0.29925943110314435 10.729484828916695 -0.5186781538079003 0.22137455328987685 0.08946127738662658
Ni 0.8344068645631835 4.713205956113596 11.818764041067999 0.16226694849444312 0.08098332182260247 0.479184209478336
Ni 2.2093184802557215 0.7618298648564142 5.460813329775188 0.5149181725448357 0.7791563579674581 -0.2238232719406855
Ni 0.8830363945843455 7.275823583429413 13.336379165647356 1.4417381272712655 -0.614246058312897 -1.5229525912680673
Ni 3.231503224684904 2.6484868222301636 8.809327940867679 0.31870983410794146 -0.6987911293448288 0.2652614844808141
Ni 2.771846110668358 3.443328745688775 0.516756696834832 0.7131049748643397 1.3118629648439666 -1.7844052435257527
Ni 2.330702165052011 0.35347722964190126 8.351236469549505 -0.14741265709043 -0.09885660255859749 -1.0928252872173825
Ni 7.659517346144543 6.748847543436596 0.5856542506977341 -0.08567429954036858 -2.071409519000297 0.3082829823476626
Ni 4.886261415036891 4.262332394439229 9.582009713052866 -1.7506823973520107 -0.8716867611977116 -0.10548979160439896
Ni 1.8160156782306685 4.357968305949472 2.4579616475344364 -0.24228893484504077 0.9936382979025596 0.18138644293271342
Ni 5.164088792922432 5.9270149786730855 4.762781549850599 0.525809879756675 1.47879338025235 0.4679235489628522
Ni 3.8124141716151723 8.82452061112796 12.45706581003888 -0.2051388081573048 0.22857209947958054 -0.8075469932950092
Ni 1.8896973464527 7.304038542484224 8.951785658691067 0.5525709499006033 -0.5283005073890128 -0.08834567572494463
Ni 4.01127305463133 4.781637898226152 7.216792917614672 1.8892355471692817 -0.33862405653336525 -0.15387178245221242
Ni 0.5013098878900976 6.612707119700067 1.9470084023368808 1.5616762330905105 -0.49783524892062003 0.8654965732265997
P 1.6390646628303769 8.283335065128577 6.553323998775505 0.5361297736254445 -0.9387331612242479 1.1664678524041974
P 5.272051358142025 3.7532944645095294 3.6782947996794473 5.802939982923264 -1.0441386206449565 2.2615927342890343
P 8.783320463816498 1.0143379806683765 11.152294616228096 0.8974566710729641 -0.6006166404549204 -0.2667673796023793
P 6.411093521746606 1.9049549426542662 1.0044757301874494 0.9873308676272932 0.4198876286005478 -0.9486702178323017
P 4.494628137216265 1.6150606148245086 10.611762039695336 0.45626591011926576 -1.096477539257989 -0.29404961235710003
P 2.2753759879442046 6.395520570973092 3.566408852579452 0.4838263362360377 0.28217574373764953 -0.8208244271302056
P 7.73950610580552 6.869748921240495 9.287117015257744 0.6586392397162915 0.7062894946044029 -0.31597752277844293
P 6.870240503367355 3.960398942068661 10.385695477227705 -0.07535800521602505 1.485465392955887 -0.09030691321637349
