# total energy = -340861.5732951986 ev
CRYSTAL
PRIMVEC
9.39340037899323 0.00000000000000 0.00000000000000

0.00000000000000 9.39340037899323 0.00000000000000

0.00000000000000 0.00000000000000 13.74819095412065

PRIMCOORD
 96 1
Ni 6.096363750883968 4.92974100929525 13.200036295871282 -0.413403820648417 -0.41330817561081723 0.9649473577257704
Ni 2.9817846255392504 3.3051712170935255 11.603926627847997 -2.414311634083726 -0.9488052007482691 0.3583721856945699
Ni 7.278889519152365 7.448412214065661 5.508872316963527 -0.7886429573016547 0.4364928412573967 -0.6328492752363811
Ni 1.4877830972758423 4.774214480804121 9.745019678777986 0.43871067484432186 -0.037476656789219326 0.8043976490327501
Ni 8.736228606109927 2.507417911230978 6.517205931037785 1.2295866352415534 -0.10038075251260777 -0.12589380918204768
Ni 5.025055841970222 5.679625547313937 7.5584117494035645 -0.7810648878440807 -0.39027700482296657 0.32662137564553423
Ni 4.51959697272412 4.584110845870045 10.71301615335556 -0.004875325814430313 1.2972035630595788 -0.38981497758488354
Ni 0.2056882253441519 1.9504550282313662 3.8371889863007205 -0.7195746417490834 -0.7913904381398048 0.8712440172333382
Ni 3.6126078149667027 2.331611031528134 4.6317513540870205 1.130854216965646 -0.39697164323432277 1.1915265951450382
Ni 6.672066467448826 4.083517757970709 11.055855537556587 1.2071699581092499 -2.055375862576202 0.7577187569189725
Ni 7.990261116009391 0.5274441226092406 5.230347665822417 -0.24728638805963218 0.16659282956330665 -1.5962285171440833
Ni 0.71384300047157 9.116003779565046 2.9147401703569957 -0.7536556425931924 0.21129042958099742 0.5375803900290419
Ni 5.682189945591287 0.4036052906339032 4.274820930120966 1.3134331375445638 -2.0995317311578097 -0.6756972236398426
Ni 4.137191647189669 4.6095293870367415 5.429105440437526 0.7788995047616456 -0.7061488552614806 -0.47111685908916934
Ni 4.471371255669492 1.3645604723590916 2.7014367154031462 -0.1877992884375927 0.13222077984134 -1.44199549469771
Ni 4.278844123462317 0.21829135050429865 6.012358572150128 -0.215702442605764 0.3950798255282486 1.0662830179524796
Ni 7.3817002852534355 3.5625597782571092 1.7480826731872305 -1.4435342999397398 -0.6903445412393724 -0.04496370919488385
Ni 3.236251839214718 3.663801846510863 8.490264298370933 1.441841228508033 0.5053091887001621 0.41903350813036866
Ni 7.244688148720753 8.149056547799121 2.992760813770324 0.7003443327645617 -0.34911647142425684 0.7756025791779287
Ni 8.044536182846484 2.535588718680691 13.11521013395268 -0.053461976473882115 1.0361023806040415 0.7373733604934011
Ni 4.777098254691103 2.5461281137985896 12.952253425837434 1.9539057336541572 0.7614712819828692 1.1782633023772289
Ni 2.4698537034979324 7.495022266271555 2.472391800254489 0.22894722343081217 -1.0250479225620928 -0.17363353846017193
Ni 9.166324224882857 4.261053023325687 8.350417233632742 -1.1478610359362875 0.6040336365562694 -1.1288186745928561
Ni 5.997009756087163 6.270254376929012 1.8035018561788334 2.005185871985373 0.3022941117540794 -0.9420061755485647
P 7.852431753652059 7.302927230477412 0.747282566140204 -1.013299780887229 -0.6424258631812226 0.5688293207409946
P 2.9313608528183237 1.1441913017121197 8.969842471156399 0.45881258780051953 0.9619039429137562 -0.8533853917853625
P 3.7293959606893714 4.832030859548029 13.051859163761831 1.039088459815559 -2.2925734989412647 0.049541558373553396
P 9.09633399937175 6.508583728917714 8.398783851691618 0.02445941859394497 0.2629382356642762 -2.0055617672675523
P 0.0852516829514374 8.786896607238221 11.269886981032395 0.37883379598303146 -0.8424301783254395 -0.44124166879629173
P 5.185946002023134 7.68498500020138 10.684997518990437 0.5343654826361701 0.09971663656604762 1.3657165203293125
P 8.775295757888307 4.3132239684993126 11.489157123846217 0.9612927916923186 0.2986158915715438 0.2806256256417103
P 5.038366290171703 8.135642772194522 7.299849013204565 1.2926604237735866 -1.7252171632013709 -0.9795296264153195
Ni 2.9866128332848834 3.857305892347505 3.1294873909343934 0.3012260755008812 -0.39710971147408386 -2.0565547133756517
Ni 0.8967522301286416 0.9508939106817113 9.58807098948396 -0.05653444475161877 -0.46743889601694977 0.498009055494323
Ni 3.0311657308287274 2.3678789500220794 1.070947202342866 -1.055176623626673 0.9839745495605505 -0.13322479562582215
Ni 4.602390402821409 7.0301334928491634 5.393868917294691 0.08925764601625273 1.2141006237908123 -0.4547381606208298
Ni 8.671376570553804 8.558420932146735 9.189262908374754 1.0551514268156925 -0.011222093968064544 -0.5193962629208474
Ni 8.996829710170411 6.33548214849647 10.436073350822163 1.8711311242590871 0.1964893600124229 0.8986074968479556
Ni 1.651585211416588 8.863518573349362 7.799073482682618 0.7162512338028051 0.8826190918394993 1.0393810513553132
Ni 6.231741435767351 8.743207902520444 0.8941662270306402 -0.9517475712060448 -0.4581513000674367 2.596663783363818
Ni 6.706173903877605 3.409541287641629 7.511777274356934 0.44136919551309145 -0.7862757426210587 1.6390738944443835
Ni 1.202599464673879 0.6253036274209663 0.8580382702009165 0.11415518058888083 0.2617853530067556 -0.5757286189639892
Ni 2.9751247047383678 9.134396057319812 4.0256769563860635 0.12142728877026186 0.9796746366336161 0.49946609965582367
Ni 4.291299772238016 5.686614237124737 3.1516351501224333 -0.037797530463747814 1.178685477516312 1.4646525699755937
Ni 3.145154643266963 6.660127455688712 12.220106445573762 0.5601973560976093 -0.37630922978896486 -0.6315763220612284
Ni 2.8878318359053625 6.876945921028583 7.339815113390057 0.5263328421396807 0.26216073406830337 0.3907683426370883
Ni 9.00139490270811 8.495607264452092 6.662551892301839 1.002966003061389 -1.0570704982152763 0.2707592743705917
Ni 1.1564121154807347 5.403713200791622 12.138552944313874 0.03615485265400225 -1.341575918527367 0.11899142563525958
Ni 6.197906407946788 2.1545548295876067 5.578713187410128 -0.9669193938504765 -1.0908136561039925 1.4530185852810913
Ni 1.4286140688911333 2.6039257057419323 7.801287507129399 -0.6568960317729396 -1.5764662469154913 0.7318534591164364
Ni 7.0100504030434 6.237208394732249 11.157042184748668 -2.938186758711533 1.0040828902746515 -0.37735001234865334
Ni 6.686691991689974 9.180151310099921 10.082180752507739 -1.2200959221422987 0.7921178032241325 0.9355640194676468
Ni 4.869388412474841 3.8701842441359533 1.5113389271663542 0.14847503691667333 0.07006847468231157 -0.9363926860165294
Ni 3.7134271802077063 0.3409390993237095 0.3729020224678038 0.24847680882330755 -1.1830224143287689 -0.8192629961803568
Ni 8.070415000627063 5.764748540681493 3.5420013823970087 -1.0580714286759647 -1.1854839884953843 -0.022906215174212163
Ni 8.231323947480544 0.2779366242833726 0.11409505786143702 1.3325413191289246 0.521982792701101 -0.09462559519638543
P 6.605006982826118 2.087720786571699 11.553044457193245 -0.8257182648873972 -3.391787720404126 -0.0978772693644637
P 8.4321454521379 1.445184026990931 8.33233869544744 0.08984360042670979 -0.4014235083580893 1.3420983666897401
P 2.115074368196762 1.5310678857814368 2.8532443967221055 -0.040098153572466426 0.1158989027528649 0.32084539239370546
P 3.604059820708871 1.1564684758824348 11.931133515297503 -1.1902757534570727 -0.8413680556095122 0.24405348294463125
P 7.785071680220284 3.3722307017162336 4.915212237077021 0.2142623677251278 1.3138540271320662 -2.0712727363121166
P 6.137882580136296 5.627755190949378 4.6949388791129385 0.15440142970343732 -0.202503941637619 -0.3705602431203296
P 4.6363945118470715 3.1760025697974257 6.874136355003839 0.1416320458529109 -0.6324744083954656 -0.09594637089033799
P 3.417779299690111 5.8039472000638375 9.337207084157177 -0.778280383120408 0.46969426771002976 -0.78124357951379
Ni 2.1192732181234115 1.3212381102523638 5.9453779920898 -1.5647713270760664 -0.6618171232236408 0.1492831346402655
Ni 1.057424463294981 1.019446945949469 12.194067939988365 -0.24518631099749383 2.745705234306923 0.7797793362634377
Ni 2.4069085281993243 6.007727625810446 5.131484945860431 -1.3174312029603634 0.6889283776181361 -0.17109920207409243
Ni 5.709722001821734 0.09941786991873058 12.70624309043705 -0.39572748641457656 2.713178208213495 -3.3662808343822737
Ni 5.852539259729515 3.424617695096377 3.6801022140225292 0.1080459823673494 1.184625754260147 -0.07042817201457549
Ni 7.960427676709528 1.0113968019066535 2.3125283388525446 -0.6645548338697781 0.5570912063684599 0.4628862436492609
Ni 1.8204503683100497 7.295468870652447 9.893679631662 -0.1354220603874571 -0.38763339655253237 -0.5713322896685065
Ni 3.81912172019576 6.219576982400435 0.9016706145169943 -0.10142384906514146 0.4310338750253544 -0.5600256064064355
Ni 1.239797329795874 3.8819072076895513 4.50268415551398 -0.9292972126223287 -0.4453729173558459 2.3945043695498116
Ni 5.432917282272502 7.2124312121477905 12.830347755640407 -0.016157840706785075 -0.37868904287505106 0.09603378839782171
Ni 8.668192207857754 2.1304513644605767 10.785868547933 -0.6330732183217291 0.8781641413919392 -0.864821401536446
Ni 1.963624575428598 4.498743624095122 0.7410782252530632 -0.10233479091518505 0.9248666876548007 -0.13620856084449445
Ni 5.072764922009266 1.8944140021410067 8.57657555687433 -0.7863317926699748 -1.0112043318107808 -0.0809576107909896
Ni 8.761280804665576 4.895116935850888 0.5144314451967407 -0.47331540940238487 0.084513446463048 -2.432442796466798
Ni 7.236252875266321 5.356511364367879 6.645036958133538 1.1768327405782895 0.52882269844107 -0.9387005082140996
Ni 2.3791134567609444 8.657436764533339 11.759927523053436 0.24284763556198824 0.9662097693779618 -0.008391823608121032
Ni 4.033610622265365 8.603499860106446 9.034624056210399 -0.8163864459635101 0.2770379082904519 1.2852566751103478
Ni 0.30104251030031304 7.2059309791517245 13.328801966295227 1.3495859333160372 1.8787858125908674 -3.104164066178028
Ni 0.3465356872125188 7.197486312297009 4.222839731633063 0.3587938466130208 0.8701872938340497 0.7602780330057165
Ni 6.811304839848659 7.074385801583942 8.429730408925057 0.1735512631590108 0.08635101389241902 0.6393461958146345
Ni 6.842387601386204 0.05831516829895418 7.452812082758373 -0.20215992803463892 0.7094210982548492 -0.0003478702577219815
Ni 7.753603789271121 8.050519778826967 12.35881221217753 -0.9752217430685849 0.027268863018282068 -0.9980955623429649
Ni 0.33638236084626516 6.64960684737138 1.5918347315543406 0.8691277422212838 -0.12900021602151332 4.226525158070999
Ni 0.1886955642316041 3.7722580461822157 2.3319679807389004 0.7524577656303492 -0.23949980213567787 0.019271446635102295
P 6.292798537609008 4.85123096972716 9.187462193540439 -0.012379604611275453 1.0750360815547615 -1.62475027873286
P 0.8099393640501144 2.8528320264496667 13.66858849540417 0.15011462940262532 -0.5992508704556453 0.4016484798847018
P 1.7948721393385363 8.507583849813342 5.719206518087814 -0.8851251460908047 -1.3531739077776113 -0.07753855780711162
P 1.5002011724504072 5.470237261598181 3.1402381375586668 -0.47575255808896766 1.3627348119931693 -0.8678766434230021
P 1.3665049062177412 4.336735649408493 6.594347352184593 0.08958597588994893 0.47595001881175447 0.5692864628830712
P 2.417278842112123 7.927766823924383 0.2523067316103009 -0.30883911196144875 -0.33860040238428135 -0.126774154904472
P 6.053764680599056 1.6185110490189756 1.195560989841578 0.33702225926388407 0.6945799194769586 -0.38782520084836436
P 4.655679162628752 8.041849670365451 3.0392853860336397 1.1095539128259728 -0.4273849654188575 -0.15212728895727995
