# total energy = -381166.1313410457 ev
CRYSTAL
PRIMVEC
9.22763635329918 0.00000000000000 0.00000000000000

0.00000000000000 9.22763635329918 0.00000000000000

0.00000000000000 0.00000000000000 13.50557854683474

PRIMCOORD
 96 1
Ni 5.109175984539362 2.076965550218544 5.757684095873744 0.04278341371411342 0.42447499086091406 2.5253172133000317
Ni 3.37950174477361 3.8445561465219327 2.5905324029830075 -0.6642339601952496 1.0660410771450028 0.7309067789324509
Ni 6.51258869641481 0.24410788411941198 4.595799221077569 -0.841833168171389 0.28647128578920983 -0.16750762806809216
Ni 2.6673866153692383 8.083206173552366 10.773412732878182 1.0403174471266534 0.43422178583503285 0.5530124083133959
Ni 9.21416370335668 6.080347768467373 9.351924004740484 -1.4035600735396474 -0.5978352210550414 0.2741017084802634
Ni 4.117002100957014 0.9599417508527371 10.183232509028445 0.4905428290242649 0.2832774614422605 1.5175962120521604
Ni 7.133110310367105 2.5176682204256586 4.736528052979297 -0.05616112057260005 1.1453205289026211 -1.367225243664355
Ni 2.410646097494648 8.108305343613784 2.704438342408804 -0.6341762215779208 1.7810545818859649 -0.8241192958313937
Ni 7.630664446290544 1.316257689364379 13.36182462509644 1.6556174006253617 -0.5696906403000254 0.02153427452735001
Ni 2.5500387676960483 2.502654856569066 9.186399592003445 -0.5540992136196714 -0.5891487490246369 0.8826190918394993
Ni 3.178302368295964 0.9736171074817901 5.413049421840319 -0.9622638973563363 -0.9354670888784664 -0.5815693940154822
Ni 3.4735774943236746 5.531727894632206 6.802597610547648 -0.6094432376076149 -0.26110246800711806 0.1632557947702737
Ni 1.1565549922125433 5.003454958291682 3.4952439837737534 0.7273329455382636 -1.9085674147286742 -1.531945281684981
Ni 8.737334838006015 3.3983999434080907 6.324851518173416 0.23533384368344631 1.4367686990811321 0.9174397990631104
Ni 1.227939984710758 5.969782233292398 7.259734700563362 -0.9990625542419246 -0.8989049734837165 -0.5413151744811258
Ni 0.3142203856060569 6.842301360188557 2.553580334412803 0.02513253340156962 0.10752507686687288 0.34671917483667386
Ni 1.4906415554749348 2.9775551459848653 1.574494007042997 0.7529825277855677 0.11143649610613712 0.7935285675287301
Ni 7.121751090387102 1.694941417666051 6.909642802568789 -1.3149002090083937 0.2713722253642423 1.2030271395854701
Ni 1.2843208409884328 1.2468197280731348 11.042566266769912 0.44832017290962783 -0.29078971065890563 0.43740044067333056
Ni 3.667228664510791 6.430785702813896 12.403455263426963 0.760495034112529 -0.22815712342934902 -0.8999395853958178
Ni 3.1848170793486705 0.5501488931289826 12.633712465832335 0.5516764631107919 1.7722524102133024 -0.885213592039553
Ni 2.3702844174032327 8.028181779774334 13.559195455376114 0.3668336861983618 -0.6045252314807072 0.9454643093004942
Ni 0.3609168378471654 8.231115951829754 10.127400697095862 -1.1527489601562082 0.7482411564458404 -0.6444935443435287
Ni 7.8436475140065856 7.933229404799329 6.194441028905025 0.573277072099703 0.6768274805895441 0.4187355172739756
P 8.825975509921456 9.141680622168279 7.971100545920312 -0.6795420513072297 -0.8633823550970745 0.42732968670088983
Ni 8.260432151566935 4.583034632126847 12.11993245467507 1.8064313700878567 -0.018492916597864926 -0.5384797619148597
P 7.419120889798615 5.0342752627053375 5.137494676819322 -1.1400852486456108 -1.8990553614731809 1.133609668223596
Ni 4.173096900517077 4.040089754463656 8.500208583323541 0.1001534669931501 1.1312838483038967 1.0382181413954636
P 6.042302225025008 1.366013102956723 11.449839979851472 0.5556506172671916 0.3182097545430713 -2.3922924495001574
P 3.942913519200122 7.648040084976446 6.341206580311968 -2.3773106313793444 1.999650286879124 0.07677468305789359
P 2.3905021679931484 3.741280443828032 12.918301989311837 0.3436505632136791 -0.15797911975236664 -0.23285041513996027
Ni 1.0639187538865897 6.599060873858033 11.475540791783482 1.6177226824621171 -1.635141906379829 1.6506446300011184
Ni 6.976111310578502 8.117883629835752 13.176001258572228 -0.7067489507393248 0.11442900307555776 0.5178741698493662
Ni 1.8412179043622374 9.310131118297404 8.93118440236825 1.2941676044467325 0.5379760828055637 0.13843642173374868
Ni 3.414474485410662 3.8975781432766823 10.881971257211847 0.4434595023832169 0.061161402000668864 1.3539195276943843
Ni 0.44820289279017367 2.1551051723068175 13.326561213923751 0.5745682801073008 0.5881614454107033 -1.9992311970638343
Ni 6.313908464579359 8.25021715845738 2.2276906802553964 -2.4859759924982474 0.8942078251183632 0.38838930088195045
Ni 0.2428178605993434 8.975656994320829 12.878933202859617 -0.1557600006138608 -0.9808953964145947 -0.6594671349342256
Ni 8.136320446667634 6.9378166209627326 11.554346649194708 -0.9987784473426026 -1.0967025107846016 -1.1187044689769896
Ni 7.707041589892887 9.052061820831327 11.174394120935887 -0.9246751404692849 2.1520030615836485 -0.08300343757642478
Ni 6.751667518885886 6.231948601165559 1.0701372578220274 -0.21925030785802244 -1.0143775873324399 0.8335647575150096
Ni 8.94380319466935 6.481796074909311 0.24301810030167165 -0.24381899833632203 -0.25685294870214476 -0.6208499367826598
Ni 6.234089412729622 5.747516163708053 12.20185725307187 -1.5554459359100825 -0.1857812295662994 -0.14096124503813143
Ni 5.774922242782471 8.854064434063723 6.841575145231266 -0.07742260105453763 -0.3294876414497358 -0.187310007506
Ni 2.4352562028453124 1.1597569819225846 3.0670226140905643 -1.6517049529448329 1.8532496159929759 -0.49050503380779387
Ni 7.314165757343251 3.5836539647878944 0.32640547901271305 -0.7406443179351889 0.1383502897778456 1.9127698828457957
Ni 8.312014637097572 8.423992000588504 1.5754795185733497 1.4047921461745356 0.5547029086419415 -1.1158479733648008
Ni 4.5403568153863825 5.271748476503367 0.7313852017717484 0.583982117222033 -1.136628657555578 -1.0893609828178659
Ni 1.2819032003428106 8.259195648335968 6.671903832852462 0.1185985610722151 -0.25304308803775133 0.04832876901237483
Ni 2.676023682713903 7.223098217146136 8.53012273387689 1.0031408380763562 -0.17532943810535612 -0.312210599536843
Ni 7.126909338940165 7.682652947807471 9.19239570991003 1.9486010336117925 0.6109774148639542 -0.6174982467016076
Ni 8.25624280479933 2.293741176351954 10.962355963151571 -1.48941872117668 -0.2136357898847224 1.0040448379478644
Ni 3.1664448559691536 6.220958486627637 2.2587269113526682 -0.9251520801057034 -2.707145114645538 0.4434227356080105
Ni 5.471942040651347 6.3723286284245235 6.32375712053765 3.8849530746529033 1.102443527033437 -1.166082701150637
Ni 0.9695200370747055 8.68965564252537 4.343583013159271 0.6008452115259587 0.8926026854147724 0.7834354449587863
Ni 4.885747232812465 8.165978068938738 8.96702823184861 -0.11183064622076223 -1.516069490994989 1.3621784252690672
P 3.354651720885594 3.1952350804513703 4.858415897590068 -0.5538526448265042 -0.062445668029731165 0.29543749384356216
Ni 1.8955409978003177 5.846390284005153 0.13565916865476385 -0.10365325261629245 -2.842702929279911 1.1344537613914463
P 7.380844655454949 4.923497491901167 10.232676951285836 0.46995600601184867 3.0770109028020034 1.7079025831823231
Ni 4.743918466693338 2.2872080100271432 3.5863659670235752 1.1916716053633347 -0.11798201053413875 -1.3677865154844637
P 1.4088662447821767 0.45709648841708417 1.030188053062136 0.6068708488947484 0.9881358800270919 1.1123605290368328
P 0.5309138857786041 4.083773383533789 8.302013725144423 0.0927170653197629 -0.5330310800954626 -0.4129633906768888
P 8.242465944173706 8.608286347818899 3.848198294471654 -0.7610563059326376 -0.6262680224744375 -0.944614045485057
Ni 5.085673195514937 8.135711422688203 11.591162148751343 0.37610534130827483 0.7071742112022015 -0.5975218035796807
Ni 2.64970646469362 3.2390017582459714 7.063876279832608 0.8925067832668564 0.05199799033384593 -0.11139484423492428
Ni 8.992128324673635 1.2235753128581655 2.3353439734923627 0.7121953185658766 0.2610011665425634 -0.01891612017821258
Ni 4.008540466801893 0.6563885125227837 7.916429570603072 -1.2852546182278188 1.63763099135027 -1.6995372419367634
Ni 5.82859017406086 3.520749169821461 10.262051285130143 -1.6629332175604845 -1.2112682965483397 0.9174747660661039
Ni 7.523402404822183 3.5545407730438576 8.775235507562366 1.7470581703358623 -1.3827832460036122 -2.824958460812296
Ni 2.0782666469018753 5.164578711395525 9.582653662111715 1.7962199767724936 1.4246292355051209 -1.7177036284331448
Ni 2.210470988618773 6.556918260008583 4.876567580467943 -0.36728542902379974 1.09401622220169 0.7589392595896348
Ni 0.12209915747636076 2.52828000188545 4.1429575956440585 1.6321020911122408 0.9035057054805214 0.017897191995394985
Ni 6.680873095094999 1.776126159651482 2.221046782297962 -0.3676191582141346 -0.22509288268172847 -0.26072657272493804
Ni 6.96549952911871 6.711084375529222 3.9377811080280036 -0.19404552645762063 1.4928943384301063 -0.32933748902511667
Ni 4.991339072155416 3.118433465590636 12.428886628386255 -0.03583217920726087 0.420255810573244 1.0855786329572983
Ni 5.824087087667487 5.79052617534639 8.777842314747053 -0.4273361144587931 0.07005021984986644 1.0086944209047337
Ni 9.071209165639212 1.0815527663819475 6.118445909435236 -0.9893514976017477 -1.5363027873227284 -2.693599000529987
Ni 4.056072020105707 2.130513522228257 0.9945287763028158 -1.9203903755055316 0.08909618073772399 0.5719964056150665
Ni 5.573270712138276 1.0157228107870324 13.350385124682786 -2.3472251248478733 -2.822576590843681 1.8022073047041802
Ni 5.934929451924022 4.330271225390667 6.894449499809183 0.574398587298656 -2.621315263363911 -0.712955593770669
Ni 7.983575387099001 5.69920026133982 7.266446883027582 -0.5390649449943683 0.007108071799690985 -0.2965127291856119
Ni 4.17741543418941 7.054767680285687 4.0950938474423735 1.9780077689086837 2.049169476655174 0.8818688439370361
Ni 9.110085196326256 6.2960437611827 4.943446718281969 0.5421968057551306 0.4764323577648118 0.7898184656669945
Ni 6.869762805079288 0.9654045113955169 9.173826015119 -0.24975053332940858 -0.21329023361984556 0.47805446674926694
Ni 7.965313895352108 4.47588332229111 2.9868805949790085 -0.7800811837745727 -0.34547039003123725 0.045007160838309586
Ni 1.7256048522668224 4.404267638891596 5.53343777559264 -1.1892951347113583 -0.09240544761661505 -0.9205850295603114
Ni 4.350811943242402 0.11577269019911464 3.1702992395480702 1.654714686305434 -1.386071944057213 -0.21037383130399898
Ni 1.6204374841822629 1.3653763960691354 7.148934783432666 1.697111148993774 -0.09802459357560538 -0.21952618722722836
P 4.120065676126275 6.137429925085 10.313561795099577 0.03134868951461053 0.4565695574026136 -0.9793113397569264
Ni 0.867812109746038 3.723175821894022 10.651633774372824 -0.5872258209703113 -1.1054265209211607 1.3422585464166883
P 5.366645485662058 2.3568489793115313 8.316694894103144 0.6622416123555692 -0.6870617567230425 -1.085882537350962
Ni 0.2483101495774894 1.7723981946864766 8.988475103560651 -1.5962331451297735 1.1643587764809948 -0.2443100790401276
P 0.3090261492723902 4.706472719594353 1.4927583751852622 -0.9514364677235293 0.9366197144256709 -0.8233572208543886
P 4.535521534095138 7.444921360199986 1.2057290647336119 0.2213231312266511 0.6386666532491065 -0.4009064595123547
P 5.435382146613351 3.558868534352242 1.7011626898923042 1.4027128950480037 0.23321525467854673 0.7340036726902197
Ni 5.274055385516365 5.177008337157559 3.69211467617941 0.35214934471330966 -2.440524545033668 -0.44678985230803053
