# total energy = -340877.4416409112 ev
CRYSTAL
PRIMVEC
9.15460780991671 0.00000000000000 0.00000000000000

0.00000000000000 9.15460780991671 0.00000000000000

0.00000000000000 0.00000000000000 13.39869389175004

PRIMCOORD
 96 1
Ni 1.447892802815445 4.922698210452367 4.330016071452647 -0.27613956484589863 -0.4887847086825775 -0.4863599012911689
Ni 2.561404393468289 2.5250697542777574 11.818251065428885 -0.012887397485629419 -0.029183820652807804 0.8153582618093119
Ni 0.015347700328275756 0.1406925931972001 9.477632930634734 1.2309999706493122 0.40843696356144504 0.5027725383212374
Ni 2.5131229908250883 6.978539376584523 12.154772624944156 0.12553719717357734 -1.344117454002298 0.02063387420026769
Ni 6.673690929861241 1.4957073204501508 6.385375705203491 0.22048469448575575 -0.009614640271628604 -0.3653951539796223
Ni 7.162821635819948 2.288175962810539 3.954811715792354 1.2958467919213683 -0.5252707194237535 -0.1821140651273573
Ni 1.3915278812996716 9.034133368300417 4.720788753494249 1.1610510522640005 -1.0715144415547482 0.4031597743229057
Ni 6.305071483742331 6.0510036476488995 1.1477360926971383 -1.2491373036799713 0.02896039178809206 1.2724854914876083
Ni 9.426316775436312 6.9532268854376795 9.307791150073822 -1.25571752800065 -1.7465958859874628 0.7536679838883665
Ni 7.434786730572358 4.548943029240012 9.797179100517601 -0.2584359769185484 -0.5760870307446724 -1.2210330892445873
Ni 8.52954968402132 5.95219796340012 1.2698951819786841 0.5984306885471953 0.6162846860094805 -1.4253468303974357
Ni 3.971442892163591 3.8327963538565606 8.987280999967531 -1.5377750009928806 -0.48260377668284626 -0.08667394444947653
Ni 7.1778718113879085 4.836956151833441 12.19435257267413 -0.8651679862425874 -0.6465064610084995 1.2553236349963413
Ni 4.817621619716937 5.356242136576127 3.7218626449165186 0.31793901738018787 -1.2256795868776633 1.4603238606932527
Ni 8.216416317049253 3.713456883842005 0.9153655930475165 -1.8792714939780344 -0.20256899054759953 0.052861880996037995
Ni 8.582792884205784 3.9537653440968445 5.2721854412917875 -1.1335209651645315 -0.33951854332317655 0.24205702133989276
Ni 3.5774560272497804 1.3587818484489456 9.853306002225123 -1.660718469297353 0.03483664806321097 0.6201811928504094
Ni 1.4306180575011256 1.2828626842244357 6.8431280767481235 -0.19085890119952292 -0.476446755942515 0.5432607282432708
Ni 7.393865632768963 9.023779506641436 11.725586292233018 -0.18791113142510862 -0.7105097033333376 -0.3292171613971685
Ni 4.936054783538531 1.1931017526892471 12.19731408836527 -0.04977604298186266 0.07444372093187178 0.40788083394765884
Ni 1.3737954055848671 4.406012134384438 6.894338038493629 -1.4501070680612511 -0.5541190111140134 0.3833728215039655
Ni 5.6862749099341166 0.4417134983116233 4.241316158985783 -0.17217520874709058 -0.75612235896613 0.47695429170655274
Ni 4.838274415386838 2.6611163839100307 3.5010516688007556 -0.47990154726033474 0.7978598479142324 1.2922637025558004
Ni 7.0115417384595204 6.860179449627005 10.440463335290984 0.7712569006147233 0.49194767979159143 1.2330365414633668
P 9.132014437140215 1.264068273980505 11.39254806106544 1.3421711289092046 -1.3184568160114003 0.6071248738870835
P 3.0227600187255423 4.744796712999708 11.073873409865095 0.19477212021100004 0.9821608933905797 0.978351032726186
P 3.5643832470119166 9.19681075263293 3.6011939258189534 -0.8854645317080944 -2.364647948310011 -1.2381162699791193
P 1.9471668144489094 2.549182991775329 8.549546094296925 -0.522592401260642 0.494386114029755 0.6241046962745317
P 4.620257425635638 8.126838477674257 11.985506669227055 -0.8446009607245131 0.1296365640539316 0.02100565571738963
P 6.300512488953497 2.8292407600083216 13.37187043614845 0.7676830672205359 -0.15757905610047054 -1.826490088510945
P 8.924799884840471 5.31475345307613 11.097321107360361 1.2747706879773593 0.7935504219056011 -0.8476286918072433
P 6.778630201476526 0.48712767772618365 2.2878537206085974 1.2879913004326915 0.08410464106040354 0.32073329229587344
Ni 4.995266788145324 1.0973994805557576 8.104696227281176 -0.24043748345859883 0.2595510643595982 -2.2271404661484357
Ni 4.786038222083444 3.623860735250991 11.563528674862761 1.5355556247440587 -0.6935213963054573 -0.4743330520336218
Ni 6.415659148499605 5.182588377239973 6.160451563708966 0.0003172741301026794 -0.33227985948289224 -2.461865729713605
Ni 3.4552237011041567 1.3619218789962757 5.1605605594470125 -0.008823511828900933 -0.38681989951230156 1.1543548711907474
Ni 1.8687026691977007 9.074962920023713 11.2275829401913 0.2578554218247301 0.9365250978293355 -0.6572881250050358
Ni 7.0485538186427705 2.2231965551576303 11.108884292737425 -0.6678067651481725 0.8761116297382846 0.8407443059825843
Ni 6.673333900148862 6.471200155294506 8.05609899066164 1.319032228898896 -0.51532234996179 -0.14507141055176304
Ni 0.07258963329137903 7.526937014798081 11.795178706862018 -0.36132638322688737 -0.6420162864476298 0.5738154611016762
Ni 2.3103758872340814 1.5570248848991763 2.7021281123327223 0.29495438355955655 -0.19894039265607674 -0.7945850338177025
Ni 4.982010915747267 6.863429335470451 5.8717902948684495 0.4724008680079154 1.3481669414813233 -1.1620180441629602
Ni 5.13779488024847 5.579605417404997 9.899343610445143 0.4116883806192071 -0.08018807961481673 0.41269368195526984
Ni 9.086882219652354 2.770147765305655 9.911750850680702 0.33859731706048785 -1.2354384660366402 -2.0750710270122843
Ni 4.667614212869859 0.8996160054276147 1.9074110982451498 0.128251767891263 -0.03783661123179935 -0.17852274823167316
Ni 1.3039457464707938 8.423081592868414 2.4376917672074963 0.6377863075266822 0.2838826991264272 -0.269310200628891
Ni 1.0531827238688674 2.262854317055686 4.651852724259544 -0.5747305167167779 0.9017038763850923 -0.3227186981570184
Ni 8.660222558751894 2.660100222420953 7.449325163552576 1.8460860083650013 0.13269411993333277 -0.4700652778962034
Ni 7.333307900784743 1.3337348409343839 8.750580370729317 -1.6625112995317173 0.9193182470327458 0.4530659151247294
Ni 3.4595172122607094 4.381917206102886 0.07168149617681598 -1.9147079804087732 -1.1122543424762716 0.5469340633298
Ni 5.355784406175642 3.80490226325098 1.5546904598567006 -0.3820145077038582 0.3197259340772816 -0.18085242480611435
Ni 5.641453949118585 -0.16090962952583962 10.113869948162241 -0.476123054054509 0.12006768941857388 0.4007069419070389
Ni 1.2361375649428852 3.2262303363493166 0.9148410340085603 1.8346862511684918 0.5285830716264381 0.7216945163055636
Ni 0.9477307942050389 5.370834581743602 12.857253301490715 0.38098400955681483 0.07085883179409086 1.084230603569836
Ni 6.536170408339404 3.5723294467643436 7.658399016739093 -1.7745674314997244 -1.2195480200586286 2.0206577423687264
Ni 4.934104852032464 5.797805499316391 12.592199935785635 0.18189140759359 2.400457501809453 -1.0319199670915777
P 4.05553712134077 5.800908911431683 1.799177083207171 -0.7722812281141797 0.2955513937136071 -1.5157427037831896
P 1.1663886065169187 7.590891106353903 0.5114066136287306 0.14905122113511748 -0.8284606035192248 -1.3746598455655294
P 8.333714309477642 4.873849222112565 7.595438200152325 0.1532619167823554 0.2971277370617915 -0.451217549062081
P 5.701801125118582 3.208836581130871 5.524965224038253 0.27675868648713625 0.22270484206552613 -0.6918175262404731
P 3.360977011644211 1.989845596990169 0.6860289304923122 -1.6624300526718208 1.420203338523283 -1.331152666311514
P 8.680591561573495 0.6902208254999577 5.740214775788118 0.22314578625768663 0.6016687358685185 0.5156270256864023
P 1.4782769467996666 6.787189759965603 5.471691813647358 -0.45130573790051304 0.4922526126265199 0.4806070579677916
P 7.3416843671136265 8.400469711084435 8.818458127278099 -0.07368061751360215 -1.4501083536128314 -0.45685674962572936
Ni 7.120948458783543 8.356793076270117 6.229762931872068 -0.5327996808109469 -0.7981665805213738 0.029318032237826926
Ni 8.443487214122053 9.009306071378088 3.7759801101659085 -1.676997151852718 0.02556473584298178 -0.5196559443401373
Ni 3.6289690065204083 7.298401380443726 10.178183815812844 -0.582882456399951 0.8119842031307564 -0.689374206906303
Ni 3.376970111837171 5.362622898358893 5.933986701686407 -1.5854288554254181 -0.532014208795174 -0.7961163828605643
Ni 1.3486110789501597 0.9525918910581939 0.17384417518275633 0.9059811636042074 -1.1616645174782831 -0.36148630584351943
Ni 2.7939955191709447 8.400195072844143 6.64071420088867 -0.6720742821752748 -0.9065257232537679 0.7480655500999245
Ni 0.20483618513882237 8.033141064694894 7.114867052682694 0.8404095483509848 0.20900806130472394 -0.24657316404269147
Ni 3.357113767064114 2.938290450619965 6.867447292925912 0.6123429277529131 0.22196102192096612 0.07402951621258863
Ni 8.335902260791963 6.278651285026313 5.355404489943239 0.07703179337402218 0.7342628398888773 2.471303478087737
Ni 2.2665253148675792 6.223732791576073 8.16315480764877 1.2557920899923274 0.6215207375974393 -0.3419194394551853
Ni 8.348187744740992 8.524423103535884 1.068788584143017 0.1401534044248554 -1.328630156999976 0.02584344342566517
Ni 0.2581050182257123 3.2626199031879066 12.172619533259082 -0.8992047641123222 0.17722819778996576 -0.03769288656508347
Ni 8.169974990616003 1.3426605837438494 13.313371575505615 -1.3054465197946614 1.893179105198062 -0.1589412265553198
Ni 1.3445830514258883 4.53110069822909 9.700198845105957 0.7326399595734737 0.7068533375276731 -0.5255262870779853
Ni 5.959247011567594 8.652001720759177 0.4366711402198761 -0.006570454128666104 -0.46045732249279414 -0.3575440333663197
Ni 8.974811508397506 6.644936306102747 3.3382983012217604 0.4641208873873104 0.7191031014293034 -0.9820747614346764
Ni 2.9734441453772447 6.8871123063915665 3.7305311432409116 -1.0247671580968802 0.8775092814167598 0.8573518326322784
Ni 2.921061478345694 3.978272229738833 2.515765926157491 0.9448724413527663 -0.5934093240732038 0.8148301572199838
Ni 7.023598357208306 4.558500440002147 3.156316594979175 1.3954490143967389 -0.6698276522329432 -0.2764925773099432
Ni -0.1485033047510831 1.5235281741916538 1.9993398409570373 -0.24872903404342972 0.27110817306957824 2.339957130431551
Ni 1.6380523203931032 5.8202251343321665 1.9469370337878658 0.294267641905177 0.6921605114021886 -1.0022921169228156
Ni 3.4481014160726033 8.060870372356302 0.5422118695813987 0.36456545898947534 0.5034721354914232 1.2095346016866846
Ni 4.771509859172037 7.853335408776216 8.126268145595253 -0.5042383242334865 -0.43706696859331173 0.3500682938145648
Ni 5.002782721321294 7.622355494083269 2.778219383187815 0.8203552008032712 0.6499972477705773 -0.5879004784398326
P 1.9277498908603183 8.284966021825946 8.913307189945083 0.8631216452365199 0.2751969984269712 0.169028949808625
P 4.8209722062484905 8.912248917259161 6.243764904822917 1.394561726695779 2.1308966186223364 -0.16919041508715377
P 5.453107043926849 2.453425791993781 9.675585766011055 1.1877079927298964 0.14959115279898752 0.5362519010256056
P 4.457607505127153 5.644557361233876 7.743319907019549 0.9287133150944006 -0.0007029396042955635 0.6473883493928206
P 3.0596439343966564 3.470749916288622 4.751846676627984 -0.2765843656928011 0.39305045380304565 -0.7293042103320213
P 6.96230825658331 7.010937534330879 12.764238822268876 0.9972537831679599 0.41700233663295283 -0.4967327598850606
P -0.06083145476370985 3.531005546208521 3.036693332116318 -0.0009191693801597074 -0.14568770397952327 0.06498591795308162
P 6.758526682287205 6.544583493100325 3.7318576459415183 0.0009693058918047823 0.9484020517725795 0.7293990840386728
