# total energy = -340886.76529192686 ev
CRYSTAL
PRIMVEC
9.13329650008071 0.00000000000000 0.00000000000000
0.00000000000000 9.13329650008071 0.00000000000000
0.00000000000000 0.00000000000000 13.36750263563042
PRIMCOORD
 96 1
Ni 6.437795806234465 2.1866299044194073 11.172786214520528 0.17103903826011835 0.6059817614215758 0.5739417022668954
Ni 4.976459239978624 0.2705419409712901 5.8104789924729525 -0.6620456942946792 0.5191388954944027 0.6816441852518971
Ni 3.1196509371781507 1.740788037919955 4.715105395242066 0.11791079097657112 -0.08837087253592522 0.20214270164345832
Ni 3.580170011082388 4.570922610739483 4.764646221878682 0.4433170632680817 -0.7510963665064484 0.3771422672132214
Ni 3.9237554904605076 2.9854006125714627 2.6093234310511373 -0.3996011104373699 0.3414918649994635 -0.2860426828922235
Ni 5.462469344291549 4.869663604518662 2.265537932480632 -0.2921205136551872 0.4593322077494154 1.0486254527717167
Ni 5.481576200477492 3.2155870831519344 0.5773668154436704 0.17256241688318022 -0.7092310937312302 -1.9979677569703784
Ni 5.892035676506415 8.131401234662743 12.656565116828041 -1.3026609866297243 1.607043091261084 1.3032605678869362
Ni 2.11335346695295 6.682723417294914 0.1650724601567377 1.1330247422544035 0.460175272476001 -0.6305010867191786
Ni 0.5573932094240525 0.14341558760027961 0.2899127494248123 1.5352116111410785 0.40367425206547897 0.5695055208724128
Ni 8.711858757627123 0.02521063820748618 6.719362549357788 -1.477565935603152 0.4952484620300503 -0.47581092213072895
Ni 8.970084448327503 2.5705480209472054 1.060807723463522 0.5089699253812009 0.3729428844198932 -0.028909741055814727
Ni 7.113449678159693 0.9835098955674899 4.728687520401778 0.5239476297369556 0.6293983405733031 -1.3644240267701342
Ni 1.0237877329384328 7.310345283158058 2.219499725034892 -1.2131220619276268 2.111328723792738 1.0258310805850204
Ni 8.063677841441534 3.9890585601208803 3.7238924774435898 -0.2743246231243469 0.4302813131300461 -0.17577501028320697
Ni 8.43466321018764 4.745980503911561 12.535990077004916 -0.6202722099023189 -0.2802636143166012 -0.04471328374697461
Ni 8.575891373286709 7.07798508802106 9.508505061023515 0.8458253200499176 -0.7993611150501072 0.09189199831530627
Ni 7.072587309815566 1.3037415359076272 0.2586092891515311 -0.3482934613023292 -0.6804681626659249 -1.144036519983875
Ni 2.1703178369489984 6.900178072615726 9.023746218325064 -0.5663975713710504 -0.5189221514979063 0.9319225660603175
Ni 0.6079861918123977 5.334055196120242 1.2644400479278302 -1.8073474541442227 -2.590470767179229 -0.5571727103386727
Ni 6.361624113791457 2.1644725272171605 6.691330635875045 -0.0625359137506923 0.17990728728402564 0.5810726568847218
Ni 3.8606261453566626 4.724508123943514 0.1798062939995507 -0.7430213028077978 0.8133301756356895 -0.05590323892552308
Ni 6.285160155861857 5.997698783205834 4.831870937113395 0.583532431279124 -0.27462158553947547 -1.7634273557225049
Ni 5.643865745204088 3.1742406500956397 9.001769680392645 1.2500189349539763 -1.2791086532310811 -0.020722320149015927
P 0.5265884271372687 6.4629580379707345 12.060454950397375 -0.1089237569866124 -0.7403003043322088 0.1290979179416422
P 4.291763404561961 6.642938777932595 12.562565229702928 -0.03574013371408683 -0.38753800862524873 -0.10277162134228754
P 2.4963582538351488 8.550108077391432 1.388830065680624 -0.7676306167160457 3.1300118804790675 -1.3330827934546914
P 6.946520418833451 8.174071995705157 5.58569121342762 -1.5020508081183936 -0.13402492292961435 0.9251651927318261
P 4.931596487786772 1.3762051099895005 12.728856984936542 0.07127766449906434 -0.3508992743562924 -0.3345136339094174
P 4.298010579337862 6.247841506542658 8.135983409494717 -0.5590868966422501 0.08958366189710378 -0.2422079450954603
P 5.0227285198247005 1.3865348682812322 3.5196765353357433 -0.05340926885907575 -1.079687978504476 1.9767037053852796
P 0.4614287502312553 5.720795501252943 3.4643753386243326 -0.246394215262666 -1.4246114948933077 0.8868616691659371
Ni 0.7765420912374522 0.03271272791644143 4.399592929180742 -0.2775133052649737 0.6662286220277752 0.3477920961858784
Ni 2.096228536097957 6.367560756487856 4.802515608974177 -0.36279216913913653 1.240013229891516 -1.7553152681383317
Ni 6.256235005985718 5.770316234637355 9.060212731084919 -0.25197865132897895 0.144493426561106 -0.021031366749002488
Ni 8.73983404467184 2.545714587883352 10.23163380792701 0.09858972205045602 0.22432977926345882 0.09372982285499341
Ni 2.519529426944011 5.64677926677355 6.926933151253921 0.6746261020628511 -2.3279156258859848 0.9336254076840372
Ni 0.6000657971257578 8.928792815049944 8.856572186653802 1.0185186060840072 1.3820293985567231 0.15064376243321795
Ni 1.7436284931177697 1.4543952609492836 11.542090143389085 0.40890284745426997 1.0311980013238886 -1.2802414812839435
Ni 4.205645552278373 7.419698241625699 1.605610683722984 2.071046479233923 -1.2944059457097836 -1.336443739507124
Ni 5.778097803217863 7.903607687753744 7.73273923766603 0.962323546949678 0.5358037577445933 0.09793229097211521
Ni 5.674553621296234 3.2970012877606836 4.538467441783101 -0.16840262907853576 0.2777717011326829 0.6359009175785112
Ni 1.2173770846197274 7.510592807955774 6.735456331042899 -0.9827602175374751 1.1163984465516323 0.0057117056727966145
Ni 5.3768446900165845 4.848136424771878 6.61815740465854 -0.9671394802810828 -0.785790318344208 1.6869398648877272
Ni 0.9584663966851483 8.400705613964247 11.474624309127934 -0.2692703485298911 -0.5695888246148384 -0.9085347832639966
Ni 4.846693363931831 0.46938933142230155 10.646948544351941 0.17294473992326345 0.675533958589101 -0.6083826575535846
Ni 8.580065289767099 7.159362759443986 4.815175271191834 1.4361778595746684 -0.02333687495372755 -1.0541299275297136
Ni 7.610785070078051 6.534590482075113 6.895104526434421 0.6680366217707915 -0.7763613117208242 1.2067812073112636
Ni 2.736152952287328 5.231725742627261 2.418528868085378 0.009275768874971122 0.7417267523660903 0.2316715643405107
Ni 2.8133384406369513 5.757173421037176 11.240546140927561 -1.2894704560813794 -0.762674558262351 0.2427162521904465
Ni 1.4148572205912762 3.3739767102918194 3.691515854836729 -0.6332169429884449 1.345512791687928 1.4262503160483113
Ni 1.740358772986523 1.4240361835295523 2.5283695445837697 -0.41349689458285566 -1.9096079401780468 -0.26791537716389346
Ni 1.4327858815343966 3.615040936951382 8.139298796108244 -1.0692516136625005 0.07914446884165079 1.6708437306568127
Ni 3.742569155366456 2.9393048653580505 7.178830380839941 0.5862485446587065 0.12308359342676221 -0.9709344285471406
Ni 4.400632298317435 6.920664056566526 5.94264327216909 -1.0325897394650927 0.6228104029431403 -0.7261091004334914
Ni 8.246033238481953 7.491988283074909 0.3037697868078497 1.559152181117076 -1.2144785759555212 -1.835710578667948
P 0.4496212245729435 5.872134223528799 7.973782457743745 -0.21929093128797073 -0.9385241305372352 0.3024794882920081
P 8.99705507276206 1.8783811490295372 8.13880377144033 -0.11719242475330785 -1.0749682044313036 -0.0805572900287774
P 2.0715412357773997 3.455500514458041 10.53249555314327 0.006852761255775295 0.43342037297966 -0.26297577377043097
P 4.32664346372741 6.3698166807124865 3.4949600084665264 0.04461506760621349 -0.7993469739827201 1.7592958500526346
P 7.131944603483086 4.310011730881041 10.776854159834512 1.0402415995833956 -0.4201568231015344 -1.274627991751908
P 6.647815958240097 7.886574089863311 9.73085972989297 -1.4532795522519617 2.2738982911292642 -1.4563322230353564
P 2.762274180151477 8.680960815716489 5.77014909531221 0.00034221383076715257 0.3685768941417136 -1.2550284723534257
P 7.581622454494055 4.278501858107854 1.1181365119881643 -1.2662312830477804 0.04621018000747526 0.9855398371651414
Ni 2.6489208378361084 1.7367693874793166 0.2938565068345115 1.0140340879500924 -0.2381782551107769 0.13336029276242195
Ni 1.9105577524440116 1.2099608478974586 6.8673539184825225 -0.15842263504768847 0.09674984062823984 0.912082648516255
Ni 6.93541433034296 0.9422273955863874 8.691229380921966 1.2289451450028124 -0.6928817058389294 1.3490154055245476
Ni 3.156595121342655 1.952379116916018 9.280188176227584 -0.048782054499709536 -1.3868589587348825 0.2656216960337103
Ni 6.513510833854673 2.5167072383391083 2.4415475151434247 2.0694287411248427 -0.7176974793310285 0.37311411989043486
Ni 4.310276596478265 7.363345802492203 10.270653077046317 0.8607158640085049 -0.7749855144192201 -0.37026533758773006
Ni 6.9862137252312095 6.720535264622739 11.317970008314688 1.1931728724992094 -2.775055919554898 1.0864013859689097
Ni 7.83333610482131 4.206038284025981 8.330694329980808 1.2274014546647765 -0.6878495427316605 -0.35342332632972684
Ni 3.2714554575732624 8.775280368217562 12.43818069192801 0.6955433118314924 -0.5732865851813997 0.45333485251539984
Ni 0.48385281969001703 4.98636886663338 10.46790396727682 0.05895976636365976 -0.26858206421361486 -1.23380273020543
Ni 9.154211704880385 2.3764198047750074 6.01013650631961 -1.2130436432812075 0.5692874913243356 -0.8019656425524898
Ni 3.906137361596891 2.966622555057935 11.640527899262166 0.11684095495116006 0.05067850019147401 0.10742403251263435
Ni 1.595860889756208 3.913991996549048 12.737478816791002 0.2686568833156083 -0.1168052166172182 -0.2900957699156746
Ni 3.525954763319595 8.471863126652913 7.849263660510921 -1.0118337378646638 0.7923528020530741 0.4695860242669397
Ni 5.463373540640691 8.232662092470374 3.8344948708664117 0.7767145812951849 0.17774833195949388 -1.454765649879185
Ni 2.9335782884801405 8.422360659861413 3.530544244788733 0.836279071122379 0.13558429699693425 0.6116322748391338
Ni 3.8881173676892105 4.427438523415784 9.26196816312752 -2.318645513437968 1.2524481132207592 0.0156454198467408
Ni 5.185100264219401 4.951141742202603 11.160033392679019 -0.3119699442809466 0.3731655419536606 1.2013615789575889
Ni 8.135319418842366 9.266459918324578 2.123922517611829 0.3160274021797719 -0.1395417389827855 0.9453306119361075
Ni 4.757780722932709 0.7317642787026398 1.4600122382697212 0.06424801134579257 -0.8377086044800541 -0.07839499227013595
Ni 6.320880478301258 5.732760119610298 13.43487450092973 -0.8289403713691208 0.2400777861263349 0.495025804496283
Ni 7.710520667377529 -0.08345549636666486 11.248044577317936 0.14998684557550943 0.6409647052546639 -0.19937953707602435
Ni 0.1931436468142419 4.94143304806988 5.692136130303672 -0.4503215196103728 -0.20496088781854377 0.634746492259094
Ni 7.478452737727123 6.24680944404313 2.4444217635381267 1.0761704522695208 -0.8729800260878384 0.6620508365010017
P 8.696304753762561 1.882783397921327 3.3026557115965907 0.7047699726360829 -0.2942316464609191 0.92445762514184
P 2.020696174406869 3.353883458088628 1.5437590867933324 0.014491508747955685 0.8374180698228288 -1.0462620947458627
P 4.909183378283757 1.0482101676617666 8.073944579987717 -0.2851386830207154 1.2279192748414596 -0.42132127572328076
P 8.843113360996245 1.5182918029554326 12.232147223825418 -0.7116175916855357 0.5560861621427133 0.41202905178807747
P 6.6314125578051275 7.857356674500579 1.4142279364654582 -3.0939393031262266 1.4036804011675956 0.7828458910039034
P 1.87616175799073 3.536695519951847 6.092386407554084 2.03724470019313 -0.5027388568698246 -2.1062883331553532
P 7.215276800347594 4.004859162989754 6.075957433889038 1.3670519513112842 0.9923357770410522 -1.1972239026401317
P 2.6128625834278356 -0.28253487254765863 10.0698867810099 0.05786241953442293 0.7469224376344168 0.28771287150579483
