# total energy = -381173.4138083334 ev
CRYSTAL
PRIMVEC
9.17728448637930 0.00000000000000 0.00000000000000

0.00000000000000 9.17728448637930 0.00000000000000

0.00000000000000 0.00000000000000 13.43188349994360

PRIMCOORD
 96 1
Ni 0.9385241573937784 3.6852945290922436 5.125942784845318 -0.2700805031360123 1.119777390326194 0.5289067735144439
Ni 2.499194772828734 1.0311780198020821 10.657984071385604 -1.9129763424296473 1.1910506839498842 0.10236692970470113
Ni 2.026913367593381 2.3086927050918513 8.55546456472085 0.3370307439043163 -0.16190468005901795 1.4333851273208797
Ni 3.9892645400557774 4.315507820043177 8.529259747097964 1.2408524379633599 0.15482746149726237 0.22656021125587433
Ni 7.3656241473719986 8.341986247981845 12.976489128863246 1.3308775582732564 0.7847731899336032 -0.0528251142208316
Ni 4.861152436064186 3.210939057602505 1.4419394996556936 0.8697388934427214 -0.13943015310558568 1.1946800531723554
Ni 5.3629112785078865 8.386688799862872 3.3218254307523476 -1.728158505217882 0.7865765616909293 0.316983338335138
Ni 7.61568679029013 3.24110479113421 6.200520182156201 -0.7832166440797608 2.3708270805375298 -0.17915164006492373
Ni 1.63415313091666 7.994928887176099 4.879252793911641 -0.3335319867224385 0.2161719260430148 -0.11563767867167826
Ni 5.830714168999256 6.244609691445224 4.487135884865151 0.28813941752025213 -0.916809364567963 -1.5668395224590048
Ni 5.6897419046912185 1.1121124901446762 13.34288394544163 -0.45517447682729995 0.014986188996187092 1.8325720330389668
Ni 1.3208957082299486 5.723752920349416 3.5389251038806475 -0.45580696820497624 -0.11525715540380797 -0.5537819394895689
Ni 8.173087507514094 2.5567088136085316 3.4246468064492963 1.8429045253132261 0.49552536984052076 0.5276921843810525
Ni 6.953316295111908 7.545847656680068 2.132540239104337 1.3327454647199306 -1.6167358930688156 -0.5170455033004837
Ni 4.203214569208391 2.331121987949012 10.074033470648644 0.09460939724646932 1.8156477464798022 -0.2759187070843442
Ni 6.02020673546188 1.5385533602443837 3.0846320936241494 -1.8067525008727015 0.43673581050613813 0.29433294792547376
Ni 2.2540236224486 0.6715459440327993 2.604159962140835 -0.06637739898396955 -0.23826901505237028 1.0241395518152103
Ni 5.080636367656599 3.9343109615988716 6.285651424614418 -0.19440008158356198 0.678900818178805 0.00022985662261895898
Ni 4.168010506589705 1.7386181582337876 7.7879535941001805 -0.8652929418562259 0.5514201241256116 -0.9726321279645378
Ni 2.252399243125475 3.42732106709765 3.1359689043339163 0.08634818567894162 -1.584081083148272 0.8308648420853432
Ni 4.708249702151274 8.573024380522362 7.5767503261419815 0.41096230108646004 0.486500283523775 -0.06113646230000439
Ni 3.541055151569333 0.37980925305641594 4.768076418577556 -0.42031777415943095 -0.6734145982532531 -0.9532069293603905
Ni 3.3456524140101407 0.20511597527442066 12.966306931919704 -1.1943123854202915 -0.5696124787639223 0.6313387521291256
Ni 6.976131023910151 7.359530430589202 8.42616947697069 -0.19523697566256054 0.6322486655379046 -0.5800298174425044
P 6.042975577838565 7.895291111406789 10.642926901015825 2.5128105961925886 1.5002381803896874 0.5341078580994092
Ni 6.004678770406923 8.338939389590447 5.6534393211404526 1.098581215864553 0.5904417568044477 -0.34607717037730074
P 3.8698313620266904 7.438932294451785 4.782918840494449 -0.24039146071201178 -0.5890880709900306 -0.27929610819700934
Ni 4.735680604958171 5.330010714251372 0.2793216607598666 1.2859120493061595 1.1353238227012252 -0.3937914457341282
P 8.410063343004111 3.07342662947988 11.551016430447572 -1.1705991009637517 -0.03552518948980333 0.9649154760465706
P 4.2951617807247136 0.5978716233089857 1.650831927424272 0.4242741877040177 -0.47854863277686616 0.43127350183998625
P 4.530568300597475 4.4560028655670205 11.578175685638849 -1.019213832378819 -0.5152629574787642 -1.6897140851987544
Ni 8.734975916766352 3.432212559635648 9.483098038822243 0.5820285930400879 -1.9110966089084311 1.0550254427607895
Ni 5.537197084866453 0.6939265872831094 9.298153734464368 2.0907187608518703 -0.47321385082751405 0.6541860890409443
Ni 0.18962930799886477 1.3605140446024373 10.663464745576396 -0.18200016525731239 -0.3801949379966162 -0.16523040199814124
Ni 6.119569192701848 2.868562111795593 8.126544910128624 0.917715164211684 -0.22453546751636166 -1.902396510031272
Ni 0.6099893095138119 2.251710946802117 1.702625766892749 -0.3595998874540839 0.07220917517439822 -0.1667769205496547
Ni 3.1914097965877595 6.929326873921803 11.94000388554386 1.0639867657191353 -0.05874507924969238 1.5480061918025856
Ni 9.098350489077841 6.730427591039953 0.3109282279284678 -1.5967463373207662 -0.9103618091704063 -0.7353565871736885
Ni 8.422617867942163 5.000280066225624 1.9293689303755104 1.0841845808232489 0.4487888850159303 1.2125353361862214
Ni 8.870946561124656 4.732266655194316 7.820875266110611 0.6413084617473277 0.9524767360625854 -2.329943969169923
Ni 8.183623029903629 8.472909385968856 10.365571932283897 -1.1144567494442288 -0.4336908530322273 -0.3782115890180002
Ni 0.7816880394249841 5.9782940780115315 5.919081321905686 0.2851669651554895 -0.10174420851903768 -0.0592317890781238
Ni 2.8379099821953813 7.551445800110047 2.8011255912182653 -0.14983695026120647 0.19654463873039055 1.4504698507173086
Ni 3.5600062436724578 5.186826724424277 2.388591977764115 0.4645487189533483 0.8690544657811872 0.10191030178325673
Ni 5.172445919908249 8.004537503850177 12.637266415674176 0.5974966067687 -0.3725870437423712 -0.8482709533769327
Ni 2.9882522537854004 2.60154902475423 5.737643657883213 0.4870060195155999 0.9023718489863942 0.10400369397717574
Ni 7.2328288433854535 0.3077271911606374 7.44333188455069 -1.8608472258345758 0.56113040943484 -1.007335335773678
Ni 7.6451091637926085 1.2766611978488052 5.237628499458687 -0.14371746762702992 -2.3314321236796753 -0.2589815650093733
Ni 3.2114896946611915 5.225013404444181 5.212699324355089 -0.5090974520980006 0.09661048683689813 -0.8085911182888075
Ni 6.374560037295224 3.4320932549395993 10.159124333055887 0.38267836654010223 1.183345859106459 3.0848373408249583
Ni 1.235455191290437 1.5251912342869265 4.731743549988563 -1.4176150089708164 -2.259031144209445 -0.8717926906479566
Ni 7.341221748387878 2.886338511506853 1.3719590358672347 -0.8733818895119474 0.42793158195094694 -0.8131481415318704
Ni 6.146871613528384 5.880152199584987 11.610331972137706 0.3364252491098335 0.1448808918075118 0.5167418560171358
Ni 8.219010638208543 7.196642811345443 4.27734316550562 -0.06286810027913044 -0.0473887736966087 -0.023764449409449395
Ni 0.4491528133136607 7.0449790108145764 8.0010905158628 -0.27267371778448524 -0.14895351921498862 1.4588673307523843
Ni 4.804629541990024 6.788290368623585 9.516864938717756 -0.30053804829492115 -2.0239767794396304 -2.353184170644786
P 4.178885588498762 2.8172978016318857 3.94831549745813 1.4501806016116638 0.43067880567878086 0.09785695764948954
Ni 5.945577059441247 3.42630238853908 12.764265346889616 1.7801852919071344 -0.40755893183186587 -0.4299583825729886
P 6.830203026073934 6.396163364564354 0.31759552498072935 -0.42904564095073205 -0.8025641953684371 -0.07088814237012954
Ni 1.5380210777543202 2.073148525954418 12.68317669817059 -1.576879166083194 -0.8217816488371524 -0.36060827411394025
P 1.4566002113432197 7.758329320342851 12.613734023242781 -1.033284451539272 0.1320801404984177 -2.3026607079739376
P 8.473873000821557 4.742921482279898 4.377987689363895 -1.3139373308744922 0.9007934487556808 -0.35854804915080185
P 6.193290317575649 5.338912680033469 8.130238767063977 -0.31503418502856717 -1.0114668414435484 -0.4089514413040182
Ni 5.170491158349913 1.5981322899942558 5.595010305114805 2.322446118130981 0.5273998499516143 0.5755427282054282
Ni 2.0621816712022465 3.5716522174636753 10.881665692822068 -0.3925269771994079 -0.997889616979746 -1.576413796411001
Ni 6.178147798461772 5.201969243538153 2.151761143366218 -0.6499789929381322 -0.20926928538591058 0.1271107123082843
Ni 0.030920106302105472 3.921068140337463 13.324616561019708 -0.15288756416207216 0.03243420926930543 0.6559066712764768
Ni 4.786109782249537 6.4679297278798185 6.467989380227843 1.461606326950102 -1.3704154684668786 1.899229682267516
Ni 2.797759363332829 4.6166145183015415 12.874540512904318 -1.8926461155127277 -0.7446601239628013 0.6596957060052638
Ni 6.814932024979697 1.1134982600757037 11.424367153764399 0.663354900024406 0.442628007620857 -1.286930720378661
Ni 8.475717634968158 1.4786624028279227 13.285112940701111 -0.6020346038483696 0.10368513429549239 -1.4485762332390213
Ni 4.000570954327472 8.714161835948007 10.635741087399964 0.4588550110026807 -0.6154809591612626 -0.7052417700661788
Ni 7.752299844550234 5.633540215567956 9.79670511604122 0.47079495697337626 0.2402035130709218 0.41255329972266375
Ni 1.34282024044998 8.125760252319996 10.469777242455013 0.360541682542063 -0.7508135451587069 -0.5382465628581311
Ni 1.001471150485949 9.002631413709516 0.6715955013680811 -0.27515483233512616 2.6521268494281296 -0.34961320855501726
Ni 2.1351686133311336 4.174251059921484 7.210409655541035 -0.9119697770874745 1.3683722127846047 0.03316517389805901
Ni 3.72292139476915 2.378247342888259 12.314148918723255 1.968891151319396 1.0829180554059994 -0.6066278796460068
Ni 0.33782960143059343 7.760008763371844 2.3320975332713183 0.04818324457344605 -0.46758467756619476 2.003027430881473
Ni 2.184248729828717 6.595971198593038 0.7841291970518273 0.7586849774869837 -1.0086555972469984 0.7809401893407583
Ni 6.311062407144366 3.7405509579314273 4.203332956176008 -0.66580259023395 0.3776528883010528 -0.41290579796607596
Ni 4.376481697008388 7.557034766255714 1.2132415746145953 0.8969295949249005 -0.15157861554266153 0.5624768961604054
Ni 0.42652805430066626 0.32195014638650793 8.241145330239306 0.036987632967942746 -0.10575950032601786 1.7053175960639664
Ni 2.8471606847813136 7.183087962417447 7.335474015223622 -1.9245491348689114 -2.0088093276705723 -0.8263314729913641
Ni 2.9129434587257195 5.687759611279947 10.220373528550443 0.5125753833442721 -0.9128588645606471 -0.9209899783082139
Ni 2.29441285070325 0.5879739221790972 6.779984926321731 -0.6051731494773513 -0.5061314274911412 -0.5782318450018171
Ni 0.30706092031962673 2.3942433494431 7.065882111290745 0.2726541774004595 -0.549501309836344 -0.15344832176154863
Ni 0.7573682359996666 5.4272623960997075 11.692441134872162 -0.24044493965776656 1.4184940691416603 -0.4849416807874035
Ni 7.617090914789781 6.116751766418235 6.310325471214157 -1.065248148930062 -0.3273343425521588 0.21840107248384968
P 8.881564679072993 0.1671091700270208 3.677690231311784 -0.09261576385520824 0.4177898655312547 0.3690957427596611
Ni 8.794325414408439 8.474240092194016 6.324026238962706 0.8379240629249697 -0.9373632774599147 -1.9522957088545603
P 1.5256133893652526 4.501347827349848 1.4350216627417296 -0.06260816174952442 0.2561492377669008 -0.0665576333155757
Ni 2.9267185624771916 2.2127074884784945 1.001878621909377 -0.6768267092585956 0.19160734932977325 0.910123210797039
P 2.7511204044620885 8.760782440250123 8.576553046340111 -0.46949269322218495 1.4587644866259328 2.6938162587471157
P 1.00555504200454 5.398344773234358 9.536395117460932 -1.6255907723562844 -0.19168551086587632 -1.2258397666046112
P 7.659233004347916 1.4172480162157628 9.040248184373679 1.1035465302896286 1.1637008311820216 2.1246370108658703
Ni 7.504063481210079 0.4916766778991516 1.7378169813133988 1.4355571952715342 0.19525754448785082 0.4342768074426844
