# total energy = -340873.1406203259 ev
CRYSTAL
PRIMVEC
9.27309841153809 0.00000000000000 0.00000000000000

0.00000000000000 9.27309841153809 0.00000000000000

0.00000000000000 0.00000000000000 13.57211686444102

PRIMCOORD
 96 1
Ni 6.985628878558842 7.299569617955287 1.129259352007692 0.935920374365801 0.37912870151563094 -0.1134751238027207
Ni 4.578582960751908 7.037697324924549 2.288123070003367 1.6199898812297389 -0.06931796966953223 0.41452250763389253
Ni 1.0656458983890353 2.85937837466764 11.762885186212152 -0.44446068995422167 -0.7090739993280756 -0.8555230069536557
Ni 8.81955096241518 9.257723398331908 3.1517443238032747 -0.7713839131108909 0.335388580315203 0.30334029363040665
Ni 4.3038674267209025 5.908577069389785 12.15308417592615 -2.324868097308912 0.06212839389962849 0.7677697133970712
Ni 5.71045732645063 4.601691521454196 9.245406869309125 0.5555775979374109 0.42520081328334514 -0.35358582004952005
Ni 0.9828185853100497 1.9271909055030516 7.4145013242956646 0.40554370117405003 0.7357805620849844 0.9536167632042996
Ni 3.7393026624044223 2.6304255802296472 0.9642918624259806 0.3281601808875639 -1.0271210030410376 2.349303861753773
Ni 8.14037997750497 2.477818203232237 12.642046297967475 0.8698499650992889 0.1943355468942137 1.77362203686732
Ni 8.482835493851471 1.805017836782089 1.6022290889016821 -0.3548708574095308 1.0400559659351507 -0.0037160153990065036
Ni 6.361855382266396 5.5411861919965535 2.7549363970056038 0.6571176608654425 1.62562625357991 1.1931325061795772
Ni 4.188231892227513 4.771815780942225 3.0227406909517724 -1.62860153415815 -0.50308184203154 1.2759217708626671
Ni 8.45385706199166 6.706981550893096 3.0494509229930524 -0.7087572394186052 0.8117970268206148 0.6122169436980102
Ni 7.526426692201178 5.125575203988599 4.782569792919127 1.3352420058895391 -1.5024565281972446 -0.0813504753540341
Ni 6.49453487124245 8.469324589781152 3.2910346044826446 -0.1484282428391379 -2.4688462747964963 -0.5079178299676027
Ni 6.161250449010944 5.02186487377416 6.668089249752861 0.2311635143558406 -0.5651505863378267 0.8154932447252794
Ni 1.5814898047882529 8.385848159828507 3.956339525661661 -0.3962044260509951 -1.857825665399433 -0.8340365549451055
Ni 0.0623346933775469 9.424249695720222 6.116437274673113 -0.6876536246707705 0.028904855959808285 -0.7625380326844867
Ni 0.6819380774116381 4.315226972009948 4.569500888379589 -0.9409203986835538 -1.3013839196895136 0.005100040230726701
Ni 5.146819871953665 1.7549616527247265 8.900132331111303 1.3684478032175464 0.24891569613293907 1.3263318478841029
Ni 2.5031986729923337 2.653840153172374 3.3690473249787134 -0.6911130439742807 0.574788623648223 -0.06612465954321516
Ni 9.058407425725582 1.4482353837240989 10.017389512125026 0.33990909389337587 -0.45298004027914246 -0.4323844755159779
Ni 7.04805537560852 9.036448729199492 9.916752286652455 0.18901387757098415 -0.49496358379977984 -0.3414882654550377
Ni 4.284421739805695 3.3337993514291693 10.657599574968355 -0.5483833941818168 -0.051698971036188375 -0.4487752581691755
P 7.083886627034539 9.685936526787058 5.004337790875526 0.6582129508121503 -0.7480912611315375 0.8360620700155665
P 2.836473822125645 4.511167536873245 1.1490861632587197 -1.6601836798398053 1.4956703585133466 0.7148013887301561
P 4.962535591521657 6.055527856488158 4.847716089669441 0.21386924605176713 -0.021265851357311762 -0.30622198605357587
P 2.881207247818998 8.089887957832437 2.1436073984910355 -2.4856381495428543 1.7098275681191781 -0.09192439421513847
P 5.63101469421287 2.689773408678539 6.919729606235083 -0.06727779931105188 0.5502728978950459 0.7144260076686083
P 6.983653708643277 0.3153113033096877 1.2549812354079342 0.82959060335861 -0.7911942629685987 -0.4261608632037693
P 8.461563006591822 6.21349508424236 -0.12806241338469532 1.589051796889986 -0.21199748295035103 0.8814042455957918
P 5.211611009043104 3.8654260709565142 12.593458045354405 0.5384715343847436 -1.3896907717567228 -0.03295074389440777
Ni 3.5883088044929665 3.4015393337446627 8.156882383053041 -0.7273874529252827 -0.7468918415067975 -0.5206828429427549
Ni 6.568719656803566 2.1381260701478886 11.159468922387498 -2.15221414915319 -0.25777494629578185 -0.9957921110207689
Ni -0.07333907900571889 0.4022354711712859 13.082285707471902 0.5955531098890839 -0.5423297317885692 0.21298170124049126
Ni 1.2341473656929145 7.224921177484415 12.24822430878864 0.08880898851460835 1.1178806875241136 0.16212759470310142
Ni 1.3288349713634833 -0.1793241002074262 8.618728111352143 -0.2182249519173016 0.9372064401670763 -0.9982194895153389
Ni 2.353104305605806 5.741466566815176 5.293071467448126 2.721902989681003 1.185717701772745 1.1432811298750891
Ni 2.92189760269927 3.722462716082049 12.642101009246828 0.6195440734870427 1.8562444369552418 -0.37448040411034217
Ni 7.327871113646853 2.8642096588273076 8.536115006841465 0.3459645560588364 -0.6384064576091845 0.020927237070970408
Ni 2.788105341939798 6.839151019468418 0.39589452662544955 0.8712998101719382 -0.7016887626075979 0.16477120297353556
Ni 8.826746886614607 3.59818465407079 6.627739217576352 -0.19836497976858097 1.3272561594705852 -0.0028526389574467003
Ni 0.576429693457161 4.917885623712061 2.1653222125345937 0.43231685550283616 -0.8148509831555901 -0.32775960301503554
Ni 1.6178032573204189 7.044652148570903 9.695539747277945 1.6599335115022122 -1.0431798562761132 1.2674746685365783
Ni 1.3975393558912714 5.685002671904972 7.755487054578236 -0.5055634708028133 -0.1083938526250714 -1.256720515343868
Ni 3.422153431032458 0.36072815634002214 3.65988414022197 1.0524684806668907 1.164705361187136 -0.15121223334217831
Ni 2.841574026132972 1.7292658976259951 5.8207413559756045 -0.8448853247341513 1.1752540832372598 -2.3237347550354173
Ni 4.488133160956519 8.625465017190912 9.073706183127923 0.022959437009650783 -0.7856465936774921 -1.1486645056741893
Ni 1.758661618904587 0.8138840643204578 1.7918454007958935 -0.22125911075793508 -1.660744951659914 -0.052851082362760586
Ni 1.4374322243267614 4.047429169232516 9.51018535131422 -0.3188754131515283 -0.07496848308709024 0.1344617533567168
Ni 8.246621863526684 5.185358868052663 8.87594716370856 -0.3721772098984622 -1.2896450339860306 0.2547451583305226
Ni 4.020565003761197 1.6338828095907905 12.50484617362129 0.521480913364018 -0.9952997447653827 -2.092047506965623
Ni 4.996549315701429 5.197719907946785 0.8554655639372826 -0.8549208545932824 0.3205916245116866 -1.8721729352600402
Ni 6.46015949623307 7.011964477433037 8.007562319365809 -0.191866773638747 0.17747476658313305 0.6453728616246885
Ni 8.839237749883461 7.382007460910077 8.819961760665224 -1.3940449349603603 1.0905694013036702 -0.9925152400417099
Ni 6.092462606599399 9.496950785570117 7.203482701767071 0.895894725902483 0.29306950783201785 -0.27574850005506707
P 2.0346475673883275 1.1375216824995613 13.032679268677002 -0.6958150774356403 -0.06247626415735046 0.5643442883864475
P 6.674052779202155 6.622299618175083 10.249295788338172 -0.8017463274528321 -0.8377227455474411 -1.0734761932668093
P 4.663033066015044 2.6372598535994647 3.222482298765257 -1.4925742360865262 -0.5841227565649553 0.8597167333200291
P 2.1247078970595217 3.8941726753614465 6.394095162761436 -1.0496731773099406 -0.7839491513704112 0.7267791299173225
P 8.255709499757922 6.001317324439373 6.79190829340346 -0.4268643170286971 -0.9095508832333369 0.9837727179623896
P 8.35276174546825 0.29305586764135305 8.049690004466328 -0.2246434538491357 0.5904435565766606 0.5921895927334898
P 2.839153747504041 7.5927386173946205 7.975029508967801 0.41906924646431054 -0.6266256629241724 -0.495489888616895
P 5.094779244882541 0.3700049637744397 10.743945101502577 0.33867753547911994 1.1055620180577606 2.216562690632589
Ni 6.020549730096093 3.4573448386830123 1.8734542287720377 0.23192996020821993 -1.0232527783348828 0.22415108759374944
Ni 6.416937585545524 1.3897406803091592 3.0846571676007186 0.5025727636056054 1.3177255942723305 -1.1307434024193945
Ni 6.630218844033732 -0.12838882644116423 12.603556449288911 -0.6826353455205728 -0.1366477052644421 0.034129851804173474
Ni 5.158114505555344 1.5292080771640564 5.022253416588535 -0.0817166004442012 2.383076073108212 1.4863542233187432
Ni 7.820699190325734 4.286600917881553 0.7040859451409092 0.9562097207424564 -0.04546353164943783 -0.7386787095683859
Ni 3.9670314078806572 5.561624100418642 7.72438044668264 -0.04213780971031453 2.0141945032418858 -0.5434458476708836
Ni 0.963020520663427 4.942255325768887 13.433436607995985 0.044954710333819356 0.7744820924202404 -0.21486246320297187
Ni 4.385387232954373 6.497428077879335 10.034774716621273 -0.08099849133125406 -0.11019079662449409 -1.5484813316667914
Ni 0.6062306491268805 7.720401360247106 1.4401640790550494 0.5188990115694547 -0.21815064703594042 -0.6532118980531331
Ni 0.1257005552743933 7.0980837403712975 5.397739708706123 -0.033655226160600106 -0.06073434176557928 0.3520195040036647
Ni 4.727787110711703 0.07095125622047048 1.5842188775870822 -0.05365146677686889 0.5889330334694051 -0.8749826583401641
Ni 8.22499699853562 2.2934875573092546 4.398397389722154 1.149315508994627 0.33472446436864284 0.23058681591676417
Ni 6.805730773573136 7.219014213934111 5.347481371108105 0.17110074473598919 0.8865263973137055 0.831584236749871
Ni 2.6432873674263053 8.502299726963068 5.995157205308343 -0.2978278484526097 -0.1919549624771791 1.1548384956953854
Ni 5.909226186263444 1.8884479012437587 0.20074681165783737 1.2469027579224978 0.6021649587786468 -0.3582605998173701
Ni 3.373089468481975 0.9526161044884807 7.736296377863394 -0.8377579696607507 -1.1771847246010694 1.2347501817203639
Ni 3.709823483242074 8.561925748357815 12.164063524189194 1.742455124346212 -1.4848251882687267 1.0816476733340081
Ni 9.48322660024131 5.40623479396269 11.17800862760904 -1.6083852071112752 -1.327026302847966 -0.8029724865504493
Ni 2.1010800428583063 0.09632059826273298 10.926558369639821 -0.643494156544737 1.923168709581617 -0.24981815334255042
Ni 6.490018872421419 5.65493928755633 12.485126002999507 1.8250227599367987 0.11872145980332456 -0.0663257198104277
Ni 4.287667324173993 3.995842923972955 5.605691717661584 -0.5568466944578215 -0.5705059371124691 -0.49827156512709025
Ni 8.059685477010868 7.336355998495405 11.74138736266636 -0.1987388181682319 1.1230043819039242 -0.8007381979032919
Ni 4.87627723211047 8.666758123453867 5.23285196776889 -0.27692735085451664 -2.8879466316090587 0.10105643842339371
Ni 1.2102413185458447 2.783737712689887 0.838729476314695 0.014102500839653134 0.9195136508730035 -0.8192023181457504
P 1.091694031219182 1.1453481773762588 4.4046808410591805 0.21024476192530245 1.6229291663637209 -0.4815365117605964
P 8.333223327571092 3.4110720786892665 10.715919016827407 0.47147321398732345 1.176957953302244 -1.345406862237683
P 0.18510402231245662 8.51740560392295 10.591109606289567 -0.33856697804318464 0.6037006786968828 0.6899881863412182
P 2.338322987082754 5.517678888071876 11.06029777373958 1.1210549714870368 -0.6463979604550932 0.9317623863333695
P 2.4738864095974975 2.169951343153607 9.724801935942528 -0.014266794331659302 -0.8542418262483868 -0.28712871686755065
P 1.1936517458747404 6.240099602964214 3.6816536655448795 -0.39362535246990915 0.5687215915185366 -1.0094133013486293
P 7.8964233101872425 4.01115280909313 2.8845093980862875 1.2429368312962141 -0.9823128455874114 0.9034897646409213
P 5.226874528672303 7.445852741983612 13.566809724717036 -2.0091034618722237 -0.1710979165225118 -1.1068588824923131
