# total energy = -381169.3821498356 ev
CRYSTAL
PRIMVEC
9.33309940403001 0.00000000000000 0.00000000000000
0.00000000000000 9.33309940403001 0.00000000000000
0.00000000000000 0.00000000000000 13.65993438193915
PRIMCOORD
 96 1
Ni 5.101892166384806 7.822639995004537 4.789172668588297 -2.2170861672362268 -0.4269604762869291 0.2190029677339067
Ni 3.8026127212846736 7.249503688909129 11.427122214003907 0.9092233246905889 -0.169260863313773 -0.23509010310375641
Ni 1.0061734558652264 4.109018377281552 13.646452072878423 -0.13297642706044194 0.1375869292492598 -1.0716630513174705
Ni 2.6775822435150842 6.158119034772459 7.015004897871981 -0.4732359623147011 -0.8375296557000286 -0.5650485135423235
Ni 0.9921084749457232 1.9445606101920636 5.036759265029174 0.08176365163205274 -0.4623635383765714 -0.4258101647325699
Ni 4.874360534111036 4.9631556425836 1.4989863078879595 0.177524645984462 -0.27766782856496697 -0.6024061282551755
Ni 3.1228177543079885 2.223209628329218 0.08825658863244819 0.48647097294773645 -0.09878332611850085 1.772961006244553
Ni 5.89269501860142 5.890613737416914 3.522965061502936 -0.2603409072507452 -0.2737373831623092 -0.16988949803670741
Ni 4.208266557174052 2.5113504086396534 11.740795554567486 1.7768392582530368 0.13973148639608837 -0.5541076982601038
Ni 0.35015362650920673 2.9179468875767225 10.924669203526127 0.20621327216840615 0.1333618354243187 0.7309386606116508
Ni 6.901799067704021 7.211601971912378 0.5157853430879392 -0.03969808992057034 -0.16939430356784377 -0.2209102120589486
Ni 0.701446824465176 8.89323050349512 9.305407242612528 0.5852540419559211 0.19814257934512972 0.504863359411995
Ni 3.1908093840349836 8.691178232807443 13.236599275532052 1.2444730654350826 1.4249488236280685 -0.12684871689614927
Ni 0.1469823171936286 2.2507329387018893 8.326208310870426 1.3668730025312588 0.9292933559675866 -0.361311470828552
Ni 8.497647081946912 8.674173325551083 1.9579330751299961 0.9020985407203497 -1.2095346016866846 -0.9715908311842171
Ni 8.92670833133736 7.897855443730666 11.497061661592813 0.0003679248623800115 -0.394256815406321 0.027948662694126054
Ni 7.477725970544572 0.8707165832220256 8.462780488901736 0.09161714738736479 2.573227406717749 1.030481177762522
Ni 8.107318195407117 5.907301319290884 10.125877218152848 0.04713037782889947 -0.5540390498056974 -0.6859268717876509
Ni 5.743085433903583 4.662396511773384 9.77224887870646 -0.37996893802873916 -0.3615487836503386 0.4730107336777724
Ni 5.598422391931253 3.386272486488307 13.646616335429306 -0.10541085873734747 -0.8401344403127273 -0.6163358509623902
Ni 3.8545607530019637 6.189515581430195 9.059214077924327 0.6276672168148093 0.04204987798219855 0.49908994726332756
Ni 8.58516355579043 3.59533391488703 4.974893881802219 0.44371121338270686 0.025050000990092344 0.3213624412394401
Ni 5.230464944850019 2.1517367524954047 9.402529342443009 0.6021449041739888 0.937771825752243 1.5728003680281302
Ni 8.601701808072686 2.8915902146393124 2.4248297765108733 0.582852374492964 -2.465653993111444 -0.13497314577549657
P 1.7366004875322274 4.013260776595351 7.251881762657164 0.13059969929814927 0.09981099605206681 0.29249820870958015
Ni 2.3668086969605904 0.18377152873211453 1.5065675845972581 0.7215019406787833 -0.29724060849057193 0.9115373175357462
P 2.895790109406251 3.929580206638969 1.4631705386254552 -0.5363971683542182 -1.3739126829868595 -1.8613007684322267
Ni 7.300509077578727 4.506309756034981 12.115105109156227 -0.21668614667527197 0.10149995371871552 -1.2395982538412844
P 7.946032903257193 7.122097547879175 6.687780830170363 0.2027142578762122 -0.15126288407445562 -0.3618552591471639
P 5.22093585027881 5.968591783589741 12.457095073548453 1.0416395083721868 -0.38099686507262126 0.03846010374841118
P 7.556161338592022 4.363364004367354 3.2309155791294026 -1.501093586411447 2.6244381252636093 0.9019774417614531
Ni 3.0659325129646753 5.215485320181272 3.0406332801985854 -0.12682454852643318 1.6152199706449215 0.5938201863583773
Ni 7.942262331066431 0.14645873031268358 13.081640891521033 0.4659671965674297 0.8025012033409856 0.717106896934881
Ni 6.911048169290768 1.2120616304400398 1.8179048503604696 0.4871919102741609 0.28607507879205574 -0.4710764927695371
Ni 6.257665873848386 8.306523870752759 2.506721191296539 -0.9568054453449264 -0.36894790432788716 0.1441085324178615
Ni 6.046289836778106 8.435367309102952 12.316493796470727 -0.2726058406610273 -2.0244992276020035 -1.6617412541349121
Ni 3.1751017776066335 0.9022643260913722 8.729367409268242 -0.6691977319584281 -1.1633347060918546 2.4165824323957734
Ni 7.249121031830363 5.490951751395036 5.494995783400623 -1.6014799953510097 -0.9299173627048307 0.2177521260459411
Ni 2.862078954076957 0.2427651172484308 3.9882639362524803 -0.3598012048316126 -1.2595356161951599 0.8836066525637493
Ni 6.585015005083064 8.933866818640121 6.810925477976796 -0.7539294650798692 -0.8941242642656214 -1.0731666324461904
Ni 4.617877627243835 0.9555600573738751 2.200574062155315 -0.3198169511291911 0.19086481473679387 -0.6720449715992362
Ni 1.83608199491178 2.176441466824486 2.771873614272649 0.09326882405817485 0.9704186652529867 -0.6907780292323651
Ni 3.078364201474814 4.339060613316003 12.541281497496763 0.8760270404442784 1.4243466712676953 1.2897211386396046
Ni 0.8520867833458341 4.471142637186482 2.2686282236488404 0.4806993605712819 1.426047456008886 0.7542693649177913
Ni 0.8674434652336582 8.666352188185096 13.505563336336648 -0.7221493444547951 -1.5676602185880872 0.6402142002418846
Ni 5.534649323170161 9.095208109386938 9.218133429355543 0.6027185172892717 0.1991458237986635 -0.1708786014228541
Ni 9.246217659007087 6.509846221854345 0.1000890921558366 -0.6584566913918402 -0.272191378831428 0.3131950749372993
Ni 2.218319084200605 6.566806127993514 13.035661376922539 -0.7534756653719024 -0.7929654959364085 -0.7237925364851728
Ni 0.35602227946354226 1.185639625806255 1.1676976753618928 -1.0728529578605135 0.5018528547204454 0.6893924617387482
Ni 5.673497844165152 3.3534573087092934 3.010349238999113 0.09495418218039776 -0.7323892770152484 -0.4182832602279054
Ni 1.7478562055076228 6.5486159171029295 10.60374311135502 -0.6491179304894176 -0.8463266851663683 -1.05930967195844
Ni 6.195423433402355 2.80235645049109 5.29985000632969 -0.9645825181871839 1.1243033032210057 -0.04511077629570941
Ni 1.862074676969389 8.824118901830275 11.36383633303578 0.5542066857318133 0.4936826602048272 -0.9414862984893528
Ni 5.771206062643108 0.6521036608133366 4.439328900981895 -0.027382505778010904 0.6591148938011294 -0.5498064997815887
Ni 4.936518976661727 5.942757764223328 6.358057358427442 -1.1939591158459308 -0.6837154659586289 -1.50451495338817
Ni 7.700404391087659 3.1077914641418305 9.580750476913128 -0.9069815798442636 0.7760779761524506 0.16890862218067684
P 4.166547602489128 4.474754546686048 4.678090118552511 1.3681701240761277 -0.2626297032849219 0.8675493419905704
Ni 0.48848229386304537 8.89435047543297 4.860081825213393 -1.1238405046519742 -0.629958069731515 -1.4300411505493114
P 0.16124235989230754 5.640841329077333 11.79613243470672 -0.20616185010518043 -0.9015357262383441 0.21410835864576674
Ni 4.3229143512119945 8.141664001501194 7.431769788694782 -0.22136786842165748 -1.0839925194171007 0.5236352407028594
P 7.577524803306517 0.00663676704171123 10.648164931649957 -1.2127569652787245 0.37388879327293023 0.011941488632592336
P 4.130904495567043 0.31422865998276195 5.9807425458054695 -1.2540357694228532 -1.1713010121267826 -3.0390393086542367
P 8.57384250611866 0.804767968971659 3.4441750356751677 0.0015370054698167078 0.9323120881892525 0.5287959589681925
Ni 0.10586908066509235 6.103753730289308 5.373135370082925 1.6868257079073659 0.7383943455587476 -0.6694558707158211
Ni 6.052291019745088 4.0944400758905335 7.308748337801513 -0.20926568584148472 0.184060904441083 0.9332865362873798
Ni 7.2841481541866315 7.746752563115697 4.622686040097006 2.3914691822679135 0.7216644343985765 0.086626893261625
Ni 3.7941289338554576 2.287150692880988 4.030145286868392 0.4562119169528789 1.7769169055685075 1.6896444083030835
Ni 3.91007402872141 3.835418565964205 8.058691813795503 -1.2604110768215777 0.13391333705241454 -0.10083146689678119
Ni 1.815819835936172 4.315475870924772 4.910992016268274 0.14876222913978895 -0.2561962889547523 0.9073469336034825
Ni 1.8811515323107724 6.9856942989484905 1.6404760960363807 1.2351199063549567 1.1740474645236683 -1.5617423104417556
Ni 2.5298112794152194 1.8765223149676578 6.855729955350497 -1.0351549290891073 1.1301373934042795 -1.0784353370442976
Ni 7.900832702465452 1.2465101006284187 5.566546123960138 1.028599644469093 -1.1251006023113204 -0.7022371789119003
Ni 4.314477229280189 6.9392901283235595 0.5815379622491821 0.28872614326165763 0.6337635595205343 0.3557625159858647
Ni 5.927862137449919 7.116759014975422 10.264225485015599 0.5250727444803344 -0.7683358703131864 1.0633748431667491
Ni 6.309931230948067 6.364483197420858 8.127647552698997 0.6814618940377619 0.1569643053346071 -0.168828917982677
Ni 5.308433657923365 0.8653705838386869 13.230329299299989 -1.0636201264083358 1.467496724292608 2.02379680221834
Ni 8.341149669831296 6.338201189279304 2.5083330175770953 -0.7731199219653911 -0.1841310955573861 0.20361080154855254
Ni 2.0860037328430745 8.692923522410593 6.395759347095275 1.7420905419179418 -0.011668694587179904 1.1529806165510401
Ni 8.045393080343478 8.056611465920946 8.56356303034909 -0.3930345129634457 -1.4462684110414512 1.484680435160746
Ni 8.466231869090212 4.611232460412589 7.644604589214112 -0.05877490404636329 0.3515957862026848 -0.4116636980288588
Ni 8.384576581721442 2.796915253493034 13.698318906630218 -0.6292818696000969 -0.7031260092747569 -1.1201275745767612
Ni 6.7794794658918045 2.018740084875682 11.849337634924247 0.6736326278013302 -0.07411024885185301 -1.1937040624123312
Ni 4.19170030559335 0.30354039445587727 11.006820078477396 -0.29225112569578054 -0.07141804673167054 0.33956867983482164
Ni 4.855964995031844 1.6003559012927384 7.255310743406882 2.2693901188462657 1.7074937777796788 0.42543709766386734
Ni 3.045110368020142 4.041792061712087 10.300232582817486 0.007694797541096425 -0.0844486546633836 -0.920732610881769
Ni 1.277757317694442 1.3740375719516391 12.721974970019684 -0.9458666869452355 1.2117737754298485 -0.43141928338923113
Ni 2.7009523246182274 7.0983448096972666 4.759722073172575 -0.6880367190418021 -0.5477431894946566 -0.9606965528692165
Ni 0.19407527056033727 0.2531631233814226 7.205916247707892 -0.7386262590638957 0.039000035412281225 -1.0561546712692262
P 0.9639505138082702 6.589746886520481 3.33098880501612 -0.48037000225632104 -0.7555348618937762 3.127019116399331
Ni 7.347603897565333 4.811390111905402 0.6830092864383155 0.40528504819602457 0.3823389809228125 2.1948682363782908
P 7.598244284156747 2.7229504400975038 7.107755373905053 0.7520157929969242 -0.9054656574203696 0.45815104295712067
Ni 0.5481170663137809 6.532749647983383 7.814780591930672 -0.31688306531184784 1.1624247926830755 0.4952913994528438
P 2.3592115539821723 1.8881233576238907 10.951497197987383 -0.3587658215885628 -0.2921451962455356 -1.208901081867744
P 4.0836696790882065 8.190625441384217 2.7291728175222096 -0.6246384572908146 -0.38998518461416065 -0.3729487979571641
P 2.6433484346147935 8.006698049890751 9.042726224379274 -0.009744738091589667 0.09117671741583654 -0.2946666771158087
Ni 0.8770556243902584 4.602506012396839 9.29912326673124 0.22254389100762964 -0.26094845892775703 -0.30480299421886214
