# total energy = -340857.5095079478 ev
CRYSTAL
PRIMVEC
9.36715070342537 0.00000000000000 0.00000000000000

0.00000000000000 9.36715070342537 0.00000000000000

0.00000000000000 0.00000000000000 13.70977190056757

PRIMCOORD
 96 1
Ni 5.312045448957618 2.4167529170125754 3.8041328104333223 -0.3240579857937322 -0.9737518433912778 -0.4754144580232586
Ni 3.1778245237549574 5.877465384294467 2.928599308792683 0.3418986135195789 -0.7390592328362562 0.39940956325185406
Ni 7.289282299803726 9.028752770830492 1.5734976791003952 1.1565937878235952 -0.14216554975887774 1.0334099213735428
Ni 4.508315839075447 8.673812706058218 9.02817200750272 0.4861315873304466 0.13267175133582956 -0.5870371019982729
Ni 4.677449107562941 7.263400863116146 13.695595453941262 0.9503100674285698 -0.1926972399598423 0.6490531386897532
Ni 5.828203540088899 0.4963034790418875 0.056433334588489134 -1.1817340345346488 0.598832037750672 -1.0655068019080873
Ni 7.115821407809297 5.611372741520639 5.33440390036174 0.5865488495079447 0.7586746930743385 0.047831003440349885
Ni 6.526552707432064 8.115502437911335 4.5624888802608545 0.7079563407838646 1.0800222219154432 -0.397335968552277
Ni 3.631185238283438 2.2374750245899926 7.022830895167743 0.15868231646697833 0.4482337838434087 1.3287170602868277
Ni 2.141349326693522 5.196698358342034 10.639564493740144 2.4300534702990144 -0.5551040007351021 -1.842392361563498
Ni 0.08857109106022956 1.8457033242565313 13.383492304882335 0.6491261580195337 -1.9172055500196465 0.3461800145037522
Ni 0.33777288814638423 4.217924808039735 9.904926048846722 -1.0424553194052626 -0.021901685169097764 -0.8685587570916913
Ni 8.252422076008461 0.29369107813851153 7.0787256186054766 0.8401714641982498 -0.6636616326315473 -0.9257467762669089
Ni 7.4840815605185 1.5707774586103216 4.942591921281352 -0.6275664295708869 -2.9014415807717 1.2529163111064294
Ni 8.687919634632774 3.3773635625963734 4.835285592610254 1.6869869160755786 2.75572379488519 1.976642770240357
Ni 2.4345036671113682 3.0336828126624913 11.376409839279091 -0.8360538424854506 -0.5436001138605606 -0.23117662698196317
Ni 2.7208480891535824 8.268992565150818 1.0187375609732696 2.0653039203231915 -1.832804974985379 0.10277702065892623
Ni 6.086549549442306 3.0213181740712476 12.505518660550015 -1.4647608134186838 -0.4822906163178016 -2.510368048189367
Ni -0.07384780398620187 8.543337667469256 12.27017649926659 0.9581074519858015 1.135219178802561 0.06168127905988086
Ni 2.2776788343124297 4.702805983825438 1.021409072281014 -1.1828149263036531 -0.2810028064754709 -0.15993547214778908
Ni 4.975052844443545 3.9470174499356787 8.125631137690661 1.7257774065802147 -1.4306849547808973 -0.14470888500602175
Ni 3.5951591776607694 1.4086695529587607 9.671901320584112 0.10163750773784432 0.26161591730842687 0.5694330157632645
Ni 0.6408854462054053 8.678477546981279 1.156696016055069 -3.311321704537575 -0.37735875409940167 0.351592186658259
Ni 2.544164897405071 3.469882907570398 8.828846539691517 -0.10613822382167527 0.210319838137612 0.12646459408385316
P 7.938725574658345 3.5809492104312874 10.993619362795087 -0.6759738743399971 -1.236252220187187 -0.8292959549363267
P 4.3937743233983815 4.29568152390785 4.492157504552799 -0.11561710984638797 0.6821782033784961 -0.12715493528265845
P 1.5061253862188344 6.676174201536559 0.243812875433471 -1.5694664185588907 0.3931993206760841 1.5345204986113252
P 3.962604388281004 3.022713879487987 0.9525895546552511 0.46285770440417057 -0.42027972183264395 -0.5934517472753651
P 0.6922324181006784 0.9498571568695953 10.851777287137583 0.7567738765072 1.0697097842458414 0.9130375562303567
P 5.174882264948847 0.8537455096987968 11.443888917675755 0.17663658695255385 0.3938133001109992 -0.7148900917892205
P 3.402889047566933 0.1705636323608907 6.538560457591243 -0.2696927807792904 -1.0998909358149123 0.38418117633787385
P 4.864464266255499 4.211161725416342 10.26164025191383 -0.5871746560174016 -0.1767530579257601 0.5151454580642935
Ni 6.359901733813266 3.28537814519788 0.9334693271609737 -0.5020066066894903 0.13548119576016665 1.8040335592796415
Ni 4.616150475031807 6.1492438873901785 5.787991299931059 0.8211396443777793 -0.6213700709521879 -1.282069792741934
Ni 3.0582996840396035 2.9069921028544847 2.9482178686907896 0.5254645806021144 0.6120973874010104 -0.22046206877793645
Ni 3.069999254949045 1.559049786249536 4.908331568518115 -0.4376495805696592 -0.20579598212532943 -0.9607497747046551
Ni 0.584919532424267 5.570428926912816 12.349611808494972 -0.2856675589409919 1.5981437318889251 -0.630989853430139
Ni 1.9311598377928305 5.976045275608291 5.098020111948507 0.17511038011601454 0.8138536522393274 0.5574940982338333
Ni 2.7716836146343997 6.465076099042419 12.339301385996954 0.10029693454954984 0.8285845306915989 1.2733236711181877
Ni 5.36658099886536 0.9213088924494947 5.7365937454233675 0.19728228822736346 0.279155468854087 0.0697951664162669
Ni 1.5776716813399845 3.5013003301726937 6.103576218811476 0.09472869643315299 -0.7500262733707211 -0.9524530819135016
Ni 5.362075399499915 6.294406617881467 3.4393150855137273 0.9798651553778674 -0.54765397221496 0.3644644146352368
Ni 3.2794862075661437 4.780918651410574 6.828837209391491 -0.7590796418222411 0.024630911174802744 0.6361186900162721
Ni 6.765808464172626 7.585246785355946 8.708844912018364 0.7959297207710551 -0.11569809959596848 -0.14884733265442754
Ni 0.5935691591478687 1.1502954421540108 5.390873766836975 1.1557219267416032 2.1408843259626678 0.511705579144809
Ni 9.051486844967572 7.2212861547023355 5.907608874435848 -0.5838869864050654 3.0891092287274344 -1.3005763361865534
Ni 9.255353507315924 6.8263296232165835 9.002768295487984 -0.5419828899721117 -1.9247913327867046 -0.2350800758014274
Ni 3.667717125030294 1.6216972884451697 12.754721394351213 0.17191681287938132 2.153964041964761 1.969808006706711
Ni 2.0889682213887997 8.450752752442096 9.259894701853073 -0.09802536490655375 1.5613214208542532 1.0857264713890722
Ni 8.716789192313238 2.0349759662070364 9.32261714125229 0.19278748568080345 0.6784565315525348 0.11583282540161986
Ni 9.659686556400036 1.2396861588784327 2.7279568196285027 -1.0244491126358293 0.6657552819357825 -0.4805690056410046
Ni 8.271905748940117 7.120280171422502 2.779806807502829 2.947410077082014 1.2259279554430438 2.3011509561976307
Ni 7.780317693433709 1.359707457567526 11.784370785731678 -0.48676382159780684 -0.6490827063761079 -0.5074311201391712
Ni 9.529951522696457 5.4487309082935464 6.776383977028319 -0.16080064836156177 -2.9459394060737587 -0.5201696507517622
Ni 9.46803465823576 3.3969221727316135 1.568425367132851 0.08014051420633295 -0.2497947563037827 -0.37334937582969246
Ni 5.073370455544827 8.105919843003122 6.603956281728294 0.730803163475051 0.8534663815349429 1.764551442024619
P 0.8690177117890722 3.7224493850974425 12.93382599449051 2.6457908799077723 -1.9601136622370825 1.2367785250043022
P 7.496511769162878 5.207582987162507 3.1629953878808683 -0.33334995261861944 -1.2130966080063301 -0.350580457564293
P 1.5984480210334526 7.180623354607951 3.1494636023438147 -0.9655945043914661 0.9644146251507522 0.3700329098619498
P 1.9944630405198178 0.9806188789405375 0.7140738028000743 -0.5666839922632175 -0.04500870350020635 -0.6944523927601589
P 1.0686326245491162 3.176550591294041 3.6038050575241924 0.704188131990684 -5.264440166403746 1.0318006679048939
P 6.306874295127638 5.310275057522963 13.435397558944302 -0.9444525802065283 0.29437125736257685 0.5270386099574537
P 9.20890180824473 2.771655513183056 7.010958031975014 -0.423431122977432 -1.3699773524881955 0.7403594397049184
P 7.28509518355351 8.55753826754829 12.799470145470979 -0.7303858734319744 -0.03564063202174507 0.39279437192818156
Ni 4.570598022403612 6.115737590237999 8.734083762185218 -0.11758837464014588 0.877525993587308 1.4378753018817496
Ni 7.788335974217121 4.288309576505344 7.69203230046214 -0.3897967227524383 0.8054633712931032 0.584482196786903
Ni 3.43842801636631 8.824192939348993 12.468859380557067 -0.04994599290082365 -0.6260613057802701 -0.7255645407839311
Ni 2.859837867499697 7.281938453852565 7.652369912035593 -0.17364150887997193 -0.8717600376378084 -2.320905513116738
Ni 6.138331157118362 2.3521102117715365 9.958791847497439 -0.13164973782921843 -0.10150201060124453 0.060503970922328065
Ni 1.763590883430137 9.250632463490177 3.68868268116281 0.5715150951032738 -1.143796636058927 -0.29554805127949746
Ni 8.865230425461295 9.013222035387853 9.811110290250708 -1.0628814484700986 -0.9164643225237186 -1.1440360057632426
Ni 7.0729011244569655 2.161835284723105 7.469001385012406 -1.9546464684749238 0.18180064765199658 0.042532731155888036
Ni 0.7765601900080039 5.007013561771821 3.3127601993872156 -1.784528399367178 4.928359702227841 -1.293101110855431
Ni 8.643772254571767 5.51716730946599 0.9719308469000993 0.8935161983679772 1.7516378192867446 1.9008124533736037
Ni 6.5862401900861585 6.8971640149036935 1.4781738092822658 -1.8406185574925267 -1.4728183936158377 -1.941899967442533
Ni 8.123511351544298 4.0856138079629805 13.092955146299635 -0.1896365987566476 -1.652852950506347 -0.9916685757706987
Ni 1.3682971345282613 0.8987097052788628 8.057781120136257 0.37573201712925614 1.5456225220617574 -0.9587715679323616
Ni 4.019744006013266 8.34617788484161 4.451507818469041 -0.18227990128126026 0.3699796880265112 -0.7548398927092805
Ni 7.960279387838989 6.478480491333381 12.572065707477114 -2.0790901754740063 1.1983474747216136 -0.7521104095932596
Ni 6.285142506088484 3.510208490248658 5.704540293305659 -1.3441627054179366 -0.033642370644793675 0.09972229299300245
Ni 7.308672301230904 5.302172472385519 9.899250492390333 -0.8209264999257087 0.570445773298495 -0.0175403228766085
Ni 1.2356676513362788 7.215244342663433 10.815611655973242 -0.9902722096438042 1.1488907627523828 0.7072873397412981
Ni 7.529671481748487 2.7486872602847763 3.12667800887927 -0.5871723420245565 1.222835689670965 -3.2860670437358444
Ni 4.734682396799682 5.060790372493282 1.3456070859982845 0.8182754354561069 0.8695784566054572 0.9528384902773782
Ni 5.897660960660166 8.076469521994886 10.925673800306113 1.3782905003395811 1.061332873036056 1.100292285018389
Ni 3.9647775671849192 4.640795447860262 12.996150329995691 -0.6490827063761079 -3.5765448795812853 0.2191819165139322
Ni 4.883591987470135 6.012446022248876 11.689732591326335 3.7280584462139665 -1.3035567589711163 -2.2057609720313947
Ni 3.748377657537262 0.5974902483253646 1.9537936834201195 0.4759273931039352 1.9819711244318057 0.8940779844087183
P 0.38048053718354824 8.349906010719877 7.682736340357633 1.3412792132225544 -0.535605268580542 0.20928316934298152
P 3.8328599874269784 7.4685976608281015 10.73801418166274 -2.0217921130834857 1.6607781188906947 -1.820534128037826
P 6.581959402331462 0.2976599397832917 8.355900050291497 -1.6967902753192452 0.2222443574893398 1.068237056355057
P 8.654076120064468 9.076525238114842 4.8789927166002105 -1.265614218289072 -1.3672362994079486 -1.72630705383144
P 6.310105962032168 5.88476239449339 7.489702787502291 -0.07094367819841331 -0.4411455095380596 -0.9975060083880821
P 1.5504413749879051 5.411290407953244 8.210412279679666 1.980371898265486 -0.3090088047700936 1.8560274358484294
P 7.7604593344841355 1.6651702336739282 1.0639387454596676 0.4821625753803696 0.7357941889317393 0.4228641947303685
P 5.580695323803727 0.26427635230197905 2.9033454711851125 0.9368398008562769 -0.7341085736992002 1.4610939060900578
