# total energy = -340872.82405315427 ev
CRYSTAL
PRIMVEC
9.23656502089361 0.00000000000000 0.00000000000000

0.00000000000000 9.23656502089361 0.00000000000000

0.00000000000000 0.00000000000000 13.51864655437589

PRIMCOORD
 96 1
Ni 1.2794674374024344 5.698951281456119 3.5202959421188256 1.8151363540610224 0.4487420909383949 0.2677922213224678
Ni 1.136688617811562 6.760057089026246 0.5273191824279172 0.177712593625552 2.1354127613251355 0.5577902893180134
Ni 6.153510347863521 5.772631359336595 1.198337146306666 -0.04958809534077266 -0.23396061748500352 -0.32434389246526724
Ni 0.6503105091212914 5.826859231623955 8.390928712833958 -0.32118503512131136 -0.7597442719894334 -0.7595529819142338
Ni 1.845151615628815 0.7605175063932835 10.699237713097444 -0.9128172126894344 0.21521624699796485 -0.2277624590940916
Ni 3.4985983276084798 0.44072269224857535 8.367419807954757 0.3446784902575612 -0.9313978039050991 -0.4756887947305678
Ni 4.018727767950129 4.108303973952993 11.371195959278841 0.598480310838208 -0.4090733115938633 0.5940986368307446
Ni 3.0160339965485026 8.278548351850636 2.415362634292606 -0.9908805326517645 -0.3982083438549013 0.6574557609311517
Ni 3.585237305986173 6.474767310225413 11.167902861357556 -0.4068220536658413 -0.18049067059132143 -0.5886478981288186
Ni 3.7100510069262347 5.194015990307574 13.44414527939995 0.189709360976112 2.0024535606558738 0.5694139895998709
Ni 3.8819342423879077 3.013863403806631 0.41973259860643164 -0.4844837673143785 -0.9369593571532767 1.5717577856962286
Ni 8.392647637554223 3.2711294448251698 7.0837839088314425 1.8073867920225906 -0.18828471271444347 -1.0892756221929112
Ni 4.983782537551212 1.9626407206356657 12.147855286419766 3.3675584155431166 -0.2516300097403085 -1.5236197925384212
Ni 7.905455787499872 2.9745064009423077 12.302644411296834 -0.30276410941196247 -0.8428340986320776 0.1355045927989344
Ni 4.226984595826659 0.6083977487604749 0.9472614510566487 -2.2825981328961076 -0.2525347809427651 -1.8114388506047772
Ni 4.135108485173896 5.382922214804437 6.440850644063058 1.0022836322823836 0.2749074922110104 1.1081470051761175
Ni 8.31760978463947 6.170339369036672 4.29903811463546 -0.8023088848245215 0.014958678192361336 -0.026700906329954012
Ni 3.747108105140659 6.856043471041278 4.6312718106758215 -1.115128321589957 -0.18185489792869972 -0.4522735011304211
Ni 2.4381021333190493 8.243061469662246 12.139716949122473 -0.14581214537252954 -0.2841338959052848 1.2001850421509848
Ni 0.6009521538276116 3.9983057230468155 5.177655262972776 0.15078825843088225 -0.11804500256159026 -0.010273356901550049
Ni 5.723899243140358 5.778875277181299 10.495471703055374 0.6749950553664955 1.1064570190682042 -0.16932591222375354
Ni 2.3563308246220642 4.178963695124566 7.625679314263394 -0.5360840079891734 -0.7037610717555944 -0.051395837973472774
Ni 8.676071630253533 1.3615527893046264 2.3950578937630023 1.7612115790181087 0.14030381395979064 0.25613021160350724
Ni 0.4311573056805648 3.538343266196882 2.6053273691223144 1.2808762866544652 -0.4885337690140361 -0.595179271489433
P 7.238169395824172 7.248514348466284 2.418485516871444 1.80091558247595 -0.5122966757615887 0.9878327469643762
P 8.17454463153797 0.24401526507177543 7.4999558116847185 1.5051353605809885 -0.12626456225790514 0.19972637889248182
P 8.853506041195484 1.8718822343308454 4.492435156966783 0.12019110237031556 0.9352598579636668 0.9593348966349994
P 4.079264214036206 7.424720296281983 0.4945376900867368 -0.338357690245856 0.30475928546512027 0.4340983728832911
P 7.97749175683544 1.2180165713953135 0.5323078511082788 -1.4256443070331963 0.19022126761552402 -1.7920367919290816
P 5.20927479545469 6.693849392116726 8.269707111967573 0.6934900288468895 -0.7724642906592631 0.20785954952257749
P 6.5719913919315545 7.817246593096145 10.49334914045077 -0.32467685032465377 -0.33978465250036965 -0.2924092485401997
P 1.8469435092114665 4.926007824357985 1.5035705159511148 0.4264372567936075 -0.14802380831186765 -0.5881305921727678
Ni 6.870674189777978 0.6451518876475236 10.839169823398764 -0.8926651632215916 0.4574043945990832 0.4213439014311002
Ni 2.850062162596608 6.662777587930951 8.227109922150703 1.3732143713682543 -0.6357859892672018 0.07873643476995473
Ni 3.993659730922724 1.3415186801253922 3.2598996292695617 1.505554707506594 -1.2865710230463971 -1.700912010797103
Ni 9.04143318981729 8.208858469989263 5.289562711835314 1.3794043022290503 0.26682754341635334 0.5132718951906644
Ni 9.047058257816438 9.165618804346936 9.730424585255223 -0.8187544319750545 -1.0617751027797973 -0.8099777142236889
Ni 8.898912994042469 9.373820212834312 12.42926016604089 1.5641288083960612 -0.5707288517565525 -1.0038748880289035
Ni 5.562952100471775 5.020654904468456 4.015457100333546 -0.2933646704749335 -0.5438641661552247 0.9410846921755599
Ni 6.121016112689456 1.6309833862425065 1.7868541128645667 0.8362253350663084 -0.670622894440729 -0.373970297243143
Ni 1.020723546006451 2.1489699435368603 8.844560428129514 -1.1508095770416504 0.6701806646969877 -0.29191096874754247
Ni 7.882382848482018 7.270469663136196 8.220040255407602 -0.6776489480495749 0.8184464138163323 -0.432398616583365
Ni 1.2120866967558168 8.402179772488742 7.901161708496909 -1.0016639964205136 0.2677698527249647 -1.4373842211779437
Ni 1.731384846260153 1.2132227942334775 4.0134693915758834 -2.4136755431616237 0.5064160486110956 -2.2216969265353606
Ni 5.4198130548514 8.344432768990092 2.3226524618330724 -0.1314273374057672 0.6790895371508434 -1.2977427233925005
Ni 8.16216763462687 5.968335695569704 10.135240131614323 -1.2845334237910782 -0.7398171940482033 0.8557310091994037
Ni 6.525115825271981 6.146315063838338 6.190851008619117 -1.0398178817824157 -0.832507777005405 0.8777846465653335
Ni 7.235028963772101 5.215703444596574 12.272091702056136 0.7222979542175174 0.9569661392925066 0.8917254250161416
Ni 0.9696268692063019 6.797927004948265 10.48134437710349 2.221147481789794 0.23782061466104198 -0.04616210037835921
Ni 7.422032455908005 1.897467518990356 8.705264717146981 1.5215413127428377 -0.20677917197420514 0.49612906486279074
Ni 2.8260655670928503 3.4372490638148085 3.244447779916892 0.02755991189613963 1.5171781506781354 -1.6747361237326834
Ni 1.6418178768221474 3.0803851439213585 11.527214470938647 -0.5075427060163711 -1.4713207260243888 -0.04588030747188228
Ni 1.5148612928347918 5.217135112149723 12.473857995806227 -0.029770289283897116 -0.4470608465812301 -0.9407802735612637
Ni 3.690894371408608 2.442748125443141 5.128987802730552 0.814786962686874 2.37839743668562 2.5722922964979893
Ni 7.95790100276944 8.04324686206687 0.4031649722187911 0.12000366894985785 -2.09050227396569 1.6652209851533968
Ni 0.6031088917221948 2.3585845464476676 0.13312383834372926 0.553408358200234 -0.19490864578886433 1.00149224672934
P 8.565925594309611 5.881484276200254 6.617904508532815 1.5916920627263103 -0.2284126910835808 -1.096095730438538
P 2.627017594380772 1.9120058720784678 7.206777082837789 -0.2193318118282352 1.6098527927957373 -0.6881477906983697
P 9.068884260578324 6.938461339278393 12.179394460787407 -0.7063388597850997 -0.21301435425063958 1.7322283044118811
P 5.447144050269267 3.6024265531888267 2.3460662300942254 0.22950283882396605 0.6501276027008545 0.3687689555478617
P 2.367497831536631 1.7677953849344459 1.7932218006783813 -0.8317379887189159 -0.2708091537719207 -0.2794498601660542
P 8.826221228601911 1.6243977154980185 10.977208437903982 1.3922330785626025 1.5049312149899825 -1.5467082989267686
P 2.896974675515617 4.607540304583519 5.024245157229161 -1.4907526094967551 0.4242934709777273 0.0003710101861735546
P 2.37321526518437 8.18251578701131 9.625641298868453 0.7990124734614368 0.30107823706910725 1.615405090072534
Ni 0.30027887625406546 8.046415003813516 2.6181966749403998 -0.312618633608539 0.07628797322946217 0.3513985825902142
Ni 6.154461714044 0.1360767681291609 13.272701704425566 0.4982538245152774 1.6503070441560417 0.1529443855419366
Ni 7.445465620955362 3.5811455077536234 1.0886224579416601 0.050631963224254735 0.12025178040492193 0.1819060628816093
Ni 6.243206629209553 2.092386747210448 4.065530365747316 -1.4701580731748551 0.915677307846049 1.3101688649709953
Ni 0.7834177216482745 1.1563255547018578 6.404688568983474 -1.4588542181262618 0.43966738233063635 -0.24730515711270953
Ni 6.894476817419697 8.536183855463536 6.128530058202276 -0.8008042752545369 0.02624684951167093 0.4276783282895602
Ni 5.8174194623380275 7.281932240126252 12.64367870633488 -0.7474415433626804 -1.229076014153722 -0.9662676191990905
Ni 4.459210309512369 4.65471144131858 8.984735460086625 -1.396663089309498 1.2372369526979596 0.8140336294606174
Ni 1.506640750110256 6.47450868640936 6.075428123171232 0.009335675578629082 -0.7207329237232426 -0.13415990584558185
Ni 6.890754481781508 4.629338597650827 8.327999996449392 -1.0201222031257011 1.0661650043173767 -0.15004006741094805
Ni 5.951026373023884 7.440653370663808 4.315733205618154 0.7299680691682655 -0.46482511254318654 -0.04728927200426694
Ni 4.71703054442245 3.202418638838852 7.379355831633347 -1.7389913341673278 -0.3758752275753398 -0.651478203191478
Ni 1.655284788386612 0.0261191581083626 0.6631733493439754 -0.5758772287267115 0.49595268718592644 0.10419189872858185
Ni 4.298216984019492 8.924562934655993 10.529673779071873 0.7899264519997686 0.15815164077448893 0.9215517643489548
Ni 3.0529987291143375 0.3706541112279803 5.526909177078871 -0.1834574665291292 -2.553784467501789 2.005826590893165
Ni 4.456818039213881 7.949560384701737 6.717712981086513 0.4617937819160305 0.08690097285861807 -0.3267764131661598
Ni 3.320711324988438 2.4048504998265443 9.71268760975643 0.822790292607325 0.6789437556015985 0.039868811170479725
Ni 6.31781960014079 3.351589161312172 10.353471525882117 -0.3625605127443046 0.19104633461998066 0.6859322711042897
Ni 5.872349313554674 1.4585921397135864 6.554988723339053 0.7674416406336912 -0.6248120067542013 -0.7562617127574718
Ni 5.974690452192716 9.117745688682588 8.442218433839662 0.27392841612719276 -1.452810325925027 0.8437944056628178
Ni 4.0258583960213 6.02926931394472 2.373022220978816 -0.792518638206977 -0.5952381497518264 -0.7178864554133829
Ni 7.665748456278348 3.870647160130174 3.6704206017420837 0.18916325866465486 0.039668522234215554 0.16481388328601293
Ni 8.806704367054781 5.581258972022371 1.8305061183883384 -1.4683019938027229 0.6658280441552469 0.016378955578655662
Ni 7.454748368638687 0.20263730181629666 3.904117700209838 -0.03223572010525416 -1.5171357274759742 0.25347991846485374
P 5.322478134366951 1.886291275510931 8.966147796964314 -0.4415669133461944 -0.39706008918307106 0.916691093822544
P 2.342854676492741 4.540021015464015 10.140282372370867 -0.1796954283835357 1.493229353172022 -1.2513654216795416
P 1.8680305867846303 7.9370725490123295 4.424950043137259 -0.8619654201448896 0.6590351896031295 -0.6806957052956987
P 8.790207862216556 4.006276878520158 9.110297322780267 0.26799328158968044 -0.4772977910889005 0.557363229082924
P 6.469197661615418 3.71446608492885 6.3088822999831935 -0.46675652523794453 0.3459804968984364 -1.9632020713544187
P 5.715096796829703 3.858270163219075 12.885595423870683 0.31647554546078405 0.9975471460386626 0.04338273786100916
P 3.1914917826106204 1.225488952366268 12.221978719413475 -2.5516694780413154 -1.077414094868635 1.008013078566993
P 5.067031696625641 0.19398818248230176 4.841000023334396 1.2448422758490432 -0.3487727149315929 0.02048063645185505
