# total energy = -381170.2739685194 ev
CRYSTAL
PRIMVEC
9.23960150500973 0.00000000000000 0.00000000000000

0.00000000000000 9.23960150500973 0.00000000000000

0.00000000000000 0.00000000000000 13.52309075581018

PRIMCOORD
 96 1
Ni 5.160723856135825 8.69318049787986 5.612244691381831 -0.3516952878950266 -0.6955870205852343 1.4309855167404517
Ni 6.482568933748976 3.8288538111362063 1.7078312689156179 -0.48390064111739883 -0.1107394700391125 0.08244396552852898
Ni 4.026396486456654 6.51608096758374 5.69240931998872 -0.8577760646538904 0.3951356184668485 1.3787378722896448
Ni 8.607695706857186 9.089208287851095 2.5093445047260965 2.545693205853222 2.002825856393628 -1.0635915871632458
Ni 2.5290082241656187 3.898012226700919 9.380224313459047 0.03563266160194509 0.7390792874409142 -0.1502023040204252
Ni 8.09495327354414 3.61940128976861 12.951820830176185 -0.13805949801030418 0.3246778787659183 -1.1092687774853864
Ni 6.805622352827746 4.238722523821663 11.021453764483534 -0.6252629782486909 -0.8605425716554341 -0.9250888309679358
Ni 3.834591603529752 5.421502362601882 3.6904917059605205 0.46655315097788685 0.5692805493458002 -1.4504220281985087
Ni 0.9639214033117712 1.8398725628571262 13.067687278120689 -0.34582314538496567 -1.898009693817486 1.400228695173569
Ni 4.924245501030516 7.811306753915402 12.53555276964569 -0.7387743546059857 -2.4992261726399345 0.6263071032424892
Ni 0.0938447822588737 0.6773311467159102 11.020182395347701 -0.44661193196926957 -0.27128763607023604 0.24639858613804017
Ni 5.827508921953196 6.546839600237705 10.220170594744873 0.8188125389064994 0.3535547097012685 -0.39526263096301606
Ni 6.530688777204022 5.597729277774328 3.2209564201030885 -0.416746768978721 0.3415905953608569 -1.8252356472785531
Ni 4.496572076682641 0.6212107325143731 3.7977976633210946 0.02138823586778897 1.7968961769039118 -1.304453559753773
Ni 2.8944344547046126 8.063381555977724 3.703447474872323 -0.09205397781446728 0.5177368729405535 0.2690939708530269
Ni 2.4098820448902902 8.018809719413374 13.47827483178556 0.7738742836329124 0.441012326394305 -0.08573497757497492
Ni 3.6992868824169065 1.0413677412227156 13.071514320969973 0.692547205317646 -1.327189825009024 1.0749512351504389
Ni 7.423659282303178 5.665612628362696 0.8624733531613543 -0.2287104248296577 0.7728514987953529 -1.3539632364481262
Ni 8.854143591741297 5.186169718055026 10.88303160189954 0.20628706282913506 -0.07516183004481894 -0.382178029864916
Ni 8.337215619049385 0.05839335611588845 8.880680650571412 0.12436965922803742 1.4150773301506274 -0.20258004629119306
Ni 0.33285294019405925 3.883533771498527 8.071067056320642 -0.5855407199584045 2.3764806792788815 2.3443943402672978
Ni 2.0549889598080457 8.481565909813247 9.389608976476959 -0.7077727640181488 -0.0297062688151811 -0.07339702483491231
Ni 0.44914071395683225 1.725486299037335 5.102938465784019 0.3572743246447008 -0.5896442006038167 -0.5610777018200337
Ni 6.0414796083456626 8.746927258513118 8.63273502632016 0.3975097751259799 -0.609775167025737 -0.9239889130355378
P 3.700700541412418 5.153535446341657 7.878768778685501 0.8010850397197494 -0.8148404416326288 0.17430048262020947
Ni 8.835969296027764 6.130309135030919 5.685851051001701 -0.8999642679861661 1.5876070940236593 -0.7530578611081934
P 1.9594607221963476 1.1140649240768448 3.6849202263899765 0.1983922334620906 -1.7714620531015233 0.4114335842959237
Ni 5.163791403760072 6.513789546466833 1.232955493519588 -1.2276089426898922 -0.468043105259852 -0.06364714453700006
P 3.2731102734760444 8.743628720856924 11.462644725500905 -1.974693102713154 -0.418228238620254 0.1877874613630508
P 7.236926940477816 8.76871423832629 11.40214289237341 1.1654982894020767 -1.265600848552633 -0.45919491084060265
P 7.388133015389842 4.704352230218947 8.945808752058726 0.9060364423221751 0.3303193933224118 0.29945201431959395
Ni 5.780266840619546 2.634626106372729 13.223431845180395 -2.0071141993563373 0.929993724468721 -0.25216608474943675
Ni 8.820363609469474 1.9430789091307183 7.445948896425865 0.11272950388594778 -1.5256445362779338 0.024848940722879784
Ni 8.599407784510953 8.821666393249652 5.798863386111477 -0.02994975228455487 1.5452371136978809 -1.0196889722430245
Ni 1.3343000601356934 4.189198260972383 13.45742197566158 -0.34401925940700756 0.9224153979008307 0.4193692942032326
Ni 7.415140369924999 6.650692718600746 12.04872187415625 -0.006539600890730672 0.5838535620639687 0.839046092344555
Ni 3.9768907028099303 4.246853372946171 1.4092683369839178 0.32541424271131053 0.9244604533553176 -0.30626826591047895
Ni 2.754583849763065 6.604697983439606 1.858140178543565 -0.3442308611971814 -0.2624211868185416 -0.7406327479709631
Ni 6.96651152987896 6.556652056794782 7.592890895348163 -0.4901095981415881 -0.6311811435053388 0.8948161481263236
Ni 1.5180387711470316 6.1204504804674515 4.070963703220366 -0.7611758622296375 1.9903673189153008 0.07664818478235831
Ni 1.3674517495206213 4.530352058954463 2.4009168597703914 0.3645454043848173 -0.24169346735288696 -1.0012091682712823
Ni 1.522168872918231 1.7949403818429384 9.30912003786522 -2.162018793948438 0.15924410250771928 -2.4560768909459703
Ni 3.82716296410236 2.7871534442674886 7.857091750127537 1.474476755154867 0.6924420471983495 0.10924488777145701
Ni 0.2015304872319677 2.275769232342287 2.428692949131866 1.2269736230987385 -1.761114391318612 0.9231895570626939
Ni 4.798485288037689 2.3052897584250203 10.89025327425831 0.11647225875783165 2.3802154637309654 -0.4768270221000691
Ni 0.5067163653596309 3.063805585728893 11.338056093950108 0.42846662851881046 0.11330671654565648 -1.2087442445749055
Ni 3.468019662432304 5.547890868481601 12.782836838445446 0.2614457102791497 0.26713247625128184 1.4734773673560753
Ni 7.16086654275855 1.8591833295278342 3.406939430264817 -0.19929520489233418 0.7664664212046154 -0.8526271734630992
Ni 2.684464515665456 1.6141583432405122 11.08210527915173 -1.3298403752579935 -0.2782751231316627 0.8203613714508582
Ni 4.130000135585194 7.305761969997803 8.360001399760693 1.1472645400028691 -2.0930826330983567 0.4807569532820946
Ni 6.130401531043697 0.28949056743697826 13.168203976462296 0.8401352116436757 -0.1060214957381529 1.4601171439990854
Ni 5.173539183108203 0.13391600904078427 10.778321972498043 0.6362750130884783 -1.1365805779264617 -1.2156057475814293
Ni 5.9547751899543115 4.0873224172828015 7.48328612518966 -0.6601662178837792 0.14788162630704854 -1.1336199526362414
Ni 6.879012505777714 1.6348550501028976 11.481536938233724 2.5287735472797483 1.0942617625535929 -1.0984341487637277
Ni 7.066022035641413 8.95742385482511 4.0772115216044496 -1.8113102954467128 -0.9296144867524313 1.5434926202029482
Ni 4.678564503052466 8.963401876851881 1.506201917949977 -0.6710489262345539 0.25897230903799273 -0.18542050379277097
P 5.3876946615262264 2.015240195110732 1.8010191155236366 -0.4425804422123732 -2.1989501197571486 0.13020066408751768
Ni 3.7325956450235585 0.8048173172274382 8.881384708188783 0.6279770347457443 -0.38208032794478713 0.16919812839663761
P 0.6953705442507859 6.697611413889672 13.4036678233473 0.2063677954683994 -0.31597880833002356 -0.29388634730635843
Ni 4.524226203307248 4.655419301851451 10.768774692497642 -1.154735651568934 -0.25331125409747346 0.25713834115304746
P 8.585391309372454 3.829204915984765 1.433732029287283 1.2016490282910208 1.3085917502918625 0.21299995607293637
P 6.394339981146779 4.457895105733558 5.04409883692641 0.2669913226877273 -2.677527548889421 0.5416969833005767
P 8.94143010501315 7.585001199817006 3.9967087235907917 0.2748717538770685 -0.6456492552145268 0.2710186986795655
Ni 1.7270662708558475 0.2836511394293767 1.8188155115449045 0.059560376062136135 -1.016026950010405 -1.1652036409797932
Ni 4.95383994392347 3.236124149560808 3.513434150633196 2.7531699181150846 0.41754458228966806 1.3792266390006052
Ni 8.56898177750299 4.37264130474283 3.699213889566811 -0.9571268332400871 0.07904805247310256 -1.053632676178321
Ni 6.857779902041213 7.9184029723269695 2.0150489353642804 -0.9727881939264279 -0.9345011254207712 -1.1719021360458914
Ni 1.1503395986936864 6.02842405174006 9.277542776538036 0.5853075209016759 0.5603045710994351 -0.7039374494324586
Ni 3.7304058595207077 3.9825545783932523 5.560762557021776 0.5429653084900391 0.27463778348939155 1.4582916607545724
Ni 1.8889440852437913 2.815186394544487 6.763100783786951 -0.958990368811387 0.46875118707047014 -0.07437944335283965
Ni 1.2381527692383794 0.21373507655988064 7.319440275729534 -0.23283575985194097 1.2564901445006167 1.0581020248035842
Ni 6.306397456184198 6.493628736478563 5.212150552888215 0.4486711284911434 2.1341814600211957 1.8124652349867625
Ni 1.8809887885435619 5.5635335134450035 6.8303641571295755 -0.5079599960594477 -1.3341184338080572 -0.25053574823486524
Ni 2.8563210994334787 2.9456680437902945 3.435960093918418 -1.5264750025990292 0.25515370662285086 -0.07967000232781762
Ni 5.019607425819212 1.9638957308097158 5.965251973843267 1.159318900064242 0.07931467587092791 -0.38743773560195854
Ni 1.7889715994174469 7.677886911463239 6.0371942812729955 0.054041503126435964 0.3017446670085126 -1.090474784707335
Ni 2.8844926437296454 0.9886003783249103 5.803664282935447 0.11919865655005922 -0.0776920526658404 -1.63804339629734
Ni 2.562492539196549 2.47187052986339 1.1456264780818548 -0.06247137906134402 -0.507692601330674 0.2921765637041032
Ni 6.103634406141764 1.8548499565285224 8.73726910329738 0.01746061867860864 0.43114906044698004 -0.33678006134609095
Ni 7.504662866706094 2.3904049653965806 5.730895955151478 -2.348743104154297 0.8133551153363541 -1.0138983337031766
Ni 8.542916862298174 8.52656276803638 13.504387792917022 0.2354426013471687 0.07012503895185987 -0.22543869605692143
Ni 9.018312827246147 7.579023177790237 7.438511017397195 1.368913172889739 -1.5375862820208421 3.2094723378992405
Ni 1.8636090985399245 4.958773891005843 11.309793077601292 0.3394159563070413 0.6880529169917182 -0.5882624897649418
Ni 5.745442783403328 5.055420120372162 12.897850471192005 -0.27418501222268904 0.03510198590945567 0.19217402046652063
Ni 9.135554127860795 3.977204849253377 5.803122842300565 0.7058164116227263 -0.909945033347962 1.5293829202744433
Ni 8.437123427666783 7.278837771874146 9.880605084222456 -0.6567852172266881 -0.10035041349530459 0.17588016840250356
Ni 8.28775603340905 2.5551378165793803 9.675608822551165 -0.42118140771130685 0.25148859906643783 -0.3445548201955034
Ni 9.043065719069508 6.660458977151434 1.8767348761152394 1.8538396841684912 0.6793939557651396 1.4959742629070107
P 5.042133573734612 7.629840984818415 3.4566909873055316 0.46245198432531964 -0.42417288623946303 -0.24157776771062914
Ni 3.4714845129114984 6.814991308523488 10.507130435391849 -0.7751127840257038 -0.5453098974628157 0.7157843214687156
P 6.6814143928496 0.6105528524403724 6.6534960136284464 0.3433178624646087 -0.3106324564164456 1.1307228335941042
Ni 7.606880575642957 1.7142694230860243 0.8299527285437033 0.980342352124602 -0.680788522119821 0.9449133218930307
P 3.3529034701115625 3.130247558517917 12.627063628621778 0.09812178127510197 1.5311166151360984 -0.11553303477301392
P 1.7295240047957556 4.2015516078808695 4.7623048573538815 -0.25454615494583904 -0.6486772434075732 0.5783015218974878
P 3.450104075554552 8.702438578360267 7.131225901859205 -0.9549079712118973 0.8984275196266656 -1.0802873026513717
Ni 1.1043448635325457 7.751637408863043 11.44073763087112 -0.23990115133915457 -1.102685467840914 0.3380987801575145
