# total energy = -340897.46156133653 ev
CRYSTAL
PRIMVEC
9.05081069300768 0.00000000000000 0.00000000000000

0.00000000000000 9.05081069300768 0.00000000000000

0.00000000000000 0.00000000000000 13.24677631918800

PRIMCOORD
 96 1
Ni 6.488236370951032 1.9101192362763992 11.571323561754824 -0.4082276757641163 0.11581894144454892 -1.0629097306048727
Ni 4.52877211621318 0.2466146724200265 6.152782563679532 -0.26933719721208454 0.41774949921162247 -1.4280038084043085
Ni 2.690190485571287 1.7321259983705044 4.711467250137184 0.984379498308453 -0.7822961891480205 0.6144347772849353
Ni 3.371454037407685 4.4828845073357835 4.854122503802269 0.3796799460334106 -0.11097215487520888 -0.132468634186088
Ni 5.103245155792299 4.704575057995145 2.587373279092544 0.40144639117622477 -0.28509883092171545 -0.16473495041896144
Ni 7.3706360829614725 6.104762583864952 2.5506532360991536 0.25927724187292117 -1.0022921169228156 -0.2341141123437323
Ni 5.101480247758553 4.796033497384906 11.465057996502454 0.08099334912493147 -0.3377946186535344 -0.14216914930330354
Ni 5.526243832023861 7.870467088928779 12.443875992018004 0.48314550811892926 0.1460908529552129 -0.10105412443054854
Ni 1.7841500567190798 6.521516200900182 0.33940267586187756 0.7317524147621978 0.22023426903784651 0.07517442845030925
Ni 2.694471518904425 1.575193996333979 0.4111403044068747 -0.36331641707372264 0.30628446386039515 0.35408204295964824
Ni 0.43218705897955684 0.11265815265870256 4.87807185327968 0.5010779242276338 0.03660248171438213 -0.6826721122957792
Ni 8.531411571351024 2.199238324635288 1.360311465279663 0.8523559220795837 1.114880210134893 0.003890079083025558
Ni 6.839588831822936 0.6541364628172003 4.76240159091005 -0.62820843403026 0.5651847820098717 -0.5288913468954762
Ni 0.6714497580877273 7.181537500658622 2.4180932563870963 0.48563536442031846 0.8395914233250638 -0.06041938162832176
Ni 7.5675907687171 3.657523002651844 3.691107844912466 0.1120468759966264 0.7194609989893544 0.018108793785568813
Ni 7.5742250127619 3.9130997875591285 12.500081524784992 1.0620733507465063 -0.5543547812739034 0.5258240208240622
Ni 7.907566360879163 8.91869574962791 6.707558324521003 0.1814545771664875 0.2562741933805393 1.5831480298110414
Ni 6.884996747747571 0.6741514250009233 0.3272257155100729 -0.45046704404930155 -0.5223959689791197 0.17802164022553857
Ni 1.8980997600260674 6.368548453831764 9.211741984632145 -0.21948453535601556 0.025665523086904184 -0.7304136413461163
Ni 9.260970247639058 4.84165863275985 1.2749197841207724 -0.5248719413234381 -0.6593653192490387 1.4510779166149526
Ni 6.373046706615209 1.9471370509329184 7.09266849813273 0.12005946188845774 0.15588649888939604 -1.3222697619995873
Ni 3.344609333673887 4.455342891198916 0.4558802705218151 0.45315744639727124 -0.22949795372795959 -0.13526779419777996
Ni 6.09241727843916 5.5257641390711 4.803731211655169 -0.49643605458024814 0.7150268744774009 -0.24246479830127274
Ni 5.4391297816402435 2.6082353971324648 9.33569192838265 -0.35008911975017126 1.0436447117276737 0.6690339526870542
P 0.12962208664665226 5.517935188049611 12.470342371875851 0.7259046977321691 0.00446394930862457 -1.1991604575412123
P 3.889368562613066 6.297617252496031 12.705830883034933 0.07736963632941514 -0.47267340494301174 -0.5109915837969199
P 2.4130999242731597 8.361736028229808 1.5657820585683762 -0.380680362273467 0.7675177452872652 -0.004530283770185746
P 6.209851543761491 7.818967977585113 5.894404552944327 0.3737774645060466 -0.8629090150050815 -0.3192034859149083
P 4.547244820299722 1.2027350455405597 12.642763025800322 1.7033486452630535 -0.9433431491924334 0.6252619498074264
P 3.931219510038921 6.156949556801258 8.22645990030787 -0.0169062888370354 -0.2538198183027758 0.5223396618198874
P 4.747828881037567 1.0819067263071773 3.8431415483445646 -0.21612796017895683 -0.326546813653857 -0.5187946247811065
P 0.1807845078423424 5.618218167608104 3.720277701845595 -0.45013177219706996 -1.5078327049074935 -0.8920534977795218
Ni 1.60776786306963 1.055650325251294 2.6806436907302853 -0.6652814276231575 0.43630540783693894 -0.4658604957862364
Ni 1.6591493138777134 6.5151353795474085 4.928409745645246 1.165774940102231 0.8657580544181026 -0.4366350232622158
Ni 5.845963710444777 5.70553133582117 9.316510545839481 0.3874364500503779 -0.15859798428328814 -0.3465122010321903
Ni 8.659733961620004 2.249235001447663 10.159932942735422 -0.113747660737817 0.6096679520239112 1.0342072204638575
Ni 2.3344031275889456 5.264793071147853 6.946688881796902 -0.5059902739275866 -0.33686465064009724 0.7529853559990451
Ni 0.5601727591005615 9.023205457656964 9.306098493521421 0.48167406577972527 0.25892242963666373 -0.21711552090320668
Ni 1.5460141835093777 1.2108174192540737 11.451334252648252 -0.12404415756781864 -0.10564791444881806 0.17571201825575547
Ni 4.233118342724217 7.0226505235693315 1.6458455276274402 -0.41250033499754113 -1.3617493081514485 -0.6357237685706987
Ni 5.491669736183298 7.861923123883362 8.042713967293004 0.16020955174478216 0.16040624113662053 0.14390104439274573
Ni 5.25075526417175 2.9625655746356623 4.762970886886064 0.2426244638075886 0.10283847002448095 0.2840886444896462
Ni 0.7710837945384272 7.535288426294334 6.9784545111612015 -0.30442889870889506 -0.5673499079819907 0.952179773647457
Ni 5.01087258454916 4.702692489425815 7.021148994119083 0.3514834289945366 -0.5123954061229821 -0.07803812315134948
Ni 8.260955254097695 7.094287688118562 9.26996132271969 -0.14889361251133068 -0.33916964462419 -0.5622220998371221
Ni 4.5822714566617595 0.4067262241604237 10.563879663012957 0.3203391421812483 -0.189065556744526 -0.776492952202682
Ni 8.089044160800404 7.120924223212483 4.84964506788281 -0.03750005382798703 0.5711973067525389 -0.14239489216086443
Ni 7.1857008734561765 6.08781946674099 7.040807354371885 0.4850100721314937 0.015281094528786586 0.2188589859568747
Ni 2.38610135676206 5.278803725692668 2.7350752646530987 -0.16061964269900725 -0.025531825722517318 -0.4318836246201594
Ni 2.241722828791205 5.177226480242761 11.403606614010545 0.7025691083300223 -0.00839233782875329 0.7368038611431762
Ni 1.0252396022082855 3.3554793569996764 3.8770395486460467 -0.030134357491535202 0.6813891318182974 -1.2259336118699984
Ni 3.8844901757915835 2.6819995021326197 2.3349561321061865 -0.2117588845769837 -0.5548227220492574 0.8194257470104661
Ni 1.1499054650637617 3.321366852491016 8.25751051564824 -0.9885799095430459 0.9750155405950498 -0.5463789621572783
Ni 3.6955183048347453 2.7075499399750047 6.953510477617591 -0.6330799031899484 0.1962800722150942 -0.15055043138846327
Ni 4.007934179239082 6.841534756065271 5.992841167175209 0.40011173152520124 0.3034444233084387 -0.39912468502158355
Ni 0.9646715788142934 7.33417941855158 11.225967262792443 -0.6522983850999282 0.2989416503420787 0.7119405222425932
P 0.2166338628724176 5.513319274730583 7.992310004011305 -0.2500924900498596 0.31676967966243513 0.15416283133006997
P 8.460398912721427 1.6403779330469992 8.143561717422296 0.5020570003114515 -0.3863984957041668 -1.7908515133717287
P 1.7892185105595813 3.15969222578945 10.507422517716028 0.4011226892882188 0.7727789936862046 -0.33989958081167915
P 4.167146985503833 6.301355237203401 3.752851568581246 -0.6863104803793147 -1.3559812953194197 0.577718138590192
P 6.994927891223875 3.901152717792232 10.412681349383497 -0.8326905824401724 0.6704604007209357 -0.2698933268258707
P 6.347985012536014 7.786683736783204 10.181326343347553 -0.6737727529236203 -0.5259870287644877 0.5366157121229274
P 2.343046651549087 8.509345695523983 5.828515558098852 0.06367979754714839 0.5981285839257441 0.08520918697849195
P 7.035937113279789 3.933156383470827 1.4753065371912542 -0.23529990512171736 0.5610535334503176 0.8188210235469318
Ni 5.413199209759821 3.1051429913310535 0.32062405438281977 -0.4766917820737855 -0.663372897746535 0.04709695348780276
Ni 1.385760534045238 1.1553902561840186 7.0815803502755905 0.2830440052752158 -0.4921726513182041 -0.39413597355774055
Ni 6.8420325506388915 0.6077764016353854 9.113451088449176 -0.04280269698782306 -0.5049641466559175 0.7338188103729233
Ni 2.606398082615283 1.6753593153568884 9.113755195679607 1.291879322633188 -1.2471747806369617 0.7458531158296381
Ni 6.323194842769705 1.820117977365781 2.4739811057080114 0.4021020224823526 0.4935659321213048 0.32480514837240193
Ni 3.878552844149853 6.86105735416163 10.517078827363227 0.810881714095197 0.5553688243607146 0.0006072945666957284
Ni 8.229784262978612 7.1547471017874 0.2378245253309283 -0.22101151352350323 0.5588446987244569 0.13014795647271135
Ni 7.38035665336272 3.7947061363312726 8.23836895667096 1.1870855286545492 0.49519678285650853 0.020806395222389973
Ni 3.100192198026135 8.435509184040393 12.602320384477293 0.11700499133285011 -0.09661434349164007 -0.20817939475584146
Ni 0.2171090304199646 4.763939323602018 10.187049170782105 -1.1643829448507108 -0.06528905101579724 -0.003489758320813345
Ni 8.750703657246575 2.3948715920682133 5.856373047519708 -1.0283124522459774 -0.08950035815467812 0.0545328409405577
Ni 3.813405110678551 2.8408412251697626 11.523966101263682 -0.8661406345685018 -0.08145203392890488 -0.16852347092711623
Ni 1.0830380776108608 3.4062725051298446 12.716680089496736 -0.19181149492077934 -0.5101006965515344 -0.12408658076997985
Ni 3.064857834109496 8.258095198001984 8.05684771285966 -0.4796477793783159 0.7204511308167656 0.26955368409826486
Ni 5.848688004384047 7.692446698591595 3.5141708365836903 -0.26459659720330564 1.054576785259145 0.4323068282005071
Ni 3.2593506994283095 8.31435503563155 3.7638066695250725 -0.028097529567164513 0.45261751473340117 -0.044214746844001264
Ni 3.564933211958398 4.142963220036298 9.471365386882443 -0.22142186158804447 0.836814889021191 -0.9348734211585253
Ni 7.285929548152093 6.08546625602933 11.397340737950227 0.13403135068751754 0.29578253588780673 -0.3765326586536805
Ni 0.6522167859251105 9.100318362516022 0.29408888836570884 0.28065416488680056 -0.567478720250371 0.33292494926605887
Ni 4.673693692809803 0.22277664791089674 1.5604176432268313 -0.40981301797336517 1.188025266859999 -0.12176101796059677
Ni 5.976322533060388 5.579227276277961 0.30038282193836013 0.07186490446110204 0.8127334225919551 0.796767386181002
Ni 7.935931600765112 8.777159176131908 11.34557191245576 0.32362578335232006 -0.1996183925597078 0.16564486382774052
Ni 0.03302097677086681 4.848120911406489 5.780204142188443 -0.5274476724704141 -0.1047732251533486 0.6416784434922368
Ni 8.142416789902969 8.916976095646312 2.3287699031776454 -0.4489246392628462 0.044720482835826206 0.7083959994244444
P 8.533819086925263 1.7061773248692231 3.5753443591954137 0.07253030595924283 -1.3522598806037744 0.3123242422965718
P 1.9223740335978974 3.2906665035142644 1.658562821361884 -0.8204261632505225 -0.3780575799386392 0.3288633776021756
P 4.582796403666668 1.1127247358195118 8.115505110171993 -0.033289101070432994 -1.0745182613780784 0.7885496262569
P 8.586947344146232 1.561373408808183 12.436099535697005 -0.3023475906998341 0.5056740282387484 -0.16539598104172806
P 6.4397692811012375 7.736542247003959 1.3254061097773815 -0.2573463433987955 0.2924287889242254 0.008262240008792221
P 1.764573153760143 3.3512707301499747 5.955114674062062 0.5388412590193365 -0.7926358805111317 0.6458811687196747
P 6.9332466181470584 3.9202318261775484 5.941536648255775 -0.11709677971570799 -0.3782298438504454 0.6919303976692536
P 2.5321542846623664 8.636183752882532 10.361415748948913 -0.803655628660403 -0.27445729204746927 -1.0344877278187539
