# total energy = -340886.70535381977 ev
CRYSTAL
PRIMVEC
9.09520269724127 0.00000000000000 0.00000000000000

0.00000000000000 9.09520269724127 0.00000000000000

0.00000000000000 0.00000000000000 13.31174850459328

PRIMCOORD
 96 1
Ni 6.715088109309454 2.2804583323604524 11.2916376082185 0.24737123446395462 0.4472529079873781 -0.3614024878804615
Ni 4.980260074703718 0.4962951904201023 5.663509882640407 -1.4494200692965553 -0.5422140321463113 1.0312563653656497
Ni 2.753981864090276 1.8509373906947597 4.414309275353035 0.63907751553428 -1.2216889776610314 2.1509052005337796
Ni 3.520625584449045 4.115206262469401 4.733138873104403 0.06506433659950084 1.5795382009725958 -0.2644472161096349
Ni 4.046009961268923 2.575552179948454 2.514110448464528 -0.900617842409765 0.8507782931798188 -0.5155352373035443
Ni 5.320666221526839 4.710105272579927 2.7247289640441275 -1.3469929757778802 -0.4731680851912431 0.3041658748554955
Ni 5.020242585229126 4.722292844032166 11.227568272710279 0.3788991020033281 0.4890631591549448 0.4113037435862788
Ni 5.700272691453806 8.010163099351159 12.431961364505518 -0.2864525167361325 -0.09543703535408725 0.604564569359075
Ni 2.1514155982079304 6.663263645029704 0.16008829862645876 -1.4651716757038573 0.3795585899641979 -0.28488800046249
Ni 3.314428246841784 1.5626376594312528 0.38709727876880595 -0.24220151733755707 1.0474877396228477 -0.8475209625847855
Ni 7.776489154760902 8.732067518237116 7.1736482137607505 -0.07073387618045238 -0.05221242033749718 1.006593315401331
Ni 8.806939225845205 2.2778389140184783 1.3088878741943308 -0.007505821458741912 0.9975756852837527 0.20409031228813238
Ni 7.425032336807577 0.36381356017348204 4.9673721726531035 0.34730281525428575 1.4134099697505336 -1.8100676812888632
Ni 1.2598310800585502 7.605535727136796 2.411968594971924 -0.9977973143762556 -0.38167409364530397 -0.6425251077632482
Ni 7.684900464817576 3.7128708813042643 3.621820627353457 0.7745705383689886 1.0063125509361184 0.4918191246335271
Ni 7.933408684809777 4.1325599089849785 12.748780922487525 0.22140283542465095 -0.4657383683860753 -0.8584370952766572
Ni 8.302364672519898 7.495511061571314 9.406560465133346 -0.48405824974118566 -0.7433113232443909 -0.364250755962534
Ni 6.889115715404347 0.8127745878257545 0.09425631285895328 0.6571893946436423 0.19896070437105087 0.3758924539665204
Ni 1.781295424568043 6.914500425794796 8.872759387849362 0.8714785018416475 -1.162475700525669 -0.17915421116808503
Ni -0.061644554501377714 5.076178081073361 1.2994088540693127 1.8437164796915602 -1.5097150095318708 1.359831008082813
Ni 6.773888593965222 2.0060014994180713 6.935008288563833 -1.528776397038696 -0.5685375005321887 -0.35019402075915174
Ni 3.4226884431074636 4.5711214820115105 0.5921668112566062 1.6489952673231536 -0.15532548417960346 -0.9798407298978351
Ni 6.319001132314233 5.897856872221312 4.939950136885564 -2.014192446359357 -0.20959658681834226 -2.790261680761059
Ni 5.377784093705993 2.782568085787582 9.199469978633092 -0.4017582659896887 -0.0017388370679776507 -0.19264787477914563
P 0.24755868084323582 6.013093088863013 11.932145421168132 -0.3558915853645613 -2.2481713186768055 1.7819094736870924
P 4.075460227210977 6.2813288032432055 12.576953445895837 0.2853749674012375 -0.33747605897185107 -0.8402072025321916
P 2.434312779141116 8.848386063985398 1.0720979132014323 1.9850816450363298 -1.9618221602877566 0.8174223434271922
P 6.311925064709874 7.8579912650471115 5.807409630201312 0.9434269671554913 -0.996346183752026 0.32496944186440807
P 4.9595139176271825 1.3734574458442461 12.18321848828685 0.015965522190320894 -1.039258923955152 1.6871753779373009
P 3.9330839260816015 6.3864693450252155 8.087046665769126 -0.950022360984822 -0.19752191504199532 0.5342078740123832
P 5.1946067138193435 1.1623396036432074 3.724813791807202 -0.8872537623980332 -1.6015977518757967 -2.021680527206286
P 0.3869235603995987 5.72741277594148 3.4763228526998957 -0.7976446465796327 -0.1852343559238939 -0.6586428392607173
Ni 0.8432153213283676 8.97671027713439 4.395858747406756 0.18395548921147029 0.8456692540880274 0.12334198929447146
Ni 2.1452945268740815 6.679580438451584 4.480615121174766 -0.440242538107816 0.8137963166388308 1.4244765119773402
Ni 5.806841180040294 5.493293166424983 8.93189002835865 -0.40464227240570316 0.6322319533673564 0.4301998091598333
Ni 8.92027454514846 2.1612566073954853 10.172824915544684 0.3667215861005297 1.195422844875651 -0.5674496667846486
Ni 2.2391206366511756 5.579351973201918 6.624884618718498 -0.21053452525157934 -0.7475217617813127 0.9382526220434034
Ni 0.873832501760961 0.016401378805838918 9.03018461116148 -0.4633176747597246 1.2041522543288488 -0.05878878800343423
Ni 1.469066215326295 1.2271338267967575 11.621781637974783 1.246107258604396 0.2625212027315156 -2.5737316000476773
Ni 4.204184629273328 7.126136694542684 1.3595417859025096 0.374152074236646 -0.1096593496010563 0.4739710407085127
Ni 5.5999889878475395 7.8876871014587255 8.357408838511656 0.10474674279078736 0.20051930710742238 -0.9200337850425316
Ni 5.535776857658872 2.904143658624963 4.724020023001406 -0.07747145201460205 0.7389103659632177 0.5221560850541717
Ni 0.7626136360972112 7.97608337529777 6.567391114672944 0.45838321357258477 -1.7141781317783895 0.2927751165200506
Ni 4.889135240091785 4.8903721876421615 6.784132520626907 0.18602317037377641 -0.8183957630840552 -0.44943088947530335
Ni 1.0148245130582236 7.781227755303153 11.467472431065303 1.0608582473924826 1.686324085680599 -0.9438529989493164
Ni 4.688540547271523 0.3751807443533398 10.368387232779478 0.6925106956527557 0.6975721693360631 -2.501102306616725
Ni 8.252168249501308 7.1969701322068955 4.541210089298838 0.5419420094318472 0.6919409391922148 -0.21654653577361416
Ni 7.2380986382569175 6.134859660954496 7.0155308455325756 0.27322161986815524 1.1735129321764368 0.8883894186643733
Ni 2.3129282055578373 5.318710752972935 2.5532334623464754 0.7464735230224563 -0.8572716142136462 -0.7404419721163957
Ni 2.2199024736074575 5.352453954531002 11.147857007811343 2.084132108773288 1.5113340331925327 0.8134021665242056
Ni 1.1827310478192683 3.6662033968852774 4.056435791982134 -0.5572686124865887 -0.6225643483706051 -0.6316742810916735
Ni 1.5799094491236436 1.2878806848038544 2.5117138625856734 -0.10762303589731789 0.5433219204985094 -1.0925548071648152
Ni 0.8101970074156315 3.3961213563820962 8.098521173339384 1.2755846992382225 1.103835522284957 -0.8632684552270294
Ni 4.009574579748271 2.707996519864511 7.174553186417093 -0.5262238273656421 -0.5731179208140194 -0.9727439709520537
Ni 4.1657210175781625 7.062042801987508 5.941672101112371 1.5391613398174462 -0.21374403332781253 -0.1109137908334477
Ni 0.7526316512697236 0.2718456002827254 0.08257898227124374 -2.26483926625079 -1.1808580596875986 1.764341125786026
P 0.15202994914385837 5.903668706667567 7.648437797689195 0.6987440781569773 0.36395713598151513 1.3753283323874634
P 8.714450110846826 1.6893884025345476 7.87638813129819 -0.10632540013181688 -1.2946131766245834 0.17075133181637045
P 1.7682347136684784 3.4406514681956533 10.212866544886836 -0.3862575992509283 -0.8864418080196991 -0.48124289177957763
P 4.08591971017372 6.205975049898574 3.7739742712523525 0.7264338307627618 -0.1535066858033098 -0.9085484101107514
P 6.903931800401137 4.1555707715030135 10.138759743815415 1.045994957127405 -0.5136580748854895 1.1064613899435782
P 6.3165454276186335 7.897364396999906 10.38884780049512 2.217748226300258 0.14866606988155687 -0.3502567556762871
P 2.7486975513934464 8.54379682490774 5.765211528328319 -2.4213667411582946 1.9162300734802549 -1.5286465563290514
P 7.016721407549814 4.105083302001981 1.5520299246665161 0.5653506181637747 0.38436141066948 -1.3963486433928727
Ni 5.642781915969024 2.993813260824689 0.10177713586929443 -0.8183625958532744 1.2104635412588574 0.3945414365262754
Ni 1.616890542798873 1.1499337473291364 6.885980599076296 -0.6107426731453287 1.5158851428983249 -0.7940132204746325
Ni 7.213505210490606 0.8058458625031304 9.239578002954053 -1.4172743378019461 -0.6807733526111696 0.14617492802858698
Ni 2.7291064850441 1.8543389964582955 9.118986531035427 0.10260012876142975 -0.5204411592455941 0.4399342628387778
Ni 6.4747564764333445 2.1479139452160556 2.273274031845434 1.4035140507930604 0.2987866128214532 0.6564872263702952
Ni 4.294008849916851 7.016057457761744 10.394745129845592 -0.3769440351594863 -0.7943911726393416 -0.16199749688314036
Ni 8.353215950123984 6.949498765308392 0.366804062780569 -0.0069098397459558415 2.090300956588161 -1.1195657885360204
Ni 7.465797034754547 3.9283271351341975 8.0290738445478 0.9489334987960174 0.26133592417416285 0.33466712876814625
Ni 3.349535728786296 8.7366787859433 12.106315821943472 -0.597586338269029 -0.619006712926334 2.24131392943534
Ni 0.278458722075952 5.076187176275938 9.978872449165891 -1.9694138565920856 -0.40617259300730046 -1.6087934982932874
Ni -0.5744411709556582 2.5527141262793687 5.6597162736458335 1.9696635107090465 0.383877529054526 -0.22406341297594962
Ni 3.739701728904345 2.887890531621118 11.220232991832496 -0.38923159427758774 -0.7556101952164019 -0.04062137306578811
Ni 1.6808843881257085 3.4147483312583553 12.359878246007323 -1.2632174359221213 0.35380616359044226 1.9384924844228806
Ni 3.315437814327753 8.928778559557298 7.821304855935353 0.7041588214146453 -0.8931089356272296 0.7475379597312287
Ni 5.589984265013611 7.951471757126306 3.504277867338406 0.6638274687854503 -0.12980985640700224 0.4148130422911179
Ni 3.286988020669092 8.71104850508329 3.1481352010177743 -0.06335918098293605 0.3106167726871618 0.9349461833779897
Ni 3.197845940218791 4.409263256963705 8.92524780191718 0.8385100173354268 0.36007399887702507 -0.45263602667616243
Ni 7.28050047266762 6.059887906118068 11.23413046136908 -0.33319620064957456 0.09656394986967885 -0.2608528138901572
Ni 8.19950702658454 -0.2880987272865707 2.1365485800767128 -0.20576949976276823 0.6305820764687592 0.6785048682919669
Ni 5.131849816042884 0.5109411951287156 1.602668374530315 -1.1719013647149432 -1.8146535008873328 -0.46036527699962
Ni 6.194069429726199 5.730023099080878 0.03441624654871317 -1.2117791747464872 -0.26500283150278875 1.238003398550339
Ni 8.178706298292544 -0.0235665793954468 11.560628224412525 -0.7519438021084083 -0.08856601926586682 -1.0305760514691735
Ni -0.05230923857706503 5.104800683580972 5.573762061698526 -0.35407818630490634 -0.2927643178867732 0.6360965785290852
Ni 7.193714049684581 6.161226653223185 2.466533443787911 0.8132211608616511 0.2629120104120311 0.8599836138281706
P 8.764100821710839 1.7167012958711716 3.574337303263375 -0.23014252929049395 -0.5726031859611299 -0.033912336476728686
P 2.012695568514227 3.1666857761923928 1.2670772279510871 -0.9080231337349006 0.09585432539716396 1.3736676568555892
P 5.236471931278045 0.9203981199110935 7.849298979944943 -0.5684847929173822 0.7685107053281539 1.9289043265138133
P -0.4841112570488929 2.019917159359808 12.45341967594378 0.12136943894913291 -0.5734110265744061 -0.4552472390467644
P 6.394363980861442 7.746092987750911 1.3233210511626587 0.14926153737371067 0.958773881925207 -0.8595416411947454
P 2.02035372908347 3.3645519082397644 6.124655753184147 0.03594685040825422 -0.5647626068707886 -0.14888795608437586
P 6.852325620983219 4.116461400424931 5.849115681614929 1.1598421195575639 -0.578863565048545 1.196042994958153
P 2.651942786386784 8.498693715331875 10.122346541246227 -0.8230468887028212 1.263172955837431 -0.6497100555474616
