# total energy = -340867.2034450804 ev
CRYSTAL
PRIMVEC
9.33166315754307 0.00000000000000 0.00000000000000
0.00000000000000 9.33166315754307 0.00000000000000
0.00000000000000 0.00000000000000 13.65783229003379
PRIMCOORD
 96 1
Ni 3.775292355989152 4.259512364374088 10.247103197061138 -1.191590101393122 -0.9862587176090369 1.457749157987541
Ni 2.6832171322219374 4.337683707797496 12.758655051305636 -1.0673376844692393 -1.7491255943878523 -2.074530581127782
Ni 0.4517364884545462 1.27531176423063 5.721511518154678 -1.2135833178347615 0.7981426692619737 1.0230573744946252
Ni 5.857186437135411 5.686482320477372 0.6666624243019355 -0.06518543555839741 0.9030891867683932 0.1975828501869178
Ni 6.153849344951282 6.629362911481851 3.0629598383544603 0.634836737980055 -0.8005150261488923 1.0245722684772547
Ni 9.334369477497944 5.195608836162999 4.105804006075492 0.8628581071624881 0.9275012970641704 0.5037212753877518
Ni 7.1906064687048925 1.5155181091108891 6.710475595175887 0.1315497219162444 -0.37486632669485115 -2.799572930859656
Ni 5.45166034531841 1.0354133642391101 1.038024363629091 -0.8929346148328944 0.32479717795260193 -0.25482434830789014
Ni 3.6505186860698036 1.709803338915753 12.459917714739255 0.04449371153700079 1.9115462948513398 -1.0394283596534808
Ni 7.188730804382569 8.969800055883324 1.856782634812222 1.9309432113207132 0.34222925738612026 -1.02982914600082
Ni 1.8944116338835542 4.115814081292191 2.7398435314295204 -0.6178674571155681 -0.9647159584412547 1.3441616769766722
Ni 2.384669228420448 3.9072887332989406 7.21817780107672 -0.2578381954335495 0.18261003092716938 -0.10145855895781881
Ni 3.9119545649465115 5.419680735205956 6.135494896416066 0.7410505522346721 0.8157629534468983 0.07934450066759885
Ni 8.53757607537892 7.806104316325891 3.227728083990459 1.3661384383580795 -0.9715219256194945 0.08216757193869074
Ni 5.678867683228535 1.830359097025697 3.953491664605849 2.813882919724425 1.2912990246496856 -0.10645601217241021
Ni 7.721998035046774 8.5598974139809 5.385501652054838 0.07711586844739622 1.322677281850651 -1.4134727046676687
Ni 2.0277051123913674 0.18574675788980854 10.909739941817548 0.49603316271487474 0.8737037916277405 1.2113845104112297
Ni 8.843048073345406 7.695449452972093 7.103697888938243 2.293292893605792 -0.3011692541210168 1.4121994943822
Ni 4.2402144846797345 2.7675847000733196 8.460029953396287 -0.28002990103924036 -0.304932577818191 -0.6242710466490669
Ni 2.189506822265841 1.1920639959746648 8.512462703119034 0.2123291552581569 1.130550569682298 1.1459553342731423
Ni 7.17604907396447 4.312870815095712 2.1722917698189623 -0.6614404566105124 1.1587512004862301 0.6018541124064474
Ni 6.001547268311263 5.0991847593342925 10.2268889480312 -0.1393792452629922 0.7649278730729019 -1.3129178884710422
Ni 8.115187667987596 -0.04490489694255452 12.94509888444359 -0.09385117892420611 1.3632744865467232 -0.39684000275246495
Ni 0.47372468667689016 7.636659974212696 11.806964436984213 -0.18568892696280925 1.5298446904022103 1.3936757245463998
P 7.909219195737214 2.0925135139761313 0.43897357256578 -0.39073183297219805 -1.1219219474730227 1.104419419812885
P 2.4328486060132684 7.860423928366915 0.5494231393270849 -1.4676641031084081 1.0727593697054427 0.6075923004418052
P 7.35435849620805 6.955513875310371 10.454907207481673 -1.3449085824450255 0.13173586978512153 0.6020723990648404
P 3.6139572292794355 6.8507752864856934 10.838036374224004 -0.15533833969540986 0.2813321647904316 0.9741565350288641
P 1.2747518644329212 9.150013137439114 7.272699910211248 -0.7877476991808949 -1.0931908980869172 -0.916801394148163
P 8.74178086326652 2.8294069694036375 7.482197617519853 1.3371734185842972 -0.934956724900951 0.5312189665873883
P 8.01442436772665 6.3844627399641345 1.4208791794705438 -0.09874655934329445 -0.6778122131003165 1.6580892592046217
P 9.23239306100863 0.23353327245790304 10.964029692536027 -0.9488743634233078 0.16812186461332337 -0.29349631095679135
Ni 6.097896691833609 1.0576787128613199 12.278227430883843 -0.5702969064254566 1.5842523186188135 -0.7046018224893349
Ni 9.23644300287872 7.422432979946113 9.53656795777709 0.03343385417841339 0.7469615184024684 -0.7609724879695797
Ni 1.4295361635094475 5.858716829915814 10.927877895764317 1.599239021835633 -1.463537482534544 -0.44530838266649764
Ni 5.34216260821321 2.9558790020427015 6.050132573257422 -1.2053231347084983 0.2200406649698017 0.331555579722358
Ni 1.5102177243592483 6.206171981047145 1.9307668609150992 0.11029801162631973 1.3545756732211445 1.1477450791837138
Ni 0.2594482345948429 1.0036950406989213 1.2460243389788255 -0.8424782579545556 -0.07849295130058094 1.6419000510392694
Ni 0.7955690878947024 5.538230185707445 13.685557968416171 -0.7710933784536655 0.4073463016004275 -2.163424930267345
Ni 3.6580586700122786 0.855623007030591 4.106281787236203 -0.5954577219618002 0.0072497395838778365 0.14512231839435652
Ni 7.360648037268976 6.018157628976616 8.420054041006226 -0.44644069649872786 1.4318671480144567 -0.7661103234167773
Ni 0.5618613133331801 2.551062116636131 13.032057855192035 -0.3165832746832419 0.07144478620454792 -0.9636306957968759
Ni 6.930365042729962 8.56251027970354 7.957858624330486 -1.3353548773183195 0.6185277164073864 -0.009138214855842328
Ni 8.679883940629841 2.38414665527592 10.825525413244206 -0.49592980436779105 -1.0385217886788114 -0.08589541441223918
Ni 2.2764126025335014 2.8322997850251315 0.9041812501531937 -0.17773187689926165 -1.381896986743917 0.08280469130205739
Ni 4.323266288006501 2.81939409468795 2.4143364523683646 -0.7892937035117762 1.1688024140746454 0.7094419241904556
Ni 7.116158458936247 4.3570749041248025 4.772360982582193 -1.2549706225322967 1.320737641625777 -0.23703899930001113
Ni 8.657665250324106 0.7223201968594825 8.346506536745563 2.7075019837643244 -0.297442697199049 0.7119438646767029
Ni 1.8997960036048511 0.5081426604083636 13.357046093773981 0.43686719387767986 -1.3531299419135534 0.40263269817484204
Ni 5.908725213514482 7.18327178135491 6.355152918720422 -1.4218424167886028 -0.7513123391719964 -0.09273300615936288
Ni -0.09607413945513811 3.7936850643438773 1.4225318170401138 0.4960002525944103 -0.4286111245164747 -0.5271339978847374
Ni 5.737050603873748 3.3381692522547985 0.5779080415355069 0.985573261506238 -1.4512902897360747 0.4172041682311138
Ni 1.9930566465765038 6.8474532143526226 6.999980184078053 -1.9949690793533708 -0.5764048190954073 -0.012715904904771648
Ni 7.022944474281069 2.396156505936768 8.858633817380952 -1.125935696618106 0.9909661503870353 2.01553841886429
Ni -0.038717071011545624 4.929348487362702 7.050391695531072 1.194335268238427 0.6589935377319167 -0.7811379071738611
Ni 5.2563579642143745 7.7063208407109345 9.55074462065507 0.6059470515288984 -0.16706796942751226 0.35901341882299465
P 7.783083102976775 6.422731891137514 5.786195808617616 1.1451891455310792 -2.316492214540391 -1.23306688048067
P 3.857634952905488 4.28613559975513 0.8561959711569128 0.4588313568535969 1.3242178868648937 0.41850540354104054
P 5.487325962432444 9.250599136097453 2.9949852034136546 -0.7999727804921771 0.6441235625986197 3.4824641011447763
P 6.078570817149368 8.51656116963826 13.451994834635725 0.7172814748395324 0.07157745512767028 -2.1636141634600157
P 1.2614169175841627 3.384995538669823 5.173723286236902 -2.390820492940321 0.21135290738781665 0.22668953774488698
P 2.562045484334514 2.244899575585806 10.395153767903887 1.4513658801690164 0.63064378294463 0.49242719053117123
P 0.05850113036357693 4.4310563307286905 12.034790464170808 0.7477009676716543 -0.2227470081573712 -0.6412876358117214
P 8.366769310424633 0.8444166125794546 3.3747960306882328 0.8739753001215722 -0.3144163489389101 0.8137181551027276
Ni 7.8646791668295 6.6900093912369805 12.990797905932562 -1.1120162583235365 -0.6606799242954041 -1.6062743314158594
Ni 5.5570054922572725 6.7709055803425695 12.062406588526452 0.39886808892608727 0.473359889487075 -0.5040403492900675
Ni 1.4021477317382047 1.6330037499967316 3.597090247873466 -0.381138275746492 0.12234285860599575 -0.5450725846410289
Ni 3.23504504118018 3.4791800163076947 4.736345428094591 1.1014091722316517 -1.3780274764861815 -0.23577890164066492
Ni 3.751039363085077 5.6268809870112975 2.854992523826259 0.4348943864220252 -0.6101132670914461 -0.8017944070819482
Ni 2.9866081692736053 1.619342194932643 6.351738463120729 0.20522596855447237 -0.3436811593412984 -0.34350889542949226
Ni 5.554681908096781 0.012568817292227237 5.4070540616013 -1.1588962107045266 0.0492952466907022 0.7402370551944412
Ni 0.050186618367605094 7.940825539317862 0.5226813918221955 2.3827999366286896 -0.45368966475165734 2.3065438450784277
Ni 2.424590083997067 8.166689117713487 9.197252816538112 0.4640612377939686 -0.9558973317083603 -1.1076070735122474
Ni 4.505998918651979 0.7345166807862334 9.712644312994142 -0.3489562916973087 -0.23845773402440867 1.0311571207836243
Ni 7.149631135175922 4.145124835702234 7.05865488337892 -1.6237748021934681 0.02860763643436363 0.170906369336996
Ni 5.210427517475685 4.428275495066738 12.317247780952481 -1.0619113712473454 -0.33160931577842895 0.09769266415748336
Ni 3.587753918746676 6.027088030750067 8.839704538386755 -0.41788448212759 0.08812173263959662 -1.8363749517248242
Ni 4.104056185540312 8.770653029501691 12.276206192614117 -0.32070269616825414 -0.9296947051710635 0.05009820220797179
Ni 1.8126476000915168 8.432902808197309 2.718072760961953 -0.05588318432086505 1.5372780067518041 -1.3287931649404017
Ni 0.9921051148863544 3.460656664666837 9.346272947197228 0.6782503290789996 -0.3459725264786364 -0.7368298292851052
Ni 3.4480215925652145 6.291650016830649 13.381575303911593 1.2121152179296675 0.6920126729704146 -0.17346513120310772
Ni 8.43170835529553 4.687229151506938 10.086937327762303 0.0020167733197126556 0.7091110232135981 0.24691023566713607
Ni 5.1055676170281705 7.966356970093371 1.5030174129607163 -3.1676335474865835 -2.4144689855971966 -1.2327485779093028
Ni 7.106210905863625 0.08667808768325926 10.198098900433026 0.37436007648239394 -0.4263760645383689 0.3271831616862752
Ni 7.5421302250329045 3.5401531042781547 12.720659317866804 -0.7291082922711314 1.3996221719378217 -1.2330578816196054
Ni 1.988353488275752 8.864482903934347 5.099001858733708 -0.20955159251301975 -1.0434583067484804 1.396602925495524
Ni 3.793115832882874 7.69190342091994 3.888726188672243 1.1351315041847614 0.6153295211850629 0.7731291779367717
Ni 8.54020760442815 3.0879780276487367 3.5922835081101376 1.058313626593758 -2.5499771779405567 0.3622563512403245
P 6.157945945137849 3.0692960377318617 10.887641629968321 0.41560185674100036 -1.3044566450775663 0.14818784469355767
P 5.132760083870215 4.667949935139174 7.902380952874535 0.11503835452478252 0.23293937530934072 0.07919357691203135
P 5.487605912331298 1.0091447320632845 7.813878525017075 -0.7673269694326978 -0.3128124947869 -0.21721039460985817
P 4.95576642615125 4.605362469418655 4.31214667802401 1.9639942282384113 0.2503660554262204 -0.2306436372966286
P 1.7539047796485958 6.697614696822521 4.066415055306696 -0.09117260365077846 0.1600596564304792 0.39230920476164693
P 3.768097643588597 7.8198778513495215 6.7647112222472545 1.798774110652915 -0.08830556651562856 -0.37513937785057977
P 2.9900888796826934 1.1718329499507962 2.109042689170817 -1.0772348889782932 -0.847263852268657 -1.1795282851325815
P 1.0131666789434908 5.634169016044804 8.810080240089997 0.6723311353810872 0.24050998856774713 -0.8365125272894238
