# total energy = -381170.52899496956 ev
CRYSTAL
PRIMVEC
9.18624109780152 0.00000000000000 0.00000000000000
0.00000000000000 9.18624109780152 0.00000000000000
0.00000000000000 0.00000000000000 13.44499240610918
PRIMCOORD
 96 1
Ni 2.1380700723997963 3.5352238636470728 9.007848954567958 0.10478608066915503 2.124249031398832 -0.23210582366445184
Ni 1.01994835653542 3.404090271018566 6.970086205319717 0.36489687418696515 0.8206994715165671 -0.6874037134434936
Ni 7.365041295210333 9.088701656180554 7.294150153516922 -0.5527095323609965 0.011680778772037947 0.41367712891446173
Ni 8.078600950173874 6.145503476885802 11.411625540916896 -0.32328125552870773 0.7453764333035356 -0.06480439806989484
Ni 2.1546604239435503 7.3188436883922074 3.909131437780741 1.0483346610041753 -1.985212514187239 0.7454486813023677
Ni 8.211296203800408 1.4701844085079858 11.749915302182016 -0.019998297498797817 0.1014744997974188 -0.17670549251727632
Ni 0.31083208642332744 7.686559735980754 0.6167927091569247 -1.6902445037809275 1.1836191673725036 -0.7907412345915801
Ni 3.6462763330891756 7.209114037677845 1.4096406488626831 -1.934801922945171 -0.8610470220956784 0.2374938274492426
Ni 5.285827469953854 8.25710798848961 7.851042139910085 -0.3903356259750439 -0.20699283064690804 -0.298894342043911
Ni 9.032711516280676 8.21720295686942 3.02090183743603 1.107808905110408 0.30826961261122393 0.2852821505771151
Ni 6.095098571614165 2.13045467847412 8.021457018383689 -1.1277051298137029 -1.0967055961083951 1.5769809817683809
Ni 6.593341919914337 3.4071125443618073 10.402121940585932 1.3917507396095452 -0.8164594652932906 -0.023863436881158905
Ni 0.19344111057746474 4.259586538220499 10.360401707711562 -2.623454164083785 -0.3911180126670232 -0.7634515456376916
Ni 8.789606830093579 5.305541143493663 6.322090590798081 -0.11980389423422591 -0.2426650872375369 -0.1104543346985259
Ni 1.3590400766542343 8.792408633648865 5.448045465436045 -0.44529244182689764 1.0142451755196338 0.3730300448170608
Ni 6.981387119200739 6.964365014322237 2.5015080874778635 0.48962057432031164 -0.3198825142598039 -1.5427148614966593
Ni 0.2523120557066451 2.8450707511716193 13.384597731229315 1.7723177162335995 -1.0519720006464461 -0.8359738811771344
Ni 3.0144007345636523 4.8580517776293926 6.983624887548501 -0.45891723169918386 -0.6757887549123844 1.8135319856883798
Ni 1.058126374816616 3.989382440597038 3.0407064547633715 -0.46390002962575594 -1.5330416000729534 -1.3343642312702761
Ni 0.9380346440682819 2.1040993525721103 10.360899601982696 0.41726433204508784 -1.7753081663204908 0.9724045853347641
Ni 5.895003866560986 3.467796853496933 13.036398771619648 -1.0814558690381761 -0.8073639307499256 -2.5623099884742966
Ni 6.376169992535667 5.085245894118936 0.7674764602325062 2.426680182951408 2.6769061132553382 -0.15783488086501848
Ni 4.322971602258096 3.1413821461856384 1.3905617445873661 0.48171726031283485 -1.330910982614353 1.7570705602665417
Ni 1.9106830448457908 4.719762103133452 4.850751471775672 0.5073552725959134 0.538056301224196 2.160499529090434
P 3.498699368775553 8.412162553111436 5.552378199466046 0.024806260410402438 -1.542434097031447 0.38548832518507165
Ni 0.25423932910303465 8.528662463564308 11.71440680558333 0.3639234545301023 -0.7660470742790096 -1.2031577516260632
P 0.2970214914560632 1.1105063219387 1.3116464212364414 -0.2926648161944314 -0.9124071217352094 0.9533974481046419
Ni 7.567083483390465 0.1680282930189708 0.8533402564005379 0.7469432635700232 -1.1821397546134997 1.0507658961534871
P 8.613047274904794 5.052864394012772 2.2616498189184315 -2.2160986065119768 -0.6036775387684313 -1.075798670752399
P 2.873887989705814 8.04700946680789 12.836203017913656 1.6828106732107018 2.6533208697362305 -0.34700071063283466
P 4.1473857886327865 4.260927729430569 11.695584197436514 0.980408686586163 -0.918902756761882 0.752533356063291
Ni 4.04788961057609 3.4893385890285518 5.655716982202009 1.6728396780409187 -0.9827813005833979 -0.60996954242473
Ni 7.105447306132296 0.15683669540781073 3.3793315138310107 0.6213767558204072 1.1040342685593243 1.0812206130989186
Ni 5.783712554848596 4.551010852934807 2.715175463852137 -0.5893503235124818 -0.3172563894908665 2.9180228821691485
Ni 3.273379245483643 2.4219616693589123 10.606163054843538 2.1314182954537615 -1.7486036604461113 -0.07038137793704008
Ni 2.038987275195518 8.662055871519373 2.1394746486739047 -1.4389006578224703 0.09117183231983007 -2.261104996019338
Ni 1.897445671327214 4.286603273486379 0.8070250656955007 0.9132512149030594 -1.2082691047106997 -0.16760944375327907
Ni 1.8320947516803352 6.355445832467721 12.81709747353896 -2.27124542688745 -1.4485698054811182 1.5119750092106412
Ni 4.371732170361221 6.197166897197026 5.809084034321848 0.3664698751010398 0.937953859856062 -0.852246650195229
Ni 3.378754617885857 6.248554730273304 11.378766356270157 1.452292505748344 -0.2768373622438716 -1.4721735609429871
Ni 6.9214928268057925 7.882079692933828 9.695493304581285 1.3412617297210578 -1.4455937535719297 -1.1890398241674425
Ni 5.165744925446685 7.024736991257757 13.215433100178249 0.4604002440026136 1.7584612699664812 -1.3002876013015414
Ni 4.591246589236934 0.49382568492398654 11.603929394838149 -1.2511227095411162 0.13472657698232923 0.4594468789504087
Ni 1.5931330602585945 0.6818202731148003 13.100450756765815 0.2517606217809019 -0.37164113488933415 -0.2512086059321738
Ni 4.6836693615966825 4.285271268517473 9.603758581684785 -0.949498884381184 0.578923471752203 -1.7256146557501055
Ni 4.136325554270285 0.5421094871106552 0.6212985604482931 -0.5841538669132069 -0.2963072980430252 -0.3953899005694997
Ni 8.998354974324066 6.032062584740833 4.10017126491771 1.1726762952077545 -0.06772645681269626 -0.2693245988065942
Ni 0.8446509908826882 1.735372818455428 3.418604532059059 -1.623864790804113 -1.4365725239099258 1.3270008489266694
Ni 2.4365310478463944 8.48323650100403 10.53891150189965 0.2764928344202593 0.5239214044847107 0.35520715770302697
Ni 5.196812793066273 8.624759732390002 2.2959879883927123 0.404142192840833 1.2891374982219928 0.7181965304546342
Ni 6.191618407533445 1.3054199869748933 13.007747804050538 -0.8387704700856652 -0.06134060789101049 -0.12845642770290136
Ni 3.2265202293016455 2.6894007083917475 3.7175808556350063 -0.01733643439591853 1.9546107301409819 -1.0729414038092617
Ni 4.0390157016108255 5.147648030351893 0.3387582595645296 -0.8658035629440572 -0.5019459286548839 -0.9294833604912057
Ni 6.3666897916535214 0.8691213000976666 10.07519372239352 -1.516843393046536 -0.13474328915287762 1.303623864763626
Ni 3.230690782790496 5.03652207098047 2.843992286458864 1.2623244917942067 0.6959055802669176 -0.04170329327605721
Ni 9.134623675763734 5.105547487093297 13.205039786924315 -1.1957959119443535 0.6304465793321593 1.0861327056885552
P 0.6279916557610167 9.011867935077587 9.373014901609137 1.144768513053893 1.8406306416773848 1.30867094026923
Ni 7.012528476749646 2.0726456628235983 5.990658358562535 -0.7053366437728303 -0.26824165015506063 -1.3716187447463606
P 5.944113511828376 1.7322127514947132 2.1108365418424255 -0.6056434042455504 -0.6198261235038357 -0.10764514738450492
Ni 1.2142281709312372 6.123722899083897 1.9475070111792852 0.6517039460490389 1.133763420192641 0.476180903875638
P 7.246988910000601 6.979108931391852 0.10987479332476674 1.8957376099538579 0.6871304051774489 -0.20903865743234323
P 6.001279490597357 4.187051977982692 5.005234652197043 0.5566708310015896 -0.9756179500657393 0.1784142476782669
P 4.770203753369749 6.8311461449493045 3.2905143411284734 0.413541631777862 -1.7018589480914046 0.9692760670081112
Ni 9.12095454891041 7.5378528640038525 8.209943070476822 -0.855897873794571 -1.592721018211457 -1.4191566424263236
Ni 2.3698481232306094 1.7246892199806854 1.8441691470674393 0.8040947730803506 1.3436883368846795 -2.1522550296934546
Ni 6.734800847612157 6.199233801459122 4.64797438430235 -0.32360932829208783 -1.3483530893502005 0.25376376825385977
Ni 5.841668550357755 8.190719023591102 5.1877772062565075 -0.8882557212999864 1.5118153437043254 0.49293292652299625
Ni 5.901774126299494 4.3158798240788165 7.322142467594511 -1.2539028433894148 0.14840613135195085 -1.6115553773091407
Ni 4.302008599919865 0.9165167927636925 6.478751828999643 1.1117540058010853 0.34579254925734637 0.6967165062039872
Ni 4.758601530778519 7.794351089809329 10.381268254517563 0.2209528923714259 5.0907842593460714e-05 -1.1046047963508137
Ni 8.49301066160345 7.729707510732143 5.719755187986428 0.17306455333057938 0.6461778740244871 -0.8891280966026107
Ni 8.261471453042923 1.4002587407610023 9.27215089224299 0.6359070882260984 0.06820133956658578 -0.8020155219538188
Ni 2.7454000345327896 5.8516264357804735 9.03417488449824 1.128132704269425 1.149617613616078 -0.39369785757905745
Ni 7.338401195832213 5.370276584982496 8.701639384698792 1.2070468022678245 0.12069863813435341 3.584695533712878
Ni 7.155457203033844 8.477017415735412 11.949869457745374 -1.3299375629574903 -0.3970194657531227 0.2888904367536637
Ni 2.126780182008172 1.4959058837696195 8.071069151042797 0.48193786096407326 -1.3687391092057202 0.6218380117275419
Ni 8.039688032599487 3.354098746599348 7.811890380065413 0.8405051933885848 -0.029768489511684218 0.2530842256883319
Ni 5.837084616016486 5.758964821150439 11.223193687646633 -0.31927830501690174 -0.24657316404269147 -0.052133230360129575
Ni 0.9644726461407753 6.341271462350329 10.285701950431195 -0.10564328646312773 1.8593235901011977 0.504035464194061
Ni 2.313279250137345 1.8213192907939437 5.650406416184597 -1.3762580432905844 0.5884121279689286 0.022254697633142317
Ni 2.033438785531937 3.9908706116657466 11.58417897633368 -0.9285186825850912 1.579392676533667 1.3912313767709652
Ni 2.5435140124524604 8.247379759096013 8.058525338732169 0.1577703461756702 0.6142285748114003 0.26791794826705473
Ni 5.291054441176665 1.4582974124406454 4.30567850326523 0.15911143358459695 0.6066769877163875 -0.5161556444963626
Ni 3.07631600001487 2.4628404425425794 13.03677540750741 0.6512000098294268 0.5367041580716756 -0.9301045390149724
Ni 0.05477480019376518 1.2355402504337338 7.126679465336658 0.29574165534754226 -0.17526618896758847 0.32921407607337494
Ni 1.753001215250812 6.665949970081463 6.561344404688866 -0.8269778483261113 0.10254536426409436 -0.9666944223238642
Ni 4.279805455024375 0.7852610231276927 8.983499903736357 -0.7585962744279193 0.3866391509600631 0.9451362365371142
Ni 3.114383783402088 0.4613762066332028 3.767045089811361 0.7246330301085971 -0.8630303710742943 1.0264779701403999
P 8.775753978416958 0.9438036035198197 5.130850988381929 -0.8880356348693803 -0.6613532962133449 -1.6281089107924474
Ni 6.950677514986581 6.563835713292777 6.979510370130757 -1.9835035019159324 2.0372508708407175 -0.7345266350732254
P 4.912856892419002 6.200483130257544 8.068030342465459 -0.7337959275547878 -0.9989201151267894 0.6411469964687991
Ni 7.841375458332293 2.6711935784029763 1.594414540901094 -0.6778854895404133 0.580503157534497 0.6822018575275799
P 0.4272180874857534 5.308407250737102 8.278902345653263 1.1441403925515907 -0.5966962223545916 0.9836865860064864
P 7.902160816120232 3.62943795303397 12.099551908533984 -0.16833860860981975 0.6126830847011512 -0.486594128789162
P 3.9376639028388243 2.836059048588883 7.819876898134149 0.19468778802730988 -0.12073231958576627 0.4027041748427258
Ni 8.7537253721036 3.1839603739848066 4.958566709831275 0.7815284577440604 0.9054589725521502 -0.23935350636580072
