# total energy = -340864.23729716224 ev
CRYSTAL
PRIMVEC
9.36438377598619 0.00000000000000 0.00000000000000

0.00000000000000 9.36438377598619 0.00000000000000

0.00000000000000 0.00000000000000 13.70572222257651

PRIMCOORD
 96 1
Ni 4.918062056644881 1.6397879020027655 0.7807901566722327 -1.2502169098973952 2.551740954709199 -1.1079217765391887
Ni 6.078730620303704 3.6077974600323315 12.842152216723914 -0.6299629548275216 -0.5105951196894497 1.9072384115046057
Ni 7.1561966329269175 3.89796225985106 10.85049103425421 0.21278372629707226 -0.06138020287969429 -1.212206234981577
Ni 4.809463296446799 4.557074421318858 9.131629338081517 -0.010914332919658622 -0.04458524280954257 0.6898547460871474
Ni 2.1091027303934973 1.6339445264432586 3.881268372655654 0.8421897801798593 -0.23481705194802785 -1.5633718756253783
Ni 5.4021070609252035 6.907291308613297 13.42622195129481 0.7145075116388211 -0.4213202472820163 0.34688706787310586
Ni 4.957532934823282 2.8892870114267875 10.878135631993345 1.7516115940344996 -2.629348418081033 -1.1856020021304872
Ni 6.425737230452894 0.08347692748415704 3.5343085844260114 1.7904236818056907 -1.1094353849702376 -0.10003725313025998
Ni 6.778690224384595 4.926948856974964 8.030333777723884 0.1752325075161756 -0.5538251340226784 -0.4621671060950492
Ni 5.532478013712796 9.260167680938027 13.199871682065533 0.5878583123479876 -0.19309421828794485 -0.8098555868235279
Ni 7.153986638324283 1.5963465250467508 0.7926866699908189 0.22601719426821074 0.31207741639308834 0.4888438440552871
Ni 0.3655949122094808 2.9718153268209155 1.9532709541944564 -0.33765166531776686 -1.2484253652146111 -0.26444335945489295
Ni 4.953272140144475 1.4285835873086588 4.4701757479541815 -0.27532709624693225 -0.8504913580670191 2.7841419410165664
Ni 9.046575448347005 5.087594862941862 10.245671697816716 0.18154585132871315 0.5915969534548133 -0.5772586824552703
Ni 6.341242394437778 8.372573916463155 8.754571483528458 -0.1402616478679455 1.868005948366544 -0.31178970994934047
Ni 0.6813516368143901 5.183776450075992 12.437463811007584 1.4775091142232877 0.1428054973357218 -1.2950348375430343
Ni 1.8629318061814424 4.053017728624005 0.3587682763394797 0.33914136248941595 -2.0089209135477724 -0.8893458690403715
Ni 7.485682480781495 1.6139422024126382 12.188101504759183 0.22526797480701205 0.46626493031350663 0.8189086981647316
Ni 8.973261686719793 0.5193908713466036 1.7492884523713301 1.140447517081036 0.9122507986630031 2.2817026176650317
Ni 1.8437441835509456 4.353389706904053 7.787578044323612 -0.9103021595770645 1.3938479884582058 0.1671744130983895
Ni 3.718081809334118 4.653920879710561 11.49838840955203 -3.111743935407815 0.47518897227601387 -0.3012250470596167
Ni 6.1291765564239995 3.7789690335134694 1.7183138797139879 0.06981676368282169 -0.18949595941372527 0.019468136026940665
Ni 0.08933528605791927 3.456403465367987 4.241455353157418 -1.9054517519178282 -0.47302950273084987 1.3246734863450735
Ni 2.3168422230411014 1.4448307933915832 0.916093330464941 -0.39600490844567926 0.058953595716072664 -0.7076483226251427
P 2.4910197637571785 5.432372749720599 1.7712320131863828 0.7094288115643331 1.2143183962285733 0.8224089980085062
P 3.4503072514429243 1.4203616582361471 6.205526251314661 0.49234568656095856 -0.14136953622014362 0.28160701571837304
P 4.1371941755862 7.742603717721618 9.441583890416121 1.3760718954217075 1.270790877394005 -0.5509940923317865
P 5.824094293037491 7.252406313212776 6.686555923976137 1.3984278945194044 -0.26754231009519086 -0.1313286070443738
P 1.4117089675038001 8.847591654654753 3.4501415018477264 -0.8921486285964892 0.08644023117211565 -0.5977979400592027
P 0.147419750133167 2.1618616693394315 6.815882747957823 -0.1647822587171291 0.9092199822564792 -0.18715419865442606
P 0.5638454746416228 2.250645393185083 13.297895243514654 -0.45819140927675284 -0.13125224528048363 1.0745241749153494
P 6.246943048469451 0.48122632472357285 10.921281094417822 -1.000916833841844 -0.19738513235381488 0.020508661476313063
Ni 4.262761199428236 8.634130523438465 7.15244057854083 1.1907570639688654 1.2478877475435863 -1.3130500431735321
Ni 7.873161958187398 8.211993461183624 5.472502880526227 0.4293523735578735 0.06788689364996049 -0.02180552591086567
Ni 7.10593798448481 6.482063999668335 3.94315009440619 -1.4897761045160989 -0.40779367355049123 0.28793552903956215
Ni 3.790449768186475 6.992488473421624 11.413495587220762 0.833835494677893 1.0305570253057799 0.41399517437551286
Ni 0.5957106002087553 6.547099645919579 8.214319574146735 1.32782565882081 -1.9016791722492732 1.5399437265094251
Ni 8.705758695961974 8.76093364595655 11.228687597890659 -0.7872291076732636 -0.30031256254767635 -1.811840199808254
Ni 4.006664028272147 0.4221379986932303 2.37780623516851 -0.14112245320634406 -3.149078410192215 0.6683186717875844
Ni 8.507570874902024 3.367591648370607 8.503605994754757 0.6266984251436368 0.3353836952191966 -0.1686327428114709
Ni 6.217997737805289 6.465517133300307 9.908250471037254 -0.5119709169910538 -1.435870869857211 1.37537306958247
Ni 1.4224311870801394 0.4930563509164019 5.941636039869114 0.7080481291667226 -0.08844286342444124 1.2566575233164166
Ni 3.9891151728258065 6.706228621693143 5.447928864271005 1.308934992563894 -0.23584755009507127 -0.14222159980779378
Ni 2.2673982759991187 8.18925673705144 8.032389259992012 -0.5448843798896229 1.5707959360035915 0.5186082198019132
Ni 8.32389784890175 1.5935184811060918 10.082998302733417 -0.46991306858905524 -0.49288741799704144 -0.795933577425797
Ni 9.126631566389035 9.07564249600199 8.690209136480304 1.720358549557489 -1.4367681848604998 1.0090613173258494
Ni 3.616122397327847 2.951288597291365 8.01439372343319 0.6316105177332735 -1.5214592945519927 -0.8209815215333602
Ni 1.2978848810842352 2.43289503283112 8.920300477081414 -1.008462764509902 -0.1995335461553854 -0.8690115283583938
Ni 2.4898866733041327 6.841450325345839 3.550426562010985 -0.569177962329665 0.00023294194641250204 0.2807428679458649
Ni 2.569427750231141 6.4066994379649485 13.503055784833593 -1.0269932192139215 0.9294661341000251 -1.7193586475380647
Ni 3.8221856652556574 7.153939816404735 1.5978813475695124 1.6088595756445323 1.5105519036108694 -0.11400708504679076
Ni 6.711519498601992 8.384653971706367 1.4481055184447233 0.011501572881696322 -0.8582800008735024 -0.3117326314591599
Ni 9.263183012556874 1.01380693080666 4.345495531268372 -0.7265472164121745 -1.0167414595789266 -1.4232434109011876
Ni 4.19529081336053 0.6469056870418086 9.177556958965495 0.31998535838625536 0.18412595335106355 -0.6412596107872633
Ni 4.527979280512146 3.6758952598219716 4.4429703398204 -0.8917477936136449 0.13083984033341337 1.713921278572577
Ni 4.529543132625027 5.31617947417194 3.1476700286951775 -0.02621008273646454 2.2209981006961232 -1.5863621658729645
P 1.7697655506661603 4.61830812770286 10.106750126081389 0.6469540900688794 -0.4749938255460722 0.21551680895751918
P 0.6378044423201982 7.861362834461471 12.690306858755132 0.9871010110046743 -1.9564832645733468 0.3243611188564478
P 8.322455733779691 7.032455663947227 9.728650952037597 0.286863379021306 1.3444115882039493 0.9290858679424708
P 6.452931401325984 0.3224560048537416 6.163422108380919 -1.2825611305560558 -0.9961926888932972 0.42511519554807425
P 4.036901623915814 2.401355787824037 2.849049190206201 -0.6714801002347016 1.7978559697140197 -2.0521298448350787
P 3.2816734260012517 4.798329043978443 6.2458755087037705 1.4525347036661371 -0.3776297483726012 0.048137221826859034
P 7.339607456177728 5.990368293733978 0.7215182887172646 -0.6021197073630081 -0.06204868970162862 1.9029582960720128
P 5.052150669844531 7.617111608950857 3.4315016956759337 -0.26817145903875755 0.047890653033691714 -0.2600876535893585
Ni 8.51223433808894 9.095363888515326 13.512197296406015 -0.8697532916204247 -0.1411615339743956 -0.25610295790999765
Ni 7.8873115422746025 6.839539991028308 7.668008908375589 -2.042193559557973 1.1403827252813714 -2.1921253835258314
Ni 8.027655563925777 6.067483995228434 12.45966676525693 -1.4575318997704123 0.9681491524925199 -0.8858296283569969
Ni 7.350114294924149 1.9087985585700091 5.165755629680615 -0.3265025906794829 2.0930702918031825 -0.26375816046241024
Ni 1.4566954678048771 0.6047425484894358 12.086213262070624 -0.3924855824385111 -0.35609650228651574 -0.2913594671194466
Ni 3.3281956852634815 8.90677456096258 4.557248598859574 0.3651953792639904 -0.12427658529359888 0.5643738560728021
Ni 7.713901881039102 1.110288178225893 7.790209436202172 -1.6206066888781314 1.141177453268525 -1.444382763982964
Ni 1.47823355079665 8.03867744378722 1.2512034272955448 -0.34861099254274797 0.9776396084814583 0.13516957805701882
Ni 1.941452165262319 3.2103168206111174 5.583094381620244 0.46079182301407734 -0.5045867087118406 1.6363477537624722
Ni 8.706610854897734 7.869294467632789 2.937615660345153 0.39696495836610346 1.1704466345462874 -0.23865442341624704
Ni 1.62339086577729 6.2953381845135725 6.0058476203363265 0.17679188158349554 0.3364471034867044 -0.3971778457078579
Ni 1.4674083229973067 7.165607838755931 10.700729251705283 -0.977758907668142 0.0021970076513187966 0.33723797481911594
Ni 8.165536752608762 4.663519373217763 2.7657735969760977 -1.6052644020941065 -0.289650711958456 -1.1298458303057897
Ni 2.7085824951258126 2.4628423325735933 10.797957776960493 -0.3025054564339371 0.3819129491289875 0.07158259733399285
Ni 5.577970190744984 3.56044177060216 6.476913588518128 0.43240170190715854 -0.13515209455552207 0.19259259606117798
Ni 2.925030864809221 6.114764769587332 8.905718258457593 0.2497021965899764 -0.945662027133597 0.5472099426990059
Ni 0.2536165458584716 5.810899876109053 1.097634086249031 -0.004985626140049478 0.4657630509764237 0.32101328543013746
Ni 4.284907967374124 4.78310255574165 0.46623300964612613 -0.16307478910771916 -0.3355880979205188 -0.27730221769543206
Ni 0.3100444504201347 6.004995461400565 3.6874012783315333 0.5740610014535791 -0.6400259954904783 1.3378277643388443
Ni 0.4500925575397697 2.9652134361647415 11.250068359232753 -0.8066581629321528 0.41261397775727005 0.5089894657652267
Ni 9.28030110634338 4.604364560061663 6.513082584930052 -1.5261700697641007 -0.10914152942437333 -0.719062220889039
Ni 8.447142505534238 3.8461116661443437 0.14464227386561923 -0.7645344942892252 -0.06654992000609183 -0.5408688309723266
Ni 2.0233717957023316 4.057306616454541 3.296294975037493 1.7579298229430433 0.20683393647154055 -0.09491304452981719
Ni 3.8997976790973152 0.4017301968393301 11.458161825592136 0.28306817364493186 -0.6519564283794771 0.3246843065238215
P 7.366679890059995 4.714583358676084 5.317231094484972 0.20529564545014323 -0.4359341405404492 0.22180109930433414
P 2.000017022232122 0.6209082844323477 9.647704281085778 0.2250221773447931 -1.3821404702132907 1.0477988431053633
P 7.584289443348177 2.3553017477572804 2.837358693333623 0.8566938873333052 -0.07856854173352275 0.28885881218477993
P 3.159983257097735 8.868801984209695 13.347208089181905 0.8550293551466888 -0.3712860655427606 0.8558312822226939
P 0.45583854350661834 8.078438617866814 6.752069153806764 -1.0118136832600058 -0.11081660313395109 -0.8235112299337495
P 6.454869828795244 2.7067938977991046 8.803596842609688 -0.9788043182135208 0.8867745087687695 0.45160372875690613
P 5.550747926720165 5.464174197477147 11.822898960235507 2.3642895365293284 0.7748849842856138 -0.3762161558545263
P 3.6317796472244748 2.9416151887128863 12.836231116777958 0.696412344700007 -0.7737305589661966 1.4573544936522838
