# total energy = -381166.9582401705 ev
CRYSTAL
PRIMVEC
9.24676570431553 0.00000000000000 0.00000000000000

0.00000000000000 9.24676570431553 0.00000000000000

0.00000000000000 0.00000000000000 13.53357628567124

PRIMCOORD
 96 1
Ni 9.099853192915882 8.223065612228444 2.4118588919877717 0.2833491952204604 0.4668925365951765 -0.3616218029801192
Ni 6.763639317974225 4.787910608060356 2.138250790433169 2.15298522299126 -1.3844151251800803 1.6504721089789962
Ni 2.567031643042814 1.6827171949876023 13.143416722281271 1.967515611128108 -0.2703245008260183 2.920268483670216
Ni 8.704674162576199 2.776258212982117 9.52171006728844 -1.7933930488466598 -0.9674621537278242 -0.2168735800957297
Ni 6.453613753961101 4.633119748433187 13.597455115695672 -0.7974561847179105 0.01386081714249226 -2.0232437579283475
Ni 8.056919724188958 3.0703423527421205 3.7211648680244798 -0.4279053566987018 -0.757793833131282 -1.7942710805762387
Ni 2.987435850506924 5.251820848651457 4.299738703342029 -0.7824733381558331 -1.0125387343514884 -0.8510400314816375
Ni 6.746819450969338 2.004689580424759 12.075603905471143 1.5323114067751482 -0.2966615960586504 0.28462754771225174
Ni 0.6400407863501439 4.4926058952136865 3.659966073200319 0.47181568492840675 1.6068016646742391 0.0039093623567352034
Ni 2.3500932704195767 5.79875779943326 9.862891684015292 -1.5000823715381133 1.2668794581547407 -0.21253098685631786
Ni 6.505552837505056 7.416294542239745 2.6252298623622545 -0.6826584854490243 -1.3350671708745716 0.8806236586760253
Ni 8.511536965142945 0.6685920251357358 7.673239971808197 -1.7801346411748569 -1.328191783910977 2.169272647297374
Ni 6.712735872200775 4.3730637068468985 11.233612829196069 -0.1102584166376359 -0.19892728002995416 -0.3573221471635007
Ni 0.5743378919008701 1.5284164139482619 0.7275688221362163 0.7302118097479554 1.1314995638591288 0.05105233859112498
Ni 2.244153074556466 3.7375519863895494 12.458495833405056 -0.3772191431977439 1.032468640506196 -0.22418554037611066
Ni 6.250471555923511 8.497047283121692 13.142280294763458 -1.4712700752921113 -1.5054289805620071 0.2978203922534419
Ni 4.5009279844409535 8.132419567011889 1.643463749455745 -1.5766670500723878 -0.6896750259761735 -0.047277959150357284
Ni 3.6871756062671595 1.8860998089362024 1.6306606775178847 0.6683631518722747 -1.546542976993498 1.5933702217596817
Ni 0.9456020118311299 8.94748498593043 4.420377558133655 -1.1100663336860173 -0.8460418069360978 0.8789164461769314
Ni 7.047505781516307 4.65755895046393 8.306571304888003 -0.08134044805170508 -2.781517616019842 -0.6580232033988473
Ni 5.083899581576824 -0.27277866666161904 8.546900296299347 -1.6012892194964423 0.7393322839919848 -0.06238653265702159
Ni 0.6524286785032215 1.8206049667176103 6.659480049205751 2.3613232548121523 3.224518176488769 -0.5528386017396931
Ni 3.7365255953848533 8.119834718747098 12.89782354709539 -0.3569501085360627 -1.2134977000994907 0.4761839891994315
Ni 7.757416979665424 4.501963622211458 5.454179845625103 1.8272310804420273 -0.16301539662469344 0.5309446298800791
P 8.756123167532326 2.9618592962817902 12.67090606481208 -0.11907498648800137 0.04571832797272127 0.17315685593406954
Ni 8.441150583811883 6.383384567648775 7.263578656859908 0.6057004827357311 1.4896141250169377 -0.8254606403506364
P 3.131870332429049 4.005708194823712 10.380509914449432 -0.7588109615418867 -2.680219751009603 0.9428685235488601
Ni 0.8565112726234929 6.085120889743521 1.2930954708985722 0.22793549433684615 -0.044791959503709955 -0.5523927724515261
P 5.193261080788921 6.421536723372891 0.3020021453214579 -0.17313962954288892 0.21924542276201595 0.0039898378856834515
P 1.7683052593071404 5.88155334047876 7.525575594589313 -0.7406967684396792 0.836708959570946 3.248914860165579
P 8.086010049421162 7.139659049559578 12.049254321624453 -0.3028330149766849 0.2049403189932535 -0.18580976881138966
Ni 6.850133565342955 2.249423731067069 0.9555626279595877 -0.140508473771429 0.3826328580141475 0.052401139309535556
Ni 5.586174653505626 6.695851277835231 10.776123542782093 0.257293378673673 0.3728575237949385 -0.3623699940000533
Ni 3.0333922765730548 6.706105941116386 6.120613675621235 -0.6294749594475095 -0.32009205916744876 -0.7947333864701087
Ni 1.0057707169442711 6.644577961429457 4.9381317160251745 -1.0815116619767762 -0.36848356309695895 -0.4126072928890507
Ni 1.4886090871445008 9.09645038309851 12.608407174715303 -1.1461898188814519 -1.231929167331801 -0.5641583976278864
Ni 2.567133357466703 8.265406552863617 10.6576512052193 -0.11383610668656524 -0.49908197684352756 -0.49476895129047044
Ni 9.046499354203291 1.17678965056461 11.45971844544143 0.4836011075991091 0.39986464851140163 0.11768401967774571
Ni 3.4241051190274376 8.743677020754658 4.891074924827882 -0.33383383423357343 -1.7744010811251894 -3.416744133239148
Ni 2.3397738797777654 0.04064230975623016 6.834983664243006 -0.9491129617966753 -0.28387652847884015 -0.901293528320551
Ni 8.367047002625974 1.131101380706914 5.200398659316174 -0.12702355191111672 -1.0177292774134923 -1.3959238971506283
Ni 2.4275996614228577 7.118252786713885 2.8494130759961185 0.23064903661326724 -0.2688327467718402 0.29770803504529375
Ni 4.572914056256814 1.172545385058704 5.971921058044492 0.31106594440943847 -0.02374336636352685 0.5601122525829708
Ni 4.195313127718281 5.0252658395878225 12.038725029398798 1.9925465859548073 0.28458203918629704 -1.7049627838277088
Ni 5.645261487019223 3.0255232788703834 3.2740291852858068 -0.5608928395027373 -2.082343906524614 -1.5750593392656358
Ni 6.5258957222828196 2.4232536814930623 5.436180091303107 -0.6074161798752572 0.46768726458233006 0.9268317818009715
Ni 7.96504385911993 5.9761662482269795 9.942739356121177 -0.35872416971734994 1.401697823519928 1.3927197883910338
Ni 4.832590980444973 7.900039095489166 6.342470402977788 1.731023999691135 -0.42136009938101626 1.2299406761468623
Ni 2.293669505458705 1.4165213009047515 4.785553607455878 0.7321619914957906 1.610310963379078 0.8103042443251722
Ni 3.952909162059606 2.1857967355417074 9.252242667462694 -0.2610978400214278 -0.6288545522546911 -1.166814437110339
Ni 3.7842574004861342 3.189903034640525 4.919359856758202 0.4383712892270321 -0.3140160281766979 -0.7075058835100073
Ni 4.65178896859969 -0.027523923104314764 11.1527766778253 0.6283238765622017 0.9102242551512775 -0.8321187690971024
Ni 4.764673485584664 5.186936292976197 2.3912885367711296 -3.3801187687066303 1.6083659238375654 -0.9164015876065831
Ni 8.368683680174001 9.158154051335792 -0.06743388900854543 0.4484988645793373 -0.3135612000274664 0.029976491757432246
Ni 1.0476030854600005 2.3649620698389606 3.2805657240355344 -0.7993762845587588 -0.6741789872231034 -1.55790468186322
Ni 7.678070482266336 6.947243099859354 0.7256732351455609 -0.00312980387823332 -0.5397095205569028 -0.680804462959421
P 9.314822004422 8.415259639549273 6.3228053061337555 -0.035931938009918764 -0.532303972121451 0.7806553111104878
Ni 2.701988190011662 3.977024727287065 2.0947133183024307 -1.3737226784632406 0.07091513895332302 0.39381921364827016
P 5.966512624723349 1.513926731927009 10.002585349107616 0.37716283603851175 -0.46275563160866756 -0.06449792257306956
Ni 2.9283305234617116 2.536628277065865 6.927499405505953 0.10460893166134243 -0.11371269373482351 0.6348673341076744
P 2.8760215692854336 0.009779379518619666 8.773140915325508 0.6700474815532331 0.3629582624033556 2.14603116027093
P 7.919780940489406 2.918325522857375 7.308347798196282 0.8727895073435872 -0.25764561980676914 -1.0477937008990408
P 4.49599945826525 6.67496283387479 4.08236295869607 0.8455856932352857 2.0416019487205617 -0.17530552684595616
Ni 4.45647878120154 3.6006443718351973 0.4752791391521289 -0.03385114422149009 -0.1579140708423861 -0.6365390653831424
Ni 6.6479160438861715 -0.01698168540652895 6.504845459920738 0.6095705072140986 0.28481832356681913 0.9910371128342869
Ni 3.9192324409865984 6.525553591947921 8.22919899198894 0.5613859770890719 1.009726461713674 0.9158151189754936
Ni 2.108382812196507 0.23524881827638677 2.596416940104294 0.8754050905895634 0.3136974684950146 -1.6171930352108923
Ni 1.0103571127850761 7.733930194512915 8.548023778345026 0.8790946236260087 -0.06546028648633888 -2.6988965014835
Ni 5.957025443004265 -0.4024164739376629 4.378490633699657 -1.0353053386240427 -0.1334266272239831 0.6655796755898666
Ni 6.326988542985328 5.964441349182341 6.253148494624949 -0.7575426363524244 1.9933749953933735 1.331926568363061
Ni 0.4162172719062142 4.312219987829768 11.092362933418244 0.06816277301916648 -0.039169214000293835 -0.5011951665317884
Ni 8.312879448522272 6.086147280748218 2.7961720478263867 1.8674343921337901 -0.7113386269925362 2.21977631247388
Ni 6.084658551453118 0.3766115245970692 2.302305060046866 1.0049287832147142 2.2116099746130042 -1.3620275015134995
Ni 8.542365682347066 5.16949689266217 12.97672435038253 1.1467374638548058 0.6564779703989145 -1.074179647091737
Ni 1.5663281537613676 4.574929851202975 6.0690648055943806 -0.5280961046876904 -2.627473569655823 -1.012525878835682
Ni 5.487326727017308 4.780716624261674 4.5728604250151275 0.30316622994638753 0.790245268791768 0.6711034336215732
Ni 7.154500108681538 8.27849997324785 8.8711372146829 2.0465754906757527 -0.8517499130644686 -0.7459292204832121
Ni 8.77123238286272 3.7956031821326417 1.2849453715153352 0.8956144756579028 -0.42451407162896565 0.8168078497716449
Ni 5.924717243270853 2.134153548503611 7.853805266448793 0.4703370435003512 0.03181405918680327 0.3147148540159354
Ni 9.371782081799738 4.768409178971127 8.658186972152684 1.7488486865773816 0.5182279536443591 -1.1730935852508313
Ni 7.017749689145923 8.99175850061949 10.98214518369232 0.9271775951761644 0.010282098652298422 0.2650444833740016
Ni 4.853960256227433 4.502888298792265 9.305700994628916 0.8600748879903963 0.4836774693629992 0.5435854585725413
Ni 0.1325560865650722 7.86059239255192 10.484123624035231 -0.7461565060026698 0.9300160930662241 2.5401709904834124
Ni 7.912402021374561 7.639779625055099 4.879409205084416 -0.03191458932040955 -0.6712571855906182 -0.1833523084098326
Ni 3.035167655608205 5.54096721546995 0.2655680386844825 -0.1641914192106656 1.4606141382401618 2.295637739688885
Ni 1.7062872010323844 3.1170292733070895 8.78009725724292 0.2963304379714768 0.05820154804139654 0.9880296934665307
Ni 0.8824854377783744 0.8454539900701974 9.385359108035734 0.8685489868996784 -0.27012806854449606 -0.34563494063355954
Ni 4.610853536367344 2.424067396884173 11.531243103643469 -0.5477588732239405 1.367944638328883 1.1057275971013474
P 6.130374561608238 6.453992871359232 8.500954041675604 -1.4545872153197916 1.4771033941444367 0.16242352867696544
Ni 2.510598631316135 1.6687545786174096 11.076961520288316 -1.856201242422132 -0.5397637708336059 -2.995434427480093
P 1.9722611727358415 8.038333724914729 0.8240375557821158 0.14045525193599037 -0.9758182390020033 0.8027693694007076
Ni 4.421257850238583 4.563214198924144 6.963485044001238 -0.12147408284779725 -0.6346670451714101 -0.7819855998861371
P 4.419611925924746 1.0843867198445212 3.6702919365781956 -0.35639295048101205 0.8845235079510637 -0.11998747099994174
P 8.340333096206445 0.980841436325702 2.1143774904698818 -0.8603024306201701 0.5837404335248721 0.9306120747790102
P 5.013402239056062 0.8675648564704652 13.536012206254176 -1.0710058773494457 1.7347184178235868 0.02095269099226714
Ni 1.5233861733486693 6.413001958532038 12.229521870406028 -0.5119194949278281 0.2604118696979966 -0.11613672979528386
