# total energy = -340864.8651209319 ev
CRYSTAL
PRIMVEC
9.37470549309145 0.00000000000000 0.00000000000000
0.00000000000000 9.37470549309145 0.00000000000000
0.00000000000000 0.00000000000000 13.72082909889614
PRIMCOORD
 96 1
Ni 3.8628286563616747 8.886620843195114 13.331747145250134 -0.09488219129188176 0.5079491974261704 0.04396406428577589
Ni 0.9807629411409488 7.5249354930291386 7.083391550817779 -0.7405296467341956 0.726014483837156 -0.4530512598367101
Ni 7.496398889453912 4.05971622150192 6.268470900047128 -0.08265505309807054 -0.8789210741626219 -1.451734576362345
Ni 4.073815778590337 0.8786667733037734 1.6517274890270845 -2.592597840824561 -1.2796938363105896 -0.9491579561019975
Ni 7.84150054872173 7.690417794707818 8.06613255482153 1.5317439643074524 0.17076650132502202 -0.7403424704240539
Ni 1.1488795350681948 3.723211167187611 11.468485988663101 0.34416504095625244 -0.20727076689864304 -0.29563186924255536
Ni 5.77119058369117 3.064413112113541 4.543487587216648 -0.41991745339721875 0.10578289736478558 -0.4655002842333402
Ni 1.8975716412864325 1.6809878198677537 2.491990781205393 -0.2621334803747937 -0.19596742607068185 -0.3992792083215769
Ni 1.0012654220933208 3.438360740238446 9.001426299293437 1.6273370656234298 -0.3839983709031064 0.7493446739226642
Ni 0.6706654947803377 3.771340905280651 2.174326072556371 0.3307441395646562 1.5570415625319765 0.0611590880078237
Ni 4.05244145002545 6.258084663811585 0.659178668117813 1.623077519016127 0.27188438911397045 0.7026894359579705
Ni 0.4232951404638126 0.6136738475678295 6.154257925337094 -0.033185742723349294 -0.38493399534349837 -0.58327634940426
Ni 4.739607363975549 4.681587311568494 6.47269135983801 0.19403909869971744 -0.9149589416227855 0.5778626345878564
Ni -0.21377703458871072 0.6940900714404619 3.602828698780844 -0.0507674603608545 -0.3036632241874641 -0.16252560147246847
Ni 2.829454867893468 4.721504807633972 12.969517899013875 -0.2734633035653161 -0.767141335784453 -0.39691842139888417
Ni 8.952478149409293 1.3772286119030726 8.501906365790923 -0.201278296760634 -1.69027689968076 1.111743207167808
Ni 6.305511298991306 2.3033088957988515 8.770299497215674 0.7169603440546879 -1.2070470593781406 0.20290271973793442
Ni 5.245897709798047 4.840038584113986 2.122242083678827 0.9443811035386446 -2.2523187651862755 0.2752275945545905
Ni 0.08606635888406114 2.98964046095848 7.045055567571992 0.306098315991518 -0.28351708825689237 -1.0007813367052443
Ni 4.662172296455388 4.880406066043988 11.176370164942977 -0.5488055693209 -2.3433959809097704 0.5771964617587673
Ni 8.112551409158828 2.810639833933061 3.1130912704789697 -0.8693231460615416 0.6576249395191642 0.5661882835737216
Ni 2.915130301557724 4.0075272359226535 3.8302243680652617 0.3364720431873689 1.0918133010131004 -0.3937225401694058
Ni 7.091017873750908 9.173168091841754 0.9016310519233117 0.29421184896657715 2.113621633591973 -0.20289423509750218
Ni 4.060700565580566 6.411707963018955 3.3351358578577566 -0.21862501556919764 0.5990935189421747 0.1384762738327486
P 4.14020744301864 2.4830220004431 2.9945293698824225 1.2108340372243986 0.9022450936005428 -0.20839948118644755
P 1.9811283915052216 5.902342713788878 2.7722382277486983 -0.9963104454180842 -0.00970642865448651 0.049818466184023885
P 4.369850229214023 6.563981304632755 5.492324031269622 -0.18367832429068365 1.0226318569214323 -0.12850990664865608
P 4.969850131323632 8.181839857590004 1.8139623927167825 0.49375156576954965 -0.6073621867088701 -0.67180894432903
P 0.99470312823568 3.2620319042836385 0.05021279765756514 1.349652010667282 -0.18923242133969345 0.23274474280003146
P 1.8733099034241836 9.709476244710203 4.144500120672087 -0.5543347266692453 -2.1068071817733007 1.2339356562388686
P 6.506692479255551 3.298940119880112 11.067481085492593 -0.4998983020972359 0.7618978279973265 -0.1380921510204525
P 0.5675690458651476 5.686546367633115 6.013633592791159 0.3186260161448835 1.2265036254408554 0.06325787951838138
Ni 2.091796790061578 6.895377144443614 -0.1526127059532942 -3.8277434582111303 1.2901780236713651 1.3446586712177488
Ni 8.98274907350404 5.994899181298146 3.7951123460446787 1.0864774906224837 0.4565685289613492 1.1132496165100054
Ni 8.416366865356574 5.320182876266541 10.882030661075664 0.6036140325203476 0.428317761645772 0.5987052823648206
Ni 3.7476791485711 9.072764995819849 5.864213911534882 -0.9226856208430818 -0.9466927823909566 1.8292452826585788
Ni 5.0364761633897075 1.7118493504096872 10.51132105623423 -1.0093755061321583 -0.6874402231083838 1.6896737188791222
Ni 6.881221339122132 4.928123317094547 12.987204218430767 -0.21981749321540206 0.6916619744992153 -0.8851865954563594
Ni 6.196924085058372 8.170562086860373 12.937904517089965 -1.799178288069869 -0.7325301734684868 -3.0145276966661183
Ni 1.0574292828092149 3.9002618554667596 5.181740037692995 0.03146387493623613 -0.9636831463013661 -1.2357871076253104
Ni 6.251288002316171 4.51196139005399 9.002085341090854 0.9767569487661888 0.6141573552538326 0.9031817464821994
Ni 9.518982228728403 5.192124398987437 13.506235726513149 -0.37552452910414036 0.57560237779877 -0.9119402094011198
Ni 2.6768627862922982 8.071180833739158 1.902667731202166 -0.37507201494775405 0.04509766366958685 0.7266071231158325
Ni 6.929144833693932 5.938894690575936 7.217238908749873 -0.806236759124018 -0.039084110485655264 -0.017140516335028548
Ni 3.3488979255477807 1.6659789163447782 4.827742720365869 0.4640470967265815 1.8002141855335514 0.33112132039841685
Ni 2.265669453172526 7.522882432522248 4.807641476809365 -0.3008087854578045 -0.3123489248869201 -0.6070508261160384
Ni 2.6555728300770096 0.5993474226060486 10.389206142249044 0.08980451965865824 -0.31332285876441524 -0.09348942470941318
Ni 1.446901423260196 7.731347758968474 10.308184312400407 3.213184753753821 -1.2678248527871456 -0.15974443918290554
Ni 8.363287282753772 3.181596930999984 10.050768023658385 -0.5454502796954219 -1.102681611186172 0.02392771446019105
Ni 8.454334422675782 3.053800945475185 12.486860248313842 0.9537085515871575 3.740086066802462 -1.4829817073020848
Ni 3.583237439204133 6.9629593964718035 12.067071247711112 1.9612518896065836 -0.2008869748594863 -3.2920150337891627
Ni 0.11306644822604862 8.82021042935579 1.301799731362247 0.6234626918151585 0.38892691855297534 -0.14705244553753383
Ni 3.397590145971475 2.1544760711075583 12.840349456602276 -1.409757717709927 0.6888191057337815 -0.33805584273472106
Ni 2.393549811046923 5.246882053876693 9.606830719130087 1.0226004894628646 0.7850547257297641 1.5893305044726693
Ni 6.071471775911302 1.4169679885638429 2.375885053452705 1.668017059841295 1.0010716142521534 0.7888923543082994
Ni 6.008876867214919 8.00678598158468 6.30634002295847 0.05125545574086656 0.591488195791091 -0.18454401472508863
P 0.43004399096112056 0.20352391917142254 10.360872032312853 -0.44233670163268335 1.158479177771766 -0.33806047072041134
P 2.989668585075013 2.7058400010265378 10.71688678626593 -0.25990150572048143 0.6523567491416894 -0.6660938962221238
P 4.516095635184304 5.6235670960107855 9.173814946522008 -0.9746707556611214 1.778267506059131 -1.522194372945804
P 4.657869306625877 8.873561878418409 11.106887660107727 -0.008104374274689267 -0.034936406865868866 1.578817006535855
P 8.684905304716747 2.3345454145612217 5.172725320873699 -1.2320181275011814 -0.6844037502749052 -0.4289245419918355
P 7.4906334455647 1.4695319623635457 12.938042325260975 -2.6182487086234456 -3.798996982206057 2.0448176274443814
P 4.856322447586447 4.236485668615741 -0.33336546543870316 0.1646249072036584 -0.3902384382755472 1.9876545479698282
P 1.5674320120140355 5.8532005075006595 11.63297175914597 -1.05549029821235 1.6379919742341145 -0.3967538707965619
Ni 3.8628005322451417 3.3896591451092406 8.72069793035742 0.19433323290136856 0.12724800921709697 0.5616510578250005
Ni 6.275343496657179 8.576618081360163 9.673390190787035 -0.4263693796701496 -0.18382024918518663 0.32925624216522004
Ni 8.704057828075547 7.545044236350053 10.10080832673455 -3.236629615040322 1.3190296577957348 1.8554571651672562
Ni 7.471705915138161 8.320969862077499 2.88158010547526 0.2519843077559337 -1.313903649423079 1.4168364789335792
Ni 7.740553719780193 0.5158769196779599 11.050741611332302 0.4142715679653511 0.2893478360060565 -0.14249028008814815
Ni 6.55215980098349 6.651512929988171 1.2335603124777428 -1.4418756812903941 -0.09879900984778468 -0.03257639127412454
Ni 5.385140210751674 1.462182193242988 13.609964968050326 2.2990377665093695 0.2913209005720273 -0.5888916387085084
Ni 6.592621029968601 1.8356142125647925 6.570589534547399 0.09791043659524429 -0.4447779640843243 -1.302741976379305
Ni 6.8463755587380595 0.5708970663215225 4.431415795245307 0.31254124340338435 0.39964327652921494 1.3176872848352275
Ni 4.62337976505122 8.995686167109104 3.7894875227381295 0.6116695558349725 -0.10958555894032738 -0.7280207156339075
Ni 0.35867810778872594 6.096211623754608 8.82091540721021 -0.1987035940549223 -1.6422165538384232 -0.9951753033723765
Ni 6.252966074602625 6.404451940953506 10.89997759730576 0.6688231222278288 1.5204244255295751 -0.44095139124938254
Ni 3.277218927211321 6.900158244254182 7.412527149129956 1.111315118491454 -0.2671674432542754 -0.9365711205759224
Ni 3.0200520056358897 3.6143614615003723 1.3338771612089462 0.5719292998225569 -0.3077073123498507 0.06360472133483885
Ni 6.418251507465574 6.192283605830469 4.636762157168052 -0.20719517646570126 0.03484976068933353 0.5686920238321818
Ni 0.28965402605295787 8.555759361598376 12.315871244618053 -0.8319614175836317 -1.709205361154147 1.2758307538107576
Ni 8.771218218355745 6.675887164316552 1.518456675483911 1.7825820742740848 -1.2738394344123416 0.8172392808821087
Ni 2.3594446323982132 4.75906925261621 7.315369576155931 -1.1963294158503204 -0.7093298240926236 -1.3800964432000684
Ni 0.8039156839713871 1.3660258388175286 12.348691151141216 1.1598398055647186 0.8848348685438954 0.01785811122734344
Ni 3.74327303698097 7.820735576015053 9.475728274971589 1.078557978665091 -0.5823322403234358 0.9192143744650297
Ni 2.2218239554979746 1.8339267655728277 7.261871881687341 0.2618725134039232 -0.722067069153634 0.6022863148478594
Ni 8.9441534109156 1.778803497168645 0.8079468073410807 1.7560038095649242 -1.6562573482022058 1.260336000609268
Ni 7.298995715510567 3.178034542905836 0.8725225913119193 -2.5695137053115875 1.3939950555590315 0.7903303723064066
Ni 4.85964109333731 0.3648710382492366 7.812777388506837 -0.2735764321044127 0.11308534456346975 0.7525590670949039
P 1.960354044093033 0.2959978892721944 0.44894245980057496 -0.3203669100953902 0.02538373018042725 -0.22746498245833086
P 8.064571666353963 7.336503912259738 13.376889164696847 1.0086198589130564 -0.6580699974763827 -0.7944425947025673
P 7.114004651663673 0.20763566500851005 7.94267237059553 -0.7481367696574922 1.4452852211925755 -0.34149212210977964
P 4.304246040048637 2.28383763245268 6.883095342753764 1.0199070017911014 0.5595016155821655 -1.0042207014040962
P 7.873974528611542 7.903148612161511 5.046767715099591 0.0426214342149524 0.4984481999142706 -0.026003366042297152
P 2.402108917178389 8.862284107688776 8.144299786842094 0.01416832108058205 0.7981953768767802 -0.8045850824532079
P 8.415391895983438 4.406702196577432 8.278146207303637 -0.6184822078814316 0.9327846569502968 0.042738933629423166
P 7.257268901281481 4.996483669680142 3.0959543088050165 -0.3164043259032164 -1.5122241491069697 -1.6190768824971666
