# total energy = -381169.9690347586 ev
CRYSTAL
PRIMVEC
9.28988177032425 0.00000000000000 0.00000000000000

0.00000000000000 9.28988177032425 0.00000000000000

0.00000000000000 0.00000000000000 13.59668100650567

PRIMCOORD
 96 1
Ni 1.7517743896793077 5.752406152592716 9.48651307096717 1.2900561533815202 -0.0026418084982212566 0.7591616600130862
Ni 6.299598757387224 1.6854446352018233 3.448457923615985 -1.196210373773953 -1.8961924381030895 -0.011644783327779944
Ni 7.462849859124919 2.206876398376433 1.648012915353626 1.438046537352291 0.7083934283212833 -1.3735545283164925
Ni 3.590381302482011 1.7571718108769852 2.5369096603571832 0.8514570644143981 0.04479555904813576 -1.303142297141517
Ni 5.650161715928964 1.792268983484259 5.7875358397855186 1.1714565638680403 -1.2112397573032496 1.019278367068167
Ni 7.2083256836103375 6.208641526842539 11.825400544564326 0.6399894858255881 -0.25296929737702234 0.39878169985986806
Ni 1.6798614163725558 7.207266637110277 5.871535878015331 1.375921485886772 0.12020807165118007 -0.13595453585215939
Ni 7.262736520021349 9.031437073938468 2.0619635356181307 -1.5926665108244378 -0.14095944526591853 0.847701711137024
Ni 8.261900443420698 6.855226574655898 2.4280684787838425 -0.9496348957384163 0.3958730108535053 -1.0566046143224512
Ni 3.2308257258298325 3.964001759845521 0.44247798861877086 0.15994884188422775 -0.8721241058454465 -0.09022515213584462
Ni 0.7910055468479488 7.527971928997071 3.652747993477689 -1.4671838210378798 -1.3111808511752774 -0.9884271860152655
Ni 5.129733259964938 4.567602525590628 5.859612315008069 1.1094513258098375 -0.25881007242851556 1.3086562849812107
Ni 6.805525708205681 3.167450153694623 12.90902900027246 -0.6368437411077549 -1.6278163192526933 0.4669300747013313
Ni 7.774283849195393 4.791302874024496 0.9320278072007648 -0.27185533564824793 0.3934314912915482 0.38168283539605236
Ni 1.5971628905520285 4.89154998614866 11.82753535935129 -0.010800175939297527 1.4848213316139847 0.94354060991522
Ni 4.886301203056255 7.9344506975072004 7.063217733338866 -0.034377191928289176 -0.4664845025234805 0.8726043879159746
Ni 5.5591673258579615 7.450466446979473 0.29828137573024666 0.7606235892705933 0.03404834783396071 -0.7997573220472612
Ni 3.4795158557125014 6.412071353669982 2.062657489772118 0.2522344760935269 -1.6454481734018438 -1.086960086685857
Ni 2.4325462017051516 7.219817267124154 11.387668756444512 1.2076080740879331 -0.39209786008178926 -1.707002697075873
Ni 8.625497118559949 7.228298929006218 5.793682025438502 0.02281082724692846 -0.90039569909663 -0.4171144367307848
Ni 8.453086206326386 5.043560318433685 9.160179039831371 0.15309530929750406 0.348093172366065 2.4767380188397476
Ni 3.069999295925882 9.213017099290976 6.222561485401231 -0.1127996950022509 0.587327122434866 -0.20345036471128833
Ni 4.2138624148072035 8.321792309963602 9.550539863801104 -1.0414572171580514 0.8695267774319154 -0.5562131746388809
Ni 4.235702926400561 8.909944002642035 1.4472715802552834 -1.6798629034362877 -0.13176775146432143 0.1789798903737498
P 2.705622270733954 7.422336685556808 7.98652698667729 0.989603979932186 0.5576745896757556 -0.3353667259383321
Ni 3.593930037245372 2.3280443238175854 6.59352039169222 -0.557745037902375 1.4058635248618434 -0.3734820447528149
P 2.0837947573299083 0.36119895670358804 2.0606174317772648 -1.4516011361082741 -0.9519311479717606 -0.2250489168176705
Ni 5.309873353672626 5.078722520212016 12.982028889724011 0.8776149537566885 -0.2676451542216423 1.2241510660482788
P 8.873741334126802 3.590279113784636 2.6812521243865053 0.10474288613604543 1.6841360768903446 -0.30796390844534705
P 7.363503865513965 0.7254793671270894 13.479681343019626 -0.33428352017648233 1.260693383948687 0.8048851301921299
P 4.604037441145347 2.949435212787396 12.534698795956277 -0.5639879334882932 0.08807596700332573 -0.30036295616963754
Ni 4.5692096751038775 3.1067500674543034 4.223917782628833 -0.8412898940734093 0.9808951393042784 -0.28487488783636744
Ni 1.0143621696633764 8.568940319504076 12.448794332002672 -1.4986507812979093 -0.4014523047134957 1.4194597754890392
Ni 4.23874071767705 6.115556913416153 4.462185594367483 -0.3155193521951018 -1.0956691844240807 1.4283861314443915
Ni 0.18814611365288428 2.0558693733019924 12.827203723320403 -1.3992259649406678 -0.782653058266807 -0.9492484589332748
Ni 1.4882390290326306 8.339619592714623 9.563579141586061 -0.11886775557320173 1.1838875905425417 -0.3260781015475545
Ni 5.396687297032863 3.5942551831006537 1.8932973746492576 -0.013317028823880292 1.3653393394955518 0.5340196692609771
Ni 7.053110342180393 3.4028929124449534 4.62493781672286 0.3031173789863231 1.3622020794181506 0.10348047448385404
Ni 1.1722158374618936 2.3715767088990267 1.272857769553186 1.067273149779891 0.7798384716361473 0.6013023536680353
Ni 1.2348575089523246 7.622951678265671 1.228893404978299 0.25291864664474506 -0.47125544154956256 -0.2418449053290867
Ni 2.5972372223461657 0.8679796476392007 13.400453516957192 0.09388203216214154 0.09811792462036005 1.0371891859103168
Ni 2.0833488430140927 4.2355357085321295 5.504017943861381 0.2260112807309398 0.15127034027362335 0.0833011713225017
Ni 6.485702955068938 5.0256958761563455 7.985276568616691 0.9469555491340402 2.191805538292567 -0.5740684576527468
Ni 4.482432891269959 1.21101967281938 8.381660022814401 0.30935127571117693 -0.4052320834709021 0.17580226397671658
Ni 0.09756140735953671 1.6408067542124238 3.3012736848115005 -0.8680249960754083 -1.5571279515981957 -1.228426039274549
Ni 9.089350195704945 4.869328589410546 7.1203235643960845 -1.5671519114931012 -0.5287010852615411 -4.083962372873702
Ni 7.63581816425325 1.7208019244933226 10.840851462865814 0.43369702367981433 1.0651802718066041 -0.5536148177840853
Ni 1.0983334092602925 4.789231230432272 1.2963620989374272 -0.8258092819393068 1.2296689105427145 -0.5246677957324319
Ni 1.2265059054123726 0.1523020345666202 4.597867101800256 0.02800676962557112 -0.026902480817798828 1.5301761055997003
Ni 6.598751524009624 8.549635945581919 5.519055475174084 -0.9929764959488447 0.07741565907600216 0.12046569618794094
Ni 6.300564905071489 5.872329233902219 3.7062372736360163 1.49718833781977 -1.1919186883771342 -0.11500518729400191
Ni 9.269127984031034 1.8195254960384522 8.713011518991278 -1.6994505957602282 -0.1629331213235323 -0.5654976852646003
Ni 4.699193698163956 3.821225569850499 8.273281477343717 -1.7175287934181773 -0.750275670377366 -0.3887184020865951
Ni 1.3564806385908714 1.9190944468073146 6.6719316371638175 -0.4686246887949348 -0.11632544876732225 0.33993969002099517
Ni 2.349225253818799 2.086117227724778 4.417493832064923 0.14426356993848705 -0.21714714547209055 1.3647078765591398
Ni 7.336711847038746 3.1808461629322324 7.073944759598691 0.30745560135036076 -1.6394978693556796 0.1041592457184335
P 3.7190740320025415 8.499229048131662 12.669455031183736 1.0827923284614125 -0.5805419811922324 0.10086694812040693
Ni 9.160872993985357 0.37847256251247235 1.1247510455078586 1.8648208657703431 -0.01533328792296069 -0.694336693117901
P 5.596280402767983 5.831723161518314 1.6362249846174244 0.22331779305917668 -0.784966536891332 -0.05660617852981864
Ni 1.4064880711332102 3.993812989834071 8.151917535401239 1.5909466999198536 -1.9202471650594477 -0.0017444934949324795
P 0.16350841871594643 6.112760659060729 13.078266488958471 -0.12852661881920444 -0.33047314529145666 0.35404759017728704
P 6.301837618847879 8.153078770598674 9.746644619003128 0.44700402520136556 -0.5936178405395841 0.1703582101430098
P 2.122867999253199 5.93174731648457 4.09586419696097 -0.4933936682094987 -2.1054167291836774 -0.5238856661507687
Ni 7.465924809927727 8.701841365380112 11.893302147005057 -0.1984472550697421 -0.577423747278225 -2.765784521555301
Ni 0.5872728698810137 6.78539453482295 7.827487001001073 -0.6970116688469028 0.8062683836929018 1.3051927519126423
Ni 4.323343669221371 2.7603210934739297 10.280083554119214 0.09261730651710501 -0.0003926074527283561 0.7752616508987422
Ni 3.2245086063557866 5.55259008969969 7.0839518200361065 0.14744505299026217 -0.19297569043220958 0.3571254577716623
Ni 0.03585429795600148 6.7803222594805534 10.840253194492098 -0.17668389525072153 0.004799992491804636 0.4649328417656445
Ni 3.87708562778791 4.9965349378783595 11.208287646061867 -0.5244114567472516 -0.5662016533101604 -0.8846777741407409
Ni 5.387880489295516 7.98106732327303 3.3358506240503236 0.4357096832344689 0.8681579221088468 0.03911162128948102
Ni 5.264761688722674 1.586981180340919 0.819704778011435 0.47613770934252836 -0.25497501495314157 -1.512812674620588
Ni 7.334482275459671 7.525788806825894 7.833387933780358 -0.33659854146290413 -0.8146658637279777 0.16425569678969776
Ni 8.682908586721133 5.403812636204324 4.143397734038693 0.5618135515447937 -1.403098046301564 0.5358981172306125
Ni 6.719928739332357 0.6063942331360564 7.673653993950154 0.7929647246054602 0.512311331049608 0.4472745052539329
Ni 2.2368548462334137 2.6748170234164 11.918591991628876 1.3041563402283283 0.22134498560352203 -0.4660558996264942
Ni 0.5915053399286245 3.4762458173965243 10.354171288703721 -0.4011517427539414 -0.7729049777411076 -0.49319517904544735
Ni 8.108598817596125 7.709663432928534 0.13142209672858188 0.6031347788910838 -1.3061162921681764 1.3519665177330715
Ni 8.537531229883857 1.34936458930099 5.75041718894655 -2.530420853075184 -1.863528886431797 0.5979707181916412
Ni 5.1040281576345174 7.033053487850296 11.445427666176768 -0.4407559874091248 0.9947310167461062 -0.22336278736449916
Ni 8.574690756201775 4.25428268955952 12.151870207971188 0.48389344202854734 0.7026382710050608 -0.4418075686020907
Ni 4.662015592082879 6.131256813285474 9.046755159674872 -0.12434266264484392 -0.5104807055987725 0.457071950960329
Ni 8.285580351566791 8.966658729684758 9.613329244408648 0.6595218994315609 0.1354462287571732 -0.38891894813317535
Ni 6.321039804072662 4.1702371309099675 10.58539644121697 0.3008352678203658 0.0765060027775392 -0.24840044705941736
Ni 0.17624856231404473 8.984225895751553 7.059192427650478 0.4050950436724055 0.7526819658260133 1.1002429198376924
Ni 3.1956356544067637 6.295065295176436 13.243737859652162 0.23489418504286644 0.06663708040325944 1.4005305426847041
Ni 0.07490245719902805 3.093316898690376 4.968118119114889 1.2753880098463843 3.537691654159514 0.35205087146223235
Ni 2.1687042749663514 1.7261621861646823 9.062024938027063 0.8863608182701187 0.13168856148695385 0.1956226411367534
Ni 3.097645983506413 7.7921854509990505 3.7439411870144923 -0.8190822476281184 4.534814311066248 0.38669340123676627
P 4.36460932319742 0.7155559156238894 4.331086785517868 0.14995470678599337 -0.8096365288341862 0.4818782113707314
Ni 5.6421259683627145 0.8965107319460985 11.927756459807032 -0.8470519933681669 0.3485806535254448 0.6677674272698048
P 1.178189231317499 0.7967912850956486 11.095422087788293 -0.3105329547241039 1.9866132511895076 -1.675868951785546
Ni 3.442356329394583 0.7519397368299211 10.892586813381937 -0.6984810543035777 -1.2686152098989247 0.7181088558368341
P 8.30630607737061 8.827654231611005 4.366152372527771 0.757075981128651 0.9364106837386583 -1.9161025467634552
P 6.838737034852322 6.034307609122025 5.918431200228544 -0.35812330290855743 -0.182905193570085 0.5606239021120667
P 6.312846128519562 2.488164722721496 9.025775820103933 0.44401280378352564 -0.35468908041602787 0.12036413761307015
Ni 2.488749985261003 3.842778095114892 2.996721639015105 0.0780880025526784 1.8000966861190804 -0.22885620637890264
