# total energy = -381167.1314807656 ev
CRYSTAL
PRIMVEC
9.27695509767251 0.00000000000000 0.00000000000000

0.00000000000000 9.27695509767251 0.00000000000000

0.00000000000000 0.00000000000000 13.57776151443371

PRIMCOORD
 96 1
Ni 5.285841881866518 7.751016368091551 12.032503577481108 -1.3823325316194388 0.387174711748559 -0.40678168734620906
Ni 1.308004247473191 5.5824817897866765 9.405722682576103 -1.1804546536015927 -2.141038335042029 1.7793918494715613
Ni 2.0408744027704326 5.188331809557637 2.0756592726333745 0.2330167655144955 0.5158666525010341 -0.5705033660093077
Ni 6.922213222807995 2.4780416225862183 8.10015270805257 -0.3702105730903947 0.6424189212026872 1.139490038263773
Ni 0.7034659192407078 3.124265019690619 5.204301159616861 0.340726961808981 -0.21683604198957496 0.24784817410037316
Ni 7.433289941823177 7.332755582236901 12.424995765880483 1.003235968893324 -0.012862200674648817 0.21256158298393715
Ni 6.1933228811365275 6.1307219898854255 5.548904779443725 -0.08479292537667979 1.2438914818999998 -0.44713026636658476
Ni 1.1490992880422304 2.9228623301438765 9.753897002320358 2.425115152457133 1.6222830481392898 1.6342564184510824
Ni 1.0065495999917815 8.54624621381409 1.603438151264327 0.6624205611355946 -0.4458076909004193 -0.8522384226651127
Ni 6.251628542297342 5.481446474639115 12.299781923336992 -2.2411828031741146 -1.2466219934572855 -1.4656846107845336
Ni 9.224298842969844 2.6555747073331557 12.67838372725648 0.8290966944413269 0.05319869551016644 -1.7170888776672815
Ni 2.632289550688185 1.767733021456534 4.3735192398662255 0.40165439342197273 -0.18101054765053343 0.43487536025863166
Ni 4.805740915057535 5.414977093220303 2.0504593525097095 -0.3545121885185314 0.599184021773452 -0.5988392368395234
Ni 4.328849774622719 1.7203556130956306 13.193619305125821 0.380386485182132 -0.6584415218831886 -2.267652824440185
Ni 0.548161345982621 0.8262677535261567 11.071293238872181 0.5329786295909724 0.5067384649475208 -0.3581400150791058
Ni 6.989267052381641 2.9735423344273335 12.236495465123314 -1.6711792596193606 -1.0349127311713144 -0.21725076092949036
Ni 0.3387758367972339 8.361421442563985 8.338239260117724 1.5380179702416221 -1.5753704427481514 0.2266679404783322
Ni 6.450916086140876 4.11017339516644 3.1464425079278575 0.3815344827436461 0.22513684854578647 -0.521742908776153
Ni 3.65198459568631 3.846234753052466 11.314741870834066 -0.8323380841967601 -1.714319028231628 0.44535646229561365
Ni 5.714780442740435 3.565755300461208 9.953965665761306 0.589778412188836 -0.8112979756970092 0.6223041527306832
Ni 4.211746773694643 8.67337760292273 4.986215722183803 -0.400755021536155 -0.5803463202416586 0.5280937906948454
Ni 8.22381637144253 6.1531258358207275 9.21012087288996 1.2276523943333177 0.6054469719640282 -0.21479638585172686
Ni 7.573557498983322 1.2587436172800448 4.017564338098809 -0.7589490297816478 2.2322240513189295 -1.784733573399449
Ni 9.06099660694537 4.9713345589271505 2.965668055160301 -1.0609680334974696 1.291483629856666 1.3081862873233276
P 5.301594151182519 1.4250794175367512 11.147137910850917 0.22631569934523602 0.35067713104315734 -0.4402379101221257
Ni 0.14848601145169082 3.794385852459341 1.02720473994 -0.280491156946375 0.5997044130532962 0.20895535368991755
P 1.7664991864629958 8.804238327876499 5.434716597725947 0.7928837348558797 0.41701467792812696 0.10039412224904647
Ni 3.3134035749406876 9.233547966943963 11.500459085139646 1.0454902495768446 -0.22066338615546513 -0.031169740734585033
P 8.773513053450944 8.346958669970556 11.151442417896044 -0.30404863255134085 -1.293105224620489 -0.9660382767971041
P 7.7262468986723984 6.785944033183302 3.770408634983408 3.993901257119548 -2.559963085508675 0.6889574310838587
P 2.2310798078269443 6.663710876229461 8.06809619060767 0.985017389002768 2.3396408847427126 -1.6412284788935414
Ni 8.300629557506419 4.994731039030186 13.021629200894967 -0.06543483256504214 -0.31796704240464596 -0.5625722840876892
Ni 2.723565509345504 4.200503104430219 8.23128710317408 0.2228277407966356 1.652007057566284 -1.0256228212289562
Ni 0.5934505118093479 0.6170909758246388 3.9588133831057406 0.379108904021289 1.6425708518540485 -0.6049255522429194
Ni 8.907203249630497 8.758066923644618 13.392397544148713 -0.053112563554263366 0.3981594928948369 -0.3362270170560983
Ni 1.7673897741275044 7.75211104876251 10.192159830502586 -0.27315399985501343 0.0007592467635277248 0.7143463034706085
Ni 8.008665234824932 4.184184940869061 10.616872738447505 0.4723152502726446 0.10129966478245135 -0.666555923460207
Ni 5.036820583133067 1.5217823947746711 4.255623059299446 0.33210476735760874 0.48311414066036146 -2.5242563761356847
Ni 0.2821984723228571 5.887832758300313 11.439087390404664 -0.3575828570240551 1.1520951286222931 -1.5560455171672942
Ni 1.0968143705716895 2.882785885240978 2.9516283117075126 0.04914278027323795 -0.40417098919623945 -0.5284480887104706
Ni 3.2379819321025938 6.133430860698307 11.69494673254967 0.34440595332246493 1.3343554895195278 -0.7162334931909924
Ni 7.959859175418878 8.756443456547856 2.086277675141675 -0.23587248979573572 -0.2679639710136417 0.7040513493025036
Ni 7.352682481230287 6.427862853366871 1.4026236206543539 0.02465636509609947 0.01855616573563256 0.18993278984082773
Ni 1.329443290105274 7.28482155658568 12.861222302475632 1.5182109628180238 1.279380933055861 0.43414285296798133
Ni 0.5813357364855759 7.013823151839506 5.9724228156054275 -0.4853723405669189 2.2108512420701087 0.1808285135467144
Ni 3.5046572758939645 8.937845031462507 7.434585004718651 -0.40683979427765415 -0.8460068399331042 -0.1999292389319073
Ni 4.143171523527461 5.323292948550083 9.612457765764093 0.24169860955920955 1.2358706684780523 0.16199749688314036
Ni 0.5546079018999877 7.7050397799112815 3.662098331851389 -0.525483863875824 -2.0995155332078936 0.5994367612142063
Ni 8.935247484107688 4.088474597798876 8.176460300077755 -0.005785496333525521 -0.5220601829062557 -0.0158909601986436
Ni 7.491048262648513 7.372841304094639 7.2263832349706725 1.28228190875274 -2.396134963174699 0.2087434947894276
Ni 2.904781545163379 7.719047981717618 2.8827756805906555 0.37221731910777833 -0.12605835978437 0.16199209756650165
Ni 6.087816073756744 7.684008923292097 3.472444905607776 -3.603969037230509 2.381450364579331 -1.09537170778832
Ni 7.784320635962247 0.17491976656889432 7.871096343827344 -1.6853856330267298 1.8809532525558317 0.9529691023179718
Ni 1.9976252393127214 5.67759840774719 4.414116121935571 -0.488867498204371 -0.29702643559723685 -0.4572467859752964
Ni 8.204010072862046 4.991113026643118 5.547547560950833 0.3117431729821211 0.6831932749065718 -1.6025017517473046
Ni 2.327671461606801 3.1438301174452983 0.727103600169547 0.39378476086590886 -1.3125687326617395 -0.3733750868613053
P 1.9442085333518675 2.444115798741334 11.699820844621888 0.8496027848144786 0.15023675680278642 1.4317337077603858
Ni 7.884298378258205 2.7776408790999008 6.0987369049927835 2.820825412480529 0.8950061526499425 -0.16065846635674266
P 4.14969322277902 6.574615001959221 -0.006704455261880741 0.8192218585297762 -0.4127828992349666 0.4236483811945607
Ni 5.989192766867227 3.6493221096476223 5.290438612989061 -1.921274063662065 0.1488992689382855 1.5858746847135847
P 6.300434601703395 5.7169976349468685 9.966021996269594 -0.3394671212599509 -0.08438951929067402 0.7170333633844683
P 5.922862539770994 8.473162363595332 6.594433360580994 -2.3234822727049793 0.5747742254705197 -0.23639159552399933
P 4.800898344631768 3.835733240175132 7.411841622236256 0.3262094849190963 -0.18414112285971515 -0.2392846008010782
Ni 8.172013855623597 8.894818514920921 5.310737517871476 -0.40659733924954494 -2.4076745883831827 0.4410745470908081
Ni 4.945730163572521 6.499963346372733 7.696716496030058 1.7630985116281763 1.1686481478849682 0.713345630120236
Ni 0.2881793251073244 0.8467651852421184 6.709762607743923 1.2928262599274896 0.39642245559907213 -1.3120072037313146
Ni 4.4423162092540505 4.446917578854014 13.538616267837844 -1.4472875963345848 -0.5179510458338886 -0.7234590644051541
Ni 6.622446981107218 7.893992796064578 9.728221174413472 0.6945889183380232 0.09358069887163883 0.46064475591325177
Ni 0.9493664503664418 5.024500787107361 6.551772356060052 2.1359439512382568 -1.7944615993204904 1.253079833267487
Ni 6.582240658836578 4.008544354909206 0.6649155334087644 0.1642019607336269 -0.3870410143841721 1.5844014426021682
Ni 6.89427103483403 4.983979048372209 7.535073907226217 -1.3291765164217495 -0.8773956386570309 0.5040532048058738
Ni 6.693935195093731 1.5988646125288806 1.3915172503215414 -1.2959169830376713 -0.6397799409179433 -0.7251858172882736
Ni 7.436805907707019 1.0599663059526356 10.267123191771653 0.15748443950413524 0.4027977629977967 -0.97509987277874
Ni 5.546412989374068 0.5324202090124269 8.627146826179882 -0.9836827293517446 -0.18610364590272466 0.2234751445726474
Ni 3.9044940294390873 2.402156132006193 8.943684874533425 0.5920201570351611 -0.31389312944558845 -0.0057746977002481195
Ni 1.738464228940644 2.4321114191801416 7.452588790973988 -0.22103876721701288 -0.9943456083822296 -0.626066962207225
Ni 4.259949831036185 7.793616144710558 9.692158867869251 -1.091362843739243 0.5134834969808382 -0.06911022453410033
Ni 5.904048875358245 8.597807528807216 0.6332393711122489 0.16205766069711444 -0.4772862211246748 0.5430984916337936
Ni 3.43033031372683 8.498386403801577 0.43078003640938584 0.5888638707943664 -0.5552996616856759 1.0892869350468208
Ni 4.225894129823559 1.7104292714182923 6.39899482530001 -0.5716883874563445 0.20270217369135413 1.4463979946407801
Ni 3.183860177574003 3.7576398343435122 5.72768375922549 -0.08608490471522594 -0.30035318597762467 -0.9172783337845816
Ni 3.3515967980113435 5.932761050583816 6.357542607994541 -1.056292225288355 0.9403195318747611 -0.3205466302063641
Ni 4.358443260557961 6.153162943640082 4.172867055965928 -0.8504893011844902 -0.5735753200664122 0.2007818167401897
Ni 7.016467083968517 0.5431443688058878 12.463963614680166 -0.60069171666723 0.2230658249493707 0.47994191357996696
Ni 2.0809508476733316 0.7710281259395109 13.236402765450633 -2.6276257789629716 1.4690573839115086 -0.20806960865085455
Ni 8.975945484984775 1.4055885354207813 0.992903199424151 1.3450921592107414 0.04592221645341123 1.1396376195852307
Ni 2.5032285549731093 0.6716162778887097 9.489307117976713 -0.3962000551756209 -0.16147479161045095 -0.8512904569295469
Ni 6.457576939715016 1.253316598699444 6.0803119449877725 -1.5317923010468844 -2.196766996062901 0.27064537450054676
P 8.990148502842723 2.0096852806029455 8.78415928682376 -1.963958232794153 -2.3208417497583387 -1.4992663033947211
Ni 2.509379176031124 0.947640936766456 2.038008751420779 0.6151572572732567 0.11950436071593613 0.5314688778146655
P 4.148041924817743 3.7363028382146544 3.6042027120944424 0.26733276518754606 0.20447417799011236 0.516352333888201
Ni 1.7692915498694246 4.896413871650344 12.93074009125442 -0.46280268279651915 -0.9985246794605834 0.467699091656872
P 4.884789847237535 0.49144482718566473 2.167797988090687 -0.6790376008669854 -0.8394561832987801 0.5563417297969451
P 0.20830845472862172 6.138959925782133 0.7405895094184691 1.0367140460461113 0.27605137600746654 1.3101675794194145
P 8.027729377018325 2.83475909004137 2.421919756594418 1.100608530707227 0.7007554521600512 0.9161380495325513
Ni 4.3401212747516595 2.498886940108629 1.6161336639609976 1.0294524793876914 1.8932053304503071 2.9438470423211043
