# total energy = -340889.9402212285 ev
CRYSTAL
PRIMVEC
9.06016842169530 0.00000000000000 0.00000000000000
0.00000000000000 9.06016842169530 0.00000000000000
0.00000000000000 0.00000000000000 13.26047230101319
PRIMCOORD
 96 1
Ni 6.432130652499796 2.284639244052352 11.336629935274578 1.3121308737933723 -0.33837903040209466 0.13506364860677383
Ni 4.7082161705067325 0.7354700420087107 5.845481124582983 -0.8412400146720803 -1.2828100133420681 0.555587882350056
Ni 2.7975444373005587 1.724177226876642 4.618701706722446 -0.4212181744865133 0.048871014669090024 1.2451942598718233
Ni 3.45245871003813 4.415056301613191 4.804679783453221 -0.9477294511855872 0.4344814672543227 -0.365172496445855
Ni 3.7479198617050726 2.868186570309272 2.803158117640715 -0.0769106944151256 0.19580287546835956 -1.1186679593120994
Ni 5.249914578927659 4.671404706300704 2.800094874704939 0.3879712395079254 -0.8886496143042953 -0.9098342188017106
Ni 5.3571597922692185 4.739963000577597 11.509201680825027 0.27004219369890914 1.0287724226015316 -1.191520424497451
Ni 5.849788328639972 7.752931061906395 12.147879225774357 -1.0015015027007204 -0.2552992310617797 -0.306098315991518
Ni 1.6275686512357659 6.616939967507073 0.06643730885463565 1.642971172616261 0.2822402784269978 -0.23323582350383704
Ni 3.0231698109463188 1.7076967805584622 0.18393591477359178 -0.7032982731865629 -0.22463239810554214 1.283851310122389
Ni 7.858889731335266 8.829641474469623 6.649304701062765 0.23705082637455308 0.2384973290130925 0.6732179088614149
Ni 8.843775337172405 2.4399758312569677 1.2516278357122377 -0.7671657612644852 0.30673080736919434 -0.5368404265392238
Ni 6.8596075179117655 0.7826046620888095 4.576693329922625 -0.2767712848926266 0.39863257587651346 -0.15177556204481604
Ni 0.7949582017011451 7.397219790384644 2.094411948342342 0.1072445695119766 0.34543465169729537 0.7708568369628273
Ni 7.820701121532555 4.0480741806028115 3.50144069845483 -0.22424133331471055 -1.7273930878067671 0.5004498037253317
Ni 7.649246494745729 4.000318032970526 12.475717795232752 0.9369071637591025 -0.315221875559341 0.12674047345305917
Ni 8.612288034572352 7.517638488578667 9.0474080580459 -0.8192683954969955 -0.46567460502767544 -0.640155064869175
Ni 6.827181175210959 0.4420682666189107 0.07904815724950907 0.26707745464363036 1.5216174173964117 0.2985115047831956
Ni 1.9804803307221586 6.723125141145924 8.991090957293192 0.9445348555076895 0.2805073548962911 -0.0866016964506444
Ni -0.042712351884439836 5.104788801508963 1.0439289112611734 0.3117840535223856 -0.8780073040991008 0.8480313265623007
Ni 6.667939655426279 2.021957781653785 7.042013170242729 0.271329545051765 0.726768074173729 -1.2773993838494582
Ni 3.4992997806620942 4.494758603021125 0.3031677309073186 -2.9950639315145517 1.8862029309905453 0.3422454553360364
Ni 6.314928314087496 5.787409069211347 4.676742957521523 -1.1861180225349572 0.8473289011786376 -1.3175939537904728
Ni 5.48770775873357 2.8923500394299904 9.234447080496226 0.4295156386086152 0.21456910033226914 -0.5182330958506817
P 0.22336304959647466 5.564257121538574 12.175195633498006 0.04451787990671688 0.8133440595927605 -0.5554151042176176
P 4.031186026706666 6.298031100022952 12.532300358919557 1.1208621387499405 0.7361772833027709 0.4494000362373679
P 2.4450495255605302 8.858842397220307 1.4059279396519828 -0.6144566316618062 -1.4789203927485175 -1.0355567925132165
P 6.00940131532902 8.031350036814406 5.717200012252116 2.021882615914763 -1.4499723422555997 -1.2013865186582535
P 4.896341507148123 1.3887244918955453 12.561419740154648 0.6847765602332916 -1.1312098005328517 0.13703517051084788
P 4.0312222673802625 6.245436822465482 8.222248691002799 -1.2172581955831876 -0.19791709359788495 -2.184275291353793
P 4.837640676089581 1.092538526756665 3.476431915622465 0.21511828796751986 0.11419374713630011 0.6610277945531261
P 0.2235832116885757 5.746737973267251 3.409798001113566 0.4980355378568842 -0.48424516894101116 0.10631177328506206
Ni 0.7352607521186888 0.1463434640515508 4.291778214272373 0.3735704907015631 -1.3745279479733554 1.9163156912155253
Ni 1.7338172460534116 6.62533874361315 4.705929384002769 -0.015259497262231784 -0.39195619229760237 -1.2342233626826162
Ni 5.864248357405127 5.399923787113533 8.924390903554979 1.2544499741421362 0.051701799249665795 0.09308216196866549
Ni 9.059679150125802 2.2347811373514475 10.064022373617108 -0.7428482675650432 0.7425950139036566 1.3839494983975713
Ni 2.318796078917409 5.411212756938961 6.951417828368414 0.17532763833314322 -0.6888157632996718 -0.4897612136632339
Ni 1.0405240999767467 0.23958256306475717 9.13551094759359 0.8530030687452793 -0.15260088615958878 -0.23885316969061443
Ni 1.8730539140126146 1.2034802888051062 11.363230589694686 -0.6703197613780133 0.08308956953232786 -0.005219596527726494
Ni 4.170866642917431 6.749309027819669 1.5058724692974514 0.007807154749244619 0.7556150803124084 -0.4847604180145329
Ni 5.5841351310064615 7.814078138432726 7.842256168171138 0.24017703070836052 -0.23473194843338926 -0.3878686524917901
Ni 5.168481785355475 2.791012055884722 4.884853213617913 1.0202448447464945 1.044791423737607 -0.14519713749634997
Ni 0.842033930686649 7.5864142268971415 6.670853405583468 -0.1311972236728321 0.28225879036975904 0.8342039337609053
Ni 4.958829488597539 5.078912960560792 6.477886314949535 -0.5027010616533536 -0.5197130228303178 1.3295063889573426
Ni 1.0823548974759425 7.617091957096899 11.013419299834505 -0.1972252097371829 -0.16252920101689428 1.0787883495083421
Ni 5.053798173758156 0.4385873499199306 10.47773593721382 -0.6265336174309984 -0.4381074940426842 0.24058429344910823
Ni 8.286004190011264 7.374433466860606 4.599686225286163 -0.6792368613619851 -0.2602635170455905 0.2896555970544624
Ni 7.191680810079952 5.920548243837875 6.72142817160475 1.7516589023326674 1.4592118585759968 2.389880497624555
Ni 2.4570542486894964 5.287206232058845 2.4165888185680626 -0.81403080124714 0.13631860405979748 0.38857390608893083
Ni 2.688523430952752 5.4033032299264425 11.232415348262556 -1.9003661098648044 0.030396352903670234 0.40752705015266594
Ni 1.2345113655724322 3.4921150671215133 3.6159720992230415 -0.4616531425731082 0.44316099730619163 0.4421215002980837
Ni 1.4859310386507696 1.3676414800305616 2.494480898329831 1.3244569994588933 0.0297314656261617 -1.146755975797567
Ni 1.2863174084791686 3.4384154490193404 8.328239977037905 1.7108251561457568 0.11425571072248711 -1.1044371604246979
Ni 3.7337497583286936 2.947644247170426 7.190928816102818 0.07834048488311669 0.23947409110406498 -0.46299808663677683
Ni 3.7790777808299882 7.174276226585052 5.700955130312316 1.7988383882319472 -0.23069531647017044 0.5065636299325534
Ni 0.5653073952356121 -0.059404806143161584 0.015083368351020391 0.7287766199633255 1.1585007750383212 0.39675978433383285
P 0.26567222398714924 5.731236025136187 7.776736654375344 -0.35400465275449355 0.19318677800175119 0.00819127756154073
P 8.715573954323451 1.591137714102505 8.03733155999157 0.32702118218711423 -0.5140113444598502 -1.597907961729035
P 1.9779525437387764 3.374088253384883 10.309831990422648 -0.16258396551422968 -0.30383368832705737 1.4260780521365053
P 4.117946199297591 6.266719158035249 3.648552464786635 -0.7525526393370007 0.3271911321060752 0.949614841133758
P 7.210417238329539 4.216185605250327 10.276322051581296 -0.39765144291016674 -1.4112291600491307 -1.4224150014626211
P 6.579503351681499 7.875841306410204 9.712752396644653 0.16373684817175027 -2.565635453303104 2.8710902221733523
P 2.458757560348549 8.856042805184948 5.813736106545799 -0.6781084041844967 0.07288511819550027 -1.259094414892683
P 7.06125968597319 3.9646662703195976 1.4036212207775418 -0.688702120539943 0.5481062292610303 0.1544266265144179
Ni 5.186348437438736 3.3698118539004516 0.259604629210192 3.272761070655557 -1.9869567505718555 0.4063266020866615
Ni 1.7768530459497034 1.4154972895152385 7.0196698889534135 -0.8494192080487629 0.06335583854882637 0.34269308439641627
Ni 6.99138766727841 0.6801459357125574 9.085810487822831 0.7143961828719373 1.782304395132666 -0.720421563130411
Ni 3.3043883778896883 1.8564919261788415 9.451600290671875 -0.4188473602614916 -1.3855430681369365 -1.2362352509063226
Ni 6.215166799843691 1.955891033686677 1.8554717512170893 0.8355105683874708 0.36219361632318914 1.7840509455101274
Ni 4.415907957442718 6.9364196256003465 10.253699717105283 0.4865879581415749 0.5787959450354032 0.3395259995223443
Ni 8.084379202455036 7.260510909408822 0.0913609261040482 0.5404952496829918 -0.5256849241430367 -0.06483293731498513
Ni 8.162758719276683 3.738134879833916 8.114016825322562 -2.506609609588199 1.0688338093987915 -0.19596022698183024
Ni 3.275758245748155 8.365960176134376 12.457192468906866 0.3311280052666362 0.42608990075651776 0.6892649350219484
Ni 0.42622837420655546 5.197836730968946 9.97903618199875 -0.6848313247306269 -0.938163661874023 0.39742158628754787
Ni 8.744484951685362 2.2905011730066462 5.536989638724283 -0.16231862766798497 0.25565430040835324 0.6415378041493145
Ni 3.8866401000655206 3.113726194096516 11.507557260260569 -1.350361892250113 -1.447821614461184 -0.6034474250354963
Ni 1.220649307921627 3.49610154121717 12.447234437819287 -0.24001145166477372 -0.15639429176375003 0.16739347108773106
Ni 3.300610287667214 8.52606241191698 7.868844138355487 -0.3009162575699463 0.5474097174146378 0.4929234134412994
Ni 5.779961610787189 7.9380121819656475 3.334133816761166 -0.9380294502890039 -0.010336091818685425 1.284729598962284
Ni 3.1143694660528607 8.540395598324546 3.588734514964469 0.5093208809627163 -0.5219701942956106 -0.5972338400256166
Ni 3.5803792276667084 4.4257110596506735 9.321926630458048 0.4281143873857143 -0.2109808687603786 -1.0285767616509576
Ni 7.3442902865964035 6.176615783305013 11.063901652138115 0.7800940392903791 0.9285981296727749 -0.05127936700026653
Ni 7.988649463148884 8.903989216353617 2.5784586932053557 -0.23579741358342618 -0.21243508470840186 -1.1399111849615915
Ni 4.605401379512391 0.1510810261075026 1.5179659820767295 -0.10272405593380374 0.3657977887346797 -1.260917841254667
Ni 6.155723034976413 5.7450165412714 0.23261166949839776 -0.15661309264277545 -0.06964527110196393 0.9439859249827548
Ni 7.972123715988709 8.807589024585925 11.378679082832194 0.3632066309687358 0.24572392866851878 -1.2015351284209759
Ni 9.079285354541714 4.80759715767777 5.572686702217208 0.043152624128074066 0.4569552228768066 0.38996153046507676
Ni 7.267605021265411 6.099559051069652 2.5271409933753373 0.39620545449225963 1.1962036889057335 -1.1102614804159587
P 8.628560097017349 1.7033660200636351 3.442803288575082 -1.090695128248257 1.142531139082942 -0.4687959242654765
P 2.077315410573015 3.270575829423802 1.461927028493878 -1.4451142428323498 0.5792962817105894 -0.24593835867216998
P 4.980954419828433 1.0807784281744783 7.9725142092467145 -0.7984154633073863 0.7190493653732326 1.354132672146455
P 8.570094830337187 1.75379491737369 12.214883701170786 0.1455820316395944 -0.3728819492749707 0.801058300246872
P 6.347898266892254 7.793420954482506 1.2737056540674554 0.2766517285956268 -0.8270498392146273 -0.24911238552477744
P 1.6822648878618534 3.3983785648631897 5.983920497723055 1.6480251901004004 -0.18520170291374555 -0.674429926891645
P 6.896518643970184 3.963832734826869 5.801165122891882 0.3382455901480239 -0.6536410151707517 0.1590849512220357
P 2.970195006316083 8.586937683391335 10.300442937910537 -1.4735434447073203 1.020253329386927 -0.9763849101387507
