# total energy = -381165.42907822254 ev
CRYSTAL
PRIMVEC
9.21591318509142 0.00000000000000 0.00000000000000

0.00000000000000 9.21591318509142 0.00000000000000

0.00000000000000 0.00000000000000 13.48842050515933

PRIMCOORD
 96 1
Ni 6.906847707891459 6.406939712851291 2.9451026517550525 -2.9095768082843247 0.8809779566916505 -0.6722321479093777
Ni 6.137927206855742 4.64731775987945 7.269246905416781 -1.028095708249481 0.2925475738902768 -2.3579376261693716
Ni 6.68064311866019 7.7611259968864355 5.34784881232004 -1.333602413403587 -0.9435547509826072 -0.10902685822337997
Ni 4.371024682464358 3.9837443625105746 0.3551167829231402 1.4024041055583332 -0.2559288942259786 0.4719365267769872
Ni 2.555793909308306 8.860427769845222 1.4455537689851434 0.9428456407307245 -1.0104584547836921 -0.7192663664800452
Ni 5.176495495208823 3.820751721844687 11.062743485595444 1.5765387520246397 -0.6648016597732614 1.5557796651004174
Ni 1.9248909241954846 6.474381765570558 1.1073629322254641 0.35541824527256854 1.3063055253608469 -0.7075058835100073
Ni 0.233059385461467 0.8849691230979693 11.094860021468822 -0.6776468911670458 -0.10124181496132241 -1.478984927437866
Ni 3.227154753322136 3.212999110663377 11.994901770587884 -1.7510888887618101 -0.3491681505977987 0.1662166771708105
Ni 5.108463624045441 4.683149230359433 9.098991820254655 -2.1480916423443843 0.32399345110438393 0.13686162104746108
Ni 4.134111202107127 6.682818074172864 2.498581520229157 -1.3511645906570666 -0.2836181326111309 -1.024750445926332
Ni 8.994325772572504 1.3483249632467522 6.502483849658678 0.28911617961122466 -0.17980829981231614 -0.17287197770379906
Ni 0.19708506832705033 3.958428248979579 11.530454766317488 0.6168811819428989 -1.2316712856847238 -0.6444200107931161
Ni 5.345072979267424 4.648423669462166 5.227626303174355 1.8351981578079042 0.7207115835670039 0.7056089235976106
Ni 0.6848575488795541 6.006563580255518 12.230922228957072 0.6469373778983311 1.4918188459777406 -0.4747580553861823
Ni 6.799003091750318 0.38104298990726754 11.324392476952745 0.3891251506067105 -0.392897216054633 -1.4157555871645746
Ni 5.978150919892919 6.6867071895387475 9.869005328594621 -0.9179344793113416 0.21908524303506785 2.2694734225886912
Ni 1.9632659867157127 6.934172890497722 8.851385115823884 -1.9350551766065576 0.009461659633532092 -1.198088564633272
Ni 8.873892219014783 3.516469916073703 5.83428129909482 -0.33000314763357363 0.9376399281600691 -0.41149323388926556
Ni 1.970804603704557 2.2717133852482583 4.983121675123101 0.3324395249892081 -0.6474989068287558 0.6298657671280249
Ni 3.8111763880410083 2.5282014652195537 2.9408402919050034 1.6105799007697488 0.44674100134796607 3.106772964555785
Ni 2.965846750752839 4.737937834269797 2.186256987017874 -0.8077722219319379 0.8854293075947847 0.4912303420095927
Ni 9.096650056713255 5.9161831196080925 9.822497222684841 0.3556056786930263 -0.5684685949674662 -0.16269118051605527
Ni 5.424210025823908 1.8109269416966511 12.572947807194819 -1.078498329071749 0.47529001663025244 0.9382065992968165
P 2.030044493685351 6.226510564431254 3.795183092292304 0.8425993569134521 -0.7120217691024898 -1.0360681849319964
Ni 8.732372656079955 8.186689220228553 6.715776944511743 0.44864258924605316 0.3141993478320975 0.01025715895163395
P 3.956290157119662 0.8583176237458443 4.220823729305213 0.30972717099335695 0.8001561001475768 -0.5584821731787156
Ni 1.9077954052293407 2.3145305179257276 10.068256136521159 -0.16667664752636457 0.12123137070937187 0.3948499689056296
P 3.7173123122080294 2.9566492693899216 9.06398886037039 -0.011513914176870492 0.6899542477794892 0.5179975828011079
P 0.22567098785760847 6.1074041023727945 7.564090694490607 1.5547543091596967 -0.23220198292268396 1.6740648086972718
P 3.7457157566574395 7.478437075717972 9.844604355243323 0.8140174315107013 -0.3220874923309227 1.4793335690265361
Ni 7.3599112161904365 4.411731371021478 1.6534103966478426 -0.01963628617368876 -0.8075212822633963 1.6718050661288175
Ni 4.505254458066453 1.0468447950853144 1.3681705107085822 1.3415985442351863 -0.39856778407684906 -0.6854123940450777
Ni 1.149067704180985 3.9363837846307828 3.658437372389531 -0.4775194201814035 0.5678697850412027 -0.9711442305651017
Ni 2.5631574239465533 0.03993439503185714 10.478182719954999 -2.199410604333335 -1.7093827672722752 0.23689038953728883
Ni 0.30502276519140326 4.826465896366174 0.791774122562533 1.2653931034172012 -1.5773417075419094 0.31950893297046906
Ni 4.156782348552795 5.879752614770806 12.167931462308236 1.0843578731763197 0.15274435371598855 0.9361713140343426
Ni 2.5868699685826115 7.821665330626921 12.338060906147913 -0.7991394859576043 -1.9702286391838968 0.48527952374279654
Ni 6.846815249376386 7.278977066562039 7.9890023527702425 -0.4763955909896053 0.9502984974643439 -1.2390904609669304
Ni 2.4822601379709135 2.812881023636905 1.3814165427355571 -2.8111603785869392 -1.1646058594947943 -4.477322901717999
Ni 0.45959482597623147 0.30897823513224904 0.43555880278722875 -0.9790413739249914 -1.2342462455007517 2.083696821008082
Ni 2.4668972106843574 8.533576192673653 3.839290452816275 0.3712631827246251 -0.3964587081536462 0.9324380722441553
Ni 2.599726167481679 7.138941265650688 6.567363878511321 1.0738428325776086 0.4116495569614717 1.3016775396705325
Ni 0.5017373538082439 0.03104933312605693 8.728572935072009 0.24475128034260427 -0.43431305999725844 -0.3455364673824823
Ni 7.8009663896037615 5.955636443971469 6.369839211125142 0.0721423264922048 -1.674916872284922 -1.9780039122539417
Ni 6.277041416448164 2.378415228153927 9.121328429051552 -0.9818474759152187 -1.3121984938065143 -1.156415610374518
Ni 2.8497999718732245 0.7408009067125373 12.817695735354269 1.9415662382521983 1.195081402375832 0.22305142677166748
Ni 4.15476406356434 6.928459024320358 4.7315088132289445 0.341678784199289 -1.684900208749879 -0.09409311973168312
Ni 8.488491945351617 2.3297552065144442 3.714602833730376 1.5869712602118733 1.1034411150600159 -0.6031635752464902
Ni 4.498416250479996 1.6190977086614562 7.619460822523216 -0.8239760853853099 -0.17517954279105313 0.01765062320222767
Ni 4.984223898340542 8.396148495194872 12.190416447307477 -1.022149260858059 -0.013014152871480814 0.6500353000973643
Ni 0.8221009280945492 6.686163450660579 5.515104734427296 -1.5240409392362397 0.3232385752162304 -1.51186882265008
Ni 3.3896405187626124 4.367227726230368 4.46677156936191 -2.140302999537901 0.1165139106290445 0.4350270553451475
Ni 2.852758280006989 9.04422994249254 8.200393283141038 0.7498550379001796 0.043082947232403225 1.1923663174375143
Ni 7.705203835653788 2.560106956680896 10.753414124170684 0.47703193902202357 0.9304763205320944 0.517030076681516
Ni 1.8216911283017487 4.30215416320075 8.722867363216515 -0.5823319832131197 1.1232458084907688 0.09926720773345485
P 7.109312104747102 9.329637558051846 9.097575334397462 1.4412683867236984 -0.13401412429633694 0.44746630954976485
Ni 6.251282939084082 2.5046271592813345 3.5726510444669697 -1.3610340272519785 0.2290690937206571 -1.702509951411842
P 0.2995992002795026 8.225432919276354 12.298228807752457 0.34496285426719947 -0.7884339266146421 0.7522243094633045
Ni 5.539307565645025 2.2904954163280435 5.772477542064764 -0.142032109504807 -0.036598882169956326 -0.4260019690284018
P 7.243385209824979 2.7657416276736564 7.125838080278147 0.21913923620145487 -0.7937157438388717 0.37648766434835806
P 7.196043063771565 4.974187768877398 10.77817912609296 -0.20410548179678395 0.04481972741785185 -0.17972371051830982
P 7.308569363812869 4.221855911582414 4.369155695269569 0.5794207231035956 1.046151023089295 -0.7584463791136165
Ni 7.111643730783993 8.978732447456213 0.16651588427815572 -0.7585039718244292 -2.176690794138316 -1.4660836459951654
Ni 1.0697094757079577 1.9456543766109684 12.712040820186903 0.2280977309463233 4.248656442752399 0.39149622194204836
Ni 2.175379444680548 2.4091963782061754 7.411495447084883 -0.11521524642227898 -0.5298321135421907 -0.3011779958717652
Ni 1.6976172890342576 4.5615176080871045 6.128436659453405 -1.6335005141216643 -0.16116188835572245 0.12620645532646005
Ni 5.1492993353872105 4.7170269272432845 3.008754199379563 1.4504418256928504 -0.7756416599459803 -1.6959847486988144
Ni 6.83327707290131 6.8746012276421125 12.159864773493643 0.7269354529895287 0.5332131141992817 -0.6474793664447301
Ni 7.295657869434666 0.6542588739084537 4.701901770517012 -1.6624400799741497 0.08528066364637571 -0.6425256219838804
Ni 5.452742493057968 8.404756158113674 3.0788126498532713 0.450032013394412 1.9435665565116784 1.0263188188547163
Ni 3.6142046754461865 4.961561967808063 6.996929572951551 2.2346712273078415 -0.09411985920456048 0.7697947142469
Ni 8.553086280895391 6.766904066112001 0.46388851993112445 -1.1302302102284019 1.9990309081275701 0.6433707435929952
Ni 2.5759214637137275 5.71332243848531 10.626056655033846 -0.6327155778719942 -1.0624615873238605 0.21664115236994946
Ni 0.25975696437953844 0.3871522187604518 4.476347824756908 1.9353390263955639 -1.2158008943113705 0.1465161134180896
Ni -0.004248535980265426 2.6718775518406774 1.4180378169758623 -0.27077907186493366 -0.9964009482493615 0.10139633826131568
Ni 4.149400402088169 8.889725157873993 5.914591531400301 1.4963383311146488 1.0725541956731721 1.146516348982935
Ni 8.60860294194771 8.09695387350438 10.42552391358268 -1.596291766281851 -1.034811943927392 -0.9478482361516386
Ni 4.257871700326183 1.273851168764052 10.635727834334691 1.6069063085729036 2.059138414942428 -0.26576722047263907
Ni 7.692541170931695 1.8515138233823103 12.975024275774015 1.4861148536144275 1.1445090887449194 1.303148210678788
Ni 7.530700519414469 4.713460368839027 12.86837127720825 0.23328621712579825 -0.9007530824360487 -0.4548448614020231
Ni 5.0247462686338755 8.948651706806352 8.900631269542206 0.9426972880783183 -0.7944755048230316 0.19693673196248665
Ni 7.656433223056033 4.372241183005345 8.732268516260916 2.260809576266106 -0.2929054714503278 1.325884218823723
Ni 1.6182129809952837 1.2917208244380969 2.827146335662616 -0.6680073111947528 0.34669629201853835 -0.2865818432251452
Ni 6.75512612905608 0.4750932271866704 6.873672263592631 -0.8278898186174193 0.1672695439153571 1.913247850923479
Ni 7.1727268034026475 0.6655363868781952 2.1013609163093987 0.6280873350713635 1.1439498738073397 1.6433421828024344
Ni 8.866786749945836 6.019392131415017 3.554603521668372 1.9914024450480348 -2.5391610611616593 0.7783675435175756
Ni 0.6930606332093464 7.77612028764542 2.5046916706736595 -0.1698103080593398 1.1872179404673555 -0.38639283927721196
P 4.740610449094693 6.907041242068435 6.857350881334389 1.7417426716602198 -0.6289648525803103 0.1851921898320488
Ni 5.898995441510055 5.930016205305225 0.5577627332686117 -0.8859648683832805 0.9312232260004478 1.2084922764650996
P 6.154801543905343 2.718463993012568 1.045030181778342 0.04258029656437183 -0.7916835439001914 0.003933016505819033
Ni 9.21453080231754 2.1856644037998025 8.559819427071492 -0.8236374710989686 1.942029808152178 1.3531317416857664
P 4.8466118825979745 7.924330603555677 1.0165050872748334 0.5789049598094417 1.28528907101018 -1.9720705774886425
P 8.19811695258328 8.09117549593469 3.722304572382671 -1.9810388424255234 0.090995711753282 -0.13578278616098552
P 2.3220046235222465 4.854804829423258 13.255367747035802 0.7190154268115037 -0.7051924048854823 -0.7734068570781907
Ni 1.9339133032078053 0.21374190982538382 6.382423540585126 -2.064608179807747 0.5672771457625263 -2.4574483173722
