# total energy = -340861.29068075906 ev
CRYSTAL
PRIMVEC
9.36828328307563 0.00000000000000 0.00000000000000

0.00000000000000 9.36828328307563 0.00000000000000

0.00000000000000 0.00000000000000 13.71142954536731

PRIMCOORD
 96 1
Ni 2.8062411925068598 8.410376436996643 12.687721048024104 0.9481333714922253 -0.47782615278854484 0.08347677766841752
Ni 7.455251837853097 6.991802857248001 12.914836342885826 -0.1320737127405145 0.13669629911419037 0.8013292945200715
Ni 3.4735721251012146 8.500190170108853 9.818905343266312 -0.4366041700242803 0.6520055364498577 0.5992228454311873
Ni 1.1896408379041554 3.4292695128254618 5.079330565306218 -0.38088193676131177 0.6318311183845118 -0.19571957172593388
Ni 2.594948928335295 4.501788071458849 0.055005876078892554 -0.15332465169949078 2.049348939655832 -0.8033612373484358
Ni 1.565290266331548 1.6516283662963056 2.9711435908575172 1.5185997136160105 0.11536128508184003 -0.200356556277313
Ni 3.9576781706392836 3.125090718581135 9.75561415733403 0.24639755769677565 0.03183925599778388 0.8959836860718634
Ni 9.050811027902757 0.9556585912982763 11.017380472432052 0.7428246134159593 -0.5531779873569829 2.416444621266329
Ni 2.650886948614111 -0.02421888628785711 7.448501052823301 1.2671494239866756 -0.5679996257508476 -1.1070360315001255
Ni 3.981670344468466 3.4059612236856704 12.30052333662942 0.7958453885873648 0.6395989352553887 -0.0671225046801102
Ni 9.069585067869053 7.240493308817496 2.6458945903815567 -0.9382014570904939 0.6223622596621282 0.9484169641709149
Ni 5.262127321810377 7.684709203568896 8.470153579819465 0.43987409902480373 -1.8207099914940579 2.526682469078674
Ni 7.295372713070267 3.8605852813125967 0.5030815035978148 -0.8019139633789479 0.8922206194850053 2.2185190430280115
Ni 0.00760985661907254 0.2445215654492335 7.027135338152633 -0.2312686724751372 0.46684651384858955 -0.1962682451405523
Ni 1.2456350678834693 5.934207974096804 1.4262358987548454 1.7440242686055447 -0.7935524787881301 0.5757527873337052
Ni 7.162774029595747 4.823288821739942 12.172417681881365 -0.5708224399116233 -0.08397582879202312 -1.4871425235479936
Ni 2.6098163941169865 4.05868700243399 2.4500955933238937 -2.3231534286106506 -0.7139346698544865 0.14155979785407877
Ni 4.936588841376854 -0.08143005628295018 11.850336098028462 -0.21242042942038256 0.9384148586528807 1.9955164672164085
Ni 2.9640967680717645 1.4688812616942517 11.737861424160528 0.2749532578472813 -1.6010621910873006 -0.4131695931504239
Ni 6.255259046773913 9.234476224279609 10.032282987326349 0.7896845111922915 0.9241940870678084 1.000730943083283
Ni 8.17140089532987 8.226111670481147 8.92841721555363 0.4079361126656264 -1.5207224163859683 -0.05971181403833587
Ni 5.022083795834143 5.939585368777768 12.900905705445764 -1.4126622929512316 0.3756433140701918 -1.8497878826966208
Ni 1.7350810349688381 6.6849353656631925 9.823005840917633 -0.9773382751909557 0.5905890810155894 -1.8051956979085426
Ni -0.10230540221952453 5.685348893425816 8.344570803795422 -0.983755234460893 0.258942998461954 0.5266912539203639
P 1.0498754176161547 8.696230868878658 11.503862314644497 0.3594790456055035 -0.0983261839764242 0.2624468978501544
P 5.076710256434675 7.9701139578469276 6.530768083279291 0.2009134572220475 0.6167760238236023 -2.5754503825109962
P 1.6053303096528775 1.265861191779293 5.210096812544506 -0.5319599585184709 -0.48706952576368373 0.8181985594715845
P 8.2704142827569 5.927856277940543 1.1991674453102061 -1.0020656027343064 -1.5866902386363448 -1.0255330897286274
P 2.968321863892523 1.3424375404242506 8.942539902803725 -0.9505661493034337 0.30958884564327976 2.2967389431728638
P 8.581029087708234 8.867276987493733 3.9687599130924425 -0.8195455604177821 0.7691092581441012 0.6376122438426632
P 9.135659570804322 3.5403867224263723 8.272955898047746 -0.7401810051455252 0.7781217460553567 -0.4492349714144134
P 8.583511682813558 1.1072467852576666 9.116017090965334 -0.5924490170424636 -0.7915858419800624 -4.132414811948135
Ni 6.763235478456753 4.589934250122956 3.2126288956515228 -0.6775093371479171 -0.2691785601470332 0.04792304893352392
Ni 6.396232975622619 0.2069425701813698 2.9790822742245022 0.45804074263150146 -0.8333860658453003 0.3361650534699114
Ni 1.3629728176728129 6.080072146888826 5.986053928179373 -0.3333507239495678 -2.220331413646402 1.1776650066715975
Ni 4.083222536701319 0.8222214464579959 2.551628112161572 -1.8105042546056498 1.6973317496450122 0.8723416211728912
Ni 4.373461325222169 6.704524446286707 3.552192633187612 -0.2219463666329468 0.9240321075686473 -1.0600997719599032
Ni 0.9630407986303324 2.538739227837406 9.792127041949117 2.0505527301559456 -2.507336974672527 0.16664733695032588
Ni 1.3417442874514431 0.49418912897904876 13.730351972074423 -0.7344343324697351 0.2573735970923051 -0.21486760540929445
Ni 1.6308401453955028 6.675773184482037 3.769806615008506 1.2983325344576995 -0.19182949264290833 -0.2955264540129427
Ni 4.790003310761775 3.410720311661158 1.283249662628315 0.047555381181460035 0.21120481184572656 -0.0979232921110507
Ni 6.769484123495435 8.732495493983212 5.351707784665521 -0.22846437025712268 0.9539358371066152 0.47542140000179406
Ni 3.2472531343298807 6.135373123895332 11.376044266197324 1.5503937181981557 0.5892001710878627 0.9359591980235364
Ni 8.190381037531322 4.636269779900049 6.192355707775067 0.18824588905670805 -0.48788610812770816 -0.18224184895447323
Ni 5.888275280506612 1.7740530939807078 13.486562069560003 1.504540921530099 0.5736755930897024 -0.32925829904774906
Ni 2.4304418715448066 2.354155939685755 0.7760461143273217 0.7104652232486474 0.24178191330163523 0.5718917617164022
Ni 5.9728615114725185 5.907086793606573 1.0179698547852112 1.6288637866806013 0.34638107477096475 3.342051529521264
Ni 6.873481437699946 4.133801898866003 8.987650061109962 0.9085646080606675 0.05097366283438963 -1.132580198517817
Ni 4.876079098790876 8.491262196013105 1.413963447479473 0.4236213846113673 -1.9046747645424875 -1.432489354979488
Ni 4.725708781675607 4.8511313600532295 7.446581491551297 1.804293754919564 0.2737967756453349 2.877058009721013
Ni 3.4085468699085735 2.4188064635417437 4.8654732651352655 -0.6707339660972964 0.6713240342728116 0.6256890100425161
Ni 8.687930569771803 0.2756270768764237 1.7323839061732809 1.2508853967193296 0.7023353950526614 0.9629439541424964
Ni 1.179382567563291 -0.12246875861645894 9.240337959213198 -0.5779389963517466 -0.2067264643593988 1.1637059733883441
Ni 1.8363240738489524 8.578743226554653 2.1771965605783006 0.8669507891746231 -0.2594641610727467 -0.07933627313748272
Ni 5.279749062916466 2.654231425793735 3.666477259411578 0.03942940964021596 -0.09639271439913721 -0.65946019295569
Ni 7.786270764085165 2.0936520827282883 7.141324407885753 -0.07057241090192362 1.038801010482127 0.5360958350637155
P 4.0204831426622585 1.0462311553672081 13.8998251559039 -1.0048364806112242 -0.9906951561138359 -0.48013963141306987
P 3.346200943772998 8.615776050899346 3.9594225450114013 -0.706665389886583 -0.13519066110294137 -0.39575422588745396
P 3.5349343814780765 5.693414985447263 9.189002576576819 2.370397963419911 0.6444925159022642 0.9087440710613253
P 5.220279199789699 7.49660344085271 10.739668952495498 -0.5867748494758217 -0.8989430258105033 1.3680323129466825
P 7.0147270467677245 1.2366696206540562 11.634889000161762 -1.1390763477651222 -1.41338297316734 0.7462588359084891
P 8.974787407979363 5.805656389058131 4.467321219941885 -0.00847795556402411 -0.7913585564606048 -0.037188950345471435
P 1.691199995446819 4.8317858547985395 11.590367170054066 -0.7023418228105647 -0.859804665048145 1.7055857621236883
P 0.6051864245522303 7.574341456641291 7.574577537383382 2.809810035206632 0.39388760499236036 2.319183902439941
Ni 9.336890298586765 4.254990013139452 10.616445110235684 -2.3116701105613995 2.095866623601397 0.4294012245179379
Ni 6.783939384806808 6.848664854930128 3.7983948686817324 1.039804769156293 0.607007888693245 -0.09397099233152204
Ni 2.13709281292974 4.323771949982035 8.73047850256368 -1.9106006431086189 -0.6062784667263881 -1.252527560308443
Ni 7.159673127784947 2.294583025441409 2.2732589387291933 -0.3006264942436694 0.5240877548592457 -1.2444190722686954
Ni 1.110347687068467 2.640741097674242 12.337722916418924 0.9254747535524448 1.606175858164782 0.0861682084576516
Ni 8.507787847959484 -0.25154590435478635 13.109882129956816 -2.0117457845910773 2.9267805737571204 -2.5298642092407655
Ni 8.713721454016918 7.5523540954632 6.040282236734712 -1.799563696433746 -0.9900348968220176 -2.669003313468494
Ni 9.166050282206847 7.033191933381281 10.969266842462543 -0.621828241535529 -0.3540907847103966 1.3370134959676652
Ni 5.348034480737985 5.577538687870866 5.349569005561578 -0.4552914620211385 -0.31095615830445156 -0.5622033307840446
Ni 6.838172377503855 6.425358968763942 7.018318846629539 -0.45011557424715387 0.44915989520210386 0.6029578869935873
Ni 8.26906524994495 2.6276910788753156 12.660558647086841 -0.4717074414853167 -0.742543848950747 -0.07463706788960048
Ni 8.82884828892001 1.8343661026149427 3.6648321888436732 0.5394295274226388 -0.4042296103483168 1.60665948266942
Ni 5.9903333600439455 2.9684623881437675 10.93043624453026 0.43322522624971843 -0.6486127087182249 0.43439147864367766
Ni 1.7375448935073288 8.346353588129547 5.643651600768141 0.14698868217913394 0.9440466030173612 -1.5709484024210558
Ni 5.374162623186087 5.266474205315547 10.565589383710218 -0.4953045120789664 0.44010189876489364 -1.0185250338419105
Ni 5.879825088865097 3.2278701559415253 6.144256130230683 -0.40616539391844886 -0.019944561442726945 0.34181505266683715
Ni 9.0811548978882 4.192053885148648 2.7187161310332555 0.8003041956896668 0.04317293584304823 -0.39266710232169794
Ni 4.837500507682491 0.8935871558667992 6.159695061300769 0.011304626379541821 -0.6834023055935843 -0.33217341581201504
Ni 0.257920084391247 7.670000998605282 0.41440039595063694 1.3301391374453349 -1.3440606326224336 -0.5518674960756753
Ni 1.2980787184479998 2.2077671430224193 7.489168771133523 0.2633465268462884 -0.061513386023448906 -1.640046285659982
Ni 6.479142283857005 9.549559700420527 7.895164880031383 0.8431757982422124 0.14420700566893874 -3.186785952045318
Ni 9.261363197684434 4.87075791381041 13.2525770124691 1.4590758472187644 0.2348731019969439 -0.434258295499923
Ni 3.3555973320395616 6.7450891134793505 7.296332025292099 -1.1164789220805804 1.184718056863637 -0.5530964833867701
Ni 3.6835340930276623 2.748729300614103 7.484123013685496 0.6375315112033988 -0.4266809973732974 -2.016578172982714
P 4.370594630496776 4.621252421583696 3.153779212886916 2.597054076823701 0.2543551219809555 0.4569516233323808
P 7.060416164989092 2.2557140175471186 4.719569745552895 0.3530145209270824 -0.39037907761846957 0.4302144644478526
P 7.112906656970703 8.4967145369614 1.0190265971545716 -1.5268357283725575 -0.5957932509243481 -0.669957235832272
P 7.43849197882131 6.108411204223178 10.134981857449358 -0.030902603116127424 -0.6667253591585356 -0.7741465634576925
P 3.1539918729204666 7.098732444161819 0.7432449436017786 -0.5499849343409817 -0.8154017134527376 -0.07801729721574305
P 9.628909060956714 2.482211005703362 1.1952571238122363 -0.9110840320484116 -0.353981512826042 -0.22839109381702602
P 3.306957204542055 4.647455510299129 5.999381248167423 -1.8100599679793796 -0.40817445392867774 -1.1383309849586654
P 5.735628470521178 1.9278990442434298 8.756585097959924 -0.18184718461921587 2.1614467234950516 0.1665252095501648
