# total energy = -340898.09079588036 ev
CRYSTAL
PRIMVEC
8.99418919273692 0.00000000000000 0.00000000000000

0.00000000000000 8.99418919273692 0.00000000000000

0.00000000000000 0.00000000000000 13.16390503015032

PRIMCOORD
 96 1
Ni 6.277970902717443 2.0774957629859476 11.345561412981075 1.252967990279971 -0.6165327974645446 0.7699327824866611
Ni 4.552975394915645 0.3443200402910596 6.042732386586247 -0.008758205808604272 -0.05756520000897829 -0.6969108816029804
Ni 2.634820684206754 1.651441030181468 4.798453795220325 0.9239675728792991 -1.65773007609299 0.17401894682404867
Ni 3.4314180153240676 4.308171558785767 4.967227952917801 0.4065302334570354 -0.11512294381878883 -0.350362428016216
Ni 4.891624599043876 4.426831894227808 2.376045274888392 0.6316845655043185 0.39693204824563894 0.3839528623771516
Ni 7.338763541442923 6.029956141115511 2.6085594511722903 -0.3538974377526679 -0.5037590706042228 -1.057203424248715
Ni 5.14336295489071 4.5540007324613425 11.468749423164384 -0.38658798600715355 -0.1699830861917782 -0.5034685359469975
Ni 5.535077874103307 7.736459596338756 12.124442890030311 1.1750872186420924 0.17240300848718051 1.5380611647747318
Ni 1.7429389148515118 6.460112224102781 0.3145645648311259 0.49914445465034685 0.44421360694042206 -0.18006669568002537
Ni 2.836110633967452 1.515799665912429 0.6021816400072909 -0.37755235816744653 0.18782911323426363 -0.8232788022079692
Ni 0.6132723744599233 -0.08469288127464858 4.617226283437116 0.025310710850646727 0.501584174440091 0.578047754015469
Ni 8.509968844299872 2.316471364645543 1.2616958383592909 0.9431886258924401 0.7221431738072079 0.8299780686050158
Ni 6.806127669019842 0.7909453827513792 4.83601083021656 -0.11787762374579053 0.5199678191536012 -0.6204257047610476
Ni 0.6791817914325058 7.253660525149994 2.5346173240061747 -0.13418433132561408 -0.2523573748246363 0.13513923903971564
Ni 7.622098483237448 3.840617637947513 3.79976153442705 0.4596003738091375 -0.39068658155655944 -0.010582146391220484
Ni 7.572792339153974 3.8570140444896825 12.472220296571951 0.3197472742335203 -0.12757145399478675 -0.08919953908480767
Ni 7.880258690028391 8.830440792464458 6.881075346515861 0.25127596883499953 -0.6353069927482543 0.07129463377992883
Ni 6.822533069751009 0.8387063251651081 0.28254345316275964 -0.6530931130870817 -1.0301101675763484 0.39959519690009887
Ni 1.7808674098533375 6.579150315482711 9.067442169639135 0.5950298903957624 0.05058594047766773 0.17688418418698568
Ni 0.08923224846161124 4.90471114403502 1.196429505900019 -0.16096365630198728 -0.8190002294372734 0.30929548277257696
Ni 6.269633289516899 2.069086196273425 6.9970500171232946 -0.16868210799216757 -0.20542008684314944 0.34619852644651344
Ni 3.2753958187870333 4.2227267633109395 0.42797858983101295 -0.40333563777913767 0.16883843106437374 -0.1111935268573956
Ni 5.982970497793353 5.572097956016401 4.575443778449925 -0.5907446327568472 0.2479944698702503 0.3652717410278806
Ni 5.009529422610139 2.6117056184835636 9.579833921466978 0.2080402980748159 0.298616405792176 -1.9073538540365476
P 0.20523210279823642 5.485295038002974 12.089203657538691 0.3930561102300005 0.480401883935521 1.3829686225415407
P 3.9194157277532984 6.088571270811242 12.635255262270219 -0.47103972599433075 0.09234682646453773 -0.5408253793289008
P 2.1185092648138646 8.458594036747009 1.4360634821942204 1.8154436008887957 -0.3154149654067535 -0.6277019267074867
P 6.351255554667852 7.848518197056743 5.666863429549181 -0.9439897816374968 -1.2290312769587155 0.5076388652746031
P 4.791402351046402 1.032487925950818 12.525073748795979 -0.8332888781458035 -0.0025546481010536646 1.1746956396306287
P 4.00535520362298 6.055589579757959 8.29348411164705 -0.9573839435562157 0.4840687912641469 -0.8495865868645628
P 4.706164421918514 1.03747070665535 3.813504655215001 0.5049363787417757 -0.30139705386110677 -0.3153303761127472
P 0.18850381068206476 5.445936466950569 3.79870831489546 0.5060596937129413 0.15924564516961606 -1.4461036033288126
Ni 1.3166143563771113 1.0874334265356305 2.619419934386591 0.16962827395552077 0.9524289135437854 -0.01504121060383861
Ni 1.9568297233974972 6.351435438447799 4.791082157918096 0.46283842113046103 0.8637153129564609 -0.007816924941257505
Ni 5.935139400705444 5.6210982976739645 9.115227396363158 0.5556066514031335 -0.07135865424864483 0.14103066482348614
Ni 8.582848757745401 2.368178957191309 10.267634844215646 -0.09622687824523427 0.14155825519218201 -0.5795603340052534
Ni 2.431758879213578 5.136374470039769 7.032987198681107 -0.1443173059945579 0.3018092016978609 0.5514638328793534
Ni 0.6442879357983858 9.120737236542935 9.151019771478113 -0.998649635074222 -0.4360398128803781 -0.1887390266430427
Ni 1.522392406447487 1.1910914547300917 11.475002183355343 -0.20323284938384353 -0.600827728024462 0.3089848935106937
Ni 4.145142889019796 6.912672831882453 1.593082234872161 -0.4289782780479064 0.04605128583210779 -0.15940273957277062
Ni 5.600537581626022 7.81716445421198 7.82724424182131 0.42910323366154485 0.0028068733211758113 0.5771908053318124
Ni 5.3697017210090285 2.969278596262219 4.587581436501849 -0.16244615438478474 -0.03147133113540386 0.4945383233369032
Ni 0.8309290499390994 7.464547274570864 6.852838989577581 0.18466999877999163 -0.39189679981457665 -0.1311745979650128
Ni 5.0445527945658215 4.433739431377773 7.055063435575104 0.0023314763466540495 0.22164117668770214 -0.055796538144329715
Ni 8.144355061557587 7.14610801311968 9.244035875250908 0.4741268495600867 0.11108862584841511 -1.0199026309157273
Ni 4.495007846827723 0.3037157740625221 10.49598920808827 0.3666285121660912 -0.03582755122157055 -0.7219421135399954
Ni 8.102406164073944 7.1249986515429 4.603865415681552 0.046266487166707414 0.5566250653653189 0.40830917973432906
Ni 7.322097309230832 6.119718147309066 6.7781998127641705 -0.472701944188102 -0.27310437756400063 0.5716063692654995
Ni 2.1743631784874093 5.305483211567949 2.54624141386635 0.3610307063633395 -0.8255963945975524 -0.014242883072259342
Ni 2.2972597769472025 5.283672303249374 11.165110999127238 -0.3111878146992834 -0.4476647987138161 1.1116285359668143
Ni 1.2233715990415817 3.385016994286738 4.00406453750186 -0.9790722271629266 0.3601210500648766 -0.9509739262648137
Ni 3.537036776719951 2.577006037331787 2.7824279175178668 0.26090603572559584 0.07732952712009906 -0.3144736845394068
Ni 1.16146459617282 3.231540153235954 8.256940721750818 -0.6990587811839187 -0.0239901922670103 -0.34989577279244255
Ni 3.6062290726765664 2.547514091609475 7.206000317653036 0.3071990052548645 0.07381045822324708 -0.1651884930166123
Ni 4.248306236819404 6.666546849969965 6.033952259287033 -0.06812137825826978 0.43850292970888993 -0.48548778309886065
Ni 0.7827948486819802 7.503060391857518 11.185146454537737 -0.5107308739363656 -0.7945451817187026 1.0217132017619048
P 0.16756713753403293 5.5737438926029155 7.891037326122817 0.7265145634020262 0.7212330032881127 0.7787316117252137
P 8.40821758417285 1.5780034770181033 7.924420158005381 0.34355183285228574 1.055860537067575 1.1067002454272616
P 1.7032565529952026 3.1742111925668435 10.412214633510251 0.3495191061793142 0.22465836624747115 -0.2535899616801568
P 4.000732190478342 5.996947467495235 3.628445618918921 -0.07932598872483758 0.7371244777073886 0.6889615448489167
P 6.795100793309091 3.8614391854763785 10.150226499882036 0.29077197004709276 0.45637132534887853 0.5491912347950928
P 6.252040655838082 7.680155973215345 10.017165568436337 -0.38961083199387736 0.08060177011346764 0.7323877343533515
P 2.5175814306262936 8.420917379037109 5.622987976782308 -0.7093874168034363 -0.1338277193171437 1.544991830456294
P 6.9656665934548405 3.924083711842923 1.5486014731857656 -0.28926890313900505 0.7446380124756143 -0.07821167261473627
Ni 5.292702469002713 2.9998228620972203 0.34257606704447346 0.06197952702659003 -0.6228631105579466 0.2213673542010252
Ni 1.43874644877213 1.0054334054467886 6.953503751673724 0.022651161740612602 0.06171161807718403 -0.17366439169810738
Ni 6.8426530705380815 0.7138013243022066 9.213561764090086 -0.6730366460885441 -0.21940791648180924 -0.47942229363107114
Ni 2.6810598098421314 1.4072667872814042 9.214482769043416 0.2822749883196752 0.6016677074272541 0.01064128176393006
Ni 6.409151149243796 1.9983199172422736 2.5149776129115606 -0.22373354044035662 -0.15996195451035033 0.37594336180911386
Ni 4.071867231258385 6.8275878039675195 10.428669502280902 -0.23165742327312364 -0.0061091982215314145 -0.7244368549373911
Ni 8.113163214114776 6.991983590461087 0.25695048837079965 -0.28789953359530424 -0.5015726044758652 -0.26001129182546834
Ni 7.670694086390132 3.857787544743455 8.132831706614182 0.036540261017879 -0.250583056533033 -0.6503906265542541
Ni 3.2348680031649732 8.28137253674322 12.459517803450995 -0.9463991624099379 0.3104635349387492 0.6782099627593674
Ni 0.04043787373208657 4.9010864858690875 10.009490826964898 -0.30492949249439744 -0.7894268866555307 -0.18445171212159844
Ni 8.557260290047939 2.36274646703691 5.873892571309089 0.12071072231921147 0.4622704644421329 -0.29234934183654165
Ni 3.536982811585967 2.7106327032654187 11.470131830013278 -0.049051763221328426 -0.14761628846080382 0.7918763766372878
Ni 1.0699936940697685 3.334145861317725 12.600410874675585 0.16753616731318244 0.3711474830823672 0.0043716467051344065
Ni 3.171737790592572 8.258077587240082 7.836222241278466 -0.4709574506931696 -0.2702375975391669 0.4348707322729414
Ni 5.831337465487025 7.9324339804020205 3.446099230024443 -1.0408751194023365 -0.11016508559288125 0.6071858090320059
Ni 3.1539742673228055 8.332270652279224 3.5814374901242703 0.28889429340840567 -0.2972382944977268 -0.8698731050277405
Ni 3.3345595940116035 4.137524810939041 9.241811612311864 0.0833695626665919 0.7970820892079434 -0.27189158820282205
Ni 7.1751772319591165 6.0705019451155655 11.343152769167586 0.1365014094945649 -0.16547285702625047 -0.5064417596427084
Ni 0.2507804747186174 8.930851918430875 0.432102425486298 1.0108101816961559 0.6837864284058804 -0.5216603763646758
Ni 4.7078013643160315 0.32277266171010777 1.589830835549619 0.023574701996146495 -0.0761362781429463 -0.0035046707191488027
Ni 5.8910318978624385 5.5418864751743016 0.3957200315731167 0.4751686605610398 0.7823108444360398 0.23864491033455026
Ni 7.802171141153397 8.814476106994162 11.268802305820989 0.04387947499176959 0.08179244798745913 0.4270484080150451
Ni 0.322215021992272 4.835096121195528 5.880605833976711 -0.8699371254964565 -0.834387253416305 -0.010424280657117532
Ni 7.986390120197124 8.897888215755588 2.5195979277994995 -0.4690543201331857 0.4376696351743172 0.29896247627768513
P 8.467777103713303 1.7872802666084482 3.6656338921662655 -0.11346586783134008 -0.9321048572744528 -0.01628870985769453
P 1.736607005797377 3.202389986695542 1.7516416921253477 -0.5192324836494735 0.08551411981342047 -1.165004894705426
P 4.6848751765617855 0.9005611617376851 8.284847891371795 0.5938872921508869 0.24786720026376668 -0.871981152509679
P 8.538633324634429 1.6266530453047705 12.368238477573586 -0.5046026495514406 0.1193423812167751 -0.4948993062207477
P 6.426671829410633 7.734993543532188 1.3620161230168357 -0.5706190656515656 -0.027488178117939757 -0.5716153681265639
P 1.8701347356520384 3.1501157602429424 6.092570986658363 -0.5148628938268681 0.13792940019034308 0.4930897638158346
P 6.839792918436925 3.982303097222771 5.940067316857093 0.32222684612226443 0.24720257009657426 0.03203157451424806
P 2.390520522660727 8.51900800424221 10.321475858391583 0.9822411118092115 -0.6164397235301061 -0.6553037475851553
