# total energy = -340866.408257286 ev
CRYSTAL
PRIMVEC
9.27534155570909 0.00000000000000 0.00000000000000

0.00000000000000 9.27534155570909 0.00000000000000

0.00000000000000 0.00000000000000 13.57539993267432

PRIMCOORD
 96 1
Ni 3.9982843061582627 8.038929096386772 4.227786860459845 1.1658782984493148 -1.1023543097537403 -1.0805603538071002
Ni 7.3244217240672445 8.404340445287893 7.734421494037446 0.44415035780265444 -0.8903635116716085 0.7911392413609472
Ni 4.532312085957788 5.970194056953566 7.959121276573849 1.290319948565868 1.9611325904198997 -0.401232989613838
Ni 2.1566188989833663 6.332553818541547 11.14821367056457 0.0272655205841724 -1.497268556238402 1.270895007072037
Ni 4.968679796395451 4.141282244172492 3.2537248277762005 1.0807398168077582 0.702862728311041 1.2417428109881132
Ni 6.915870762420181 5.527231578796625 0.9568238107338849 -0.6822751339676766 0.0025261088559633913 0.48306323281776803
Ni 0.3147447966274803 5.020575331401588 9.946301949412781 -1.3844161536213448 0.8142215771017074 0.39973069403669864
Ni 3.785563627010676 2.8194440691484357 12.877691968712435 -0.06568988599864171 0.10776213257834345 0.3742335782068587
Ni 7.6541137333242855 7.258696655067515 12.543126695095747 -0.09329839174452964 -0.9703047653829416 -0.26404895222995173
Ni 5.551226886939767 8.677508524191511 12.408037840673963 -0.6738552853350975 -1.0147899922795103 -0.43649232703676444
Ni 9.179527100897886 3.3393362286889157 11.937093512649906 2.2565466872246946 1.406750555452487 -0.3730508707526672
Ni -0.10022099111614148 5.194590010981594 1.156169447615368 0.1635337310220087 -0.5839777463466588 -0.8412698394687512
Ni 1.579562810534428 1.761851094623009 3.901814263095112 1.8668129564997074 1.4524375159666405 0.6225939160569599
Ni 6.324066881181294 6.608161312227402 9.543465525588287 -0.44351298132897166 -1.2398419944209744 -0.4427552772273407
Ni 2.026022092390621 1.9212571115337278 8.625836524912568 0.37871758212014134 -1.9074602977074249 -1.0002046382661678
Ni 0.6134998322545888 7.489123960904416 6.951337812778799 -1.8866929832530863 1.5275589796918272 0.14540796795557537
Ni 5.521341737022023 2.430167266883455 1.255531542119969 -0.1264820775853499 1.5053749873956204 0.8487442934689254
Ni 1.8060295456032112 6.641756598696076 5.215655238783639 0.043820596729376146 -0.22958408568386268 -1.1122080626193684
Ni 1.7415102709825339 6.443199365831665 8.64125770748651 0.9383019872241002 1.3732768491750738 0.6286550346493753
Ni 0.12411983570895878 1.440033850195318 13.270482270291145 0.0998009687497378 -0.06594751053540254 0.7126272638969727
Ni 6.714521651801196 8.354875049722615 0.943110218507509 -1.4570037951810841 1.186133449153925 0.6377623962672823
Ni 4.410554679697634 7.761429433059943 1.697386544516458 0.0527027297103544 -0.9738233200591615 1.7736431199132423
Ni 7.293599764670391 4.566037227205744 10.963791130425065 -0.7628681623303958 0.9607340909753712 0.012802551081306983
Ni 3.0671142346057856 7.932559481471601 6.965035636924833 -0.653367706904707 -1.0779658536070467 -0.8553941946852752
P 2.7784934369675427 5.446007414355384 6.889569604410636 -2.635026956523049 -0.4591835979866931 -0.1854307882054161
P 3.167705311842882 1.7655148544670525 6.723257168310361 1.4224065168221889 -0.7374075561654461 -0.3565739561435666
P 8.691913129350498 2.983970074499438 5.9042398870218165 -0.5347678602809113 0.3752183107176312 -1.4466921288424308
P 3.6451535092407203 6.086673793970022 2.9736234311930314 0.4659509986175137 -0.48126757436992595 0.449523963409742
P 5.3653397703967824 7.661849368032975 6.577444164188114 0.44638001846412156 0.05793466753325507 -0.6359358845815047
P 6.70261211347271 0.9883340004609357 8.615152259180027 -0.4308531264731161 0.6182986311157158 1.3886620733818924
P 5.561754399403031 0.14981253132415087 2.6782223590079637 1.51698326105851 -0.19552159678251488 0.6168719259715182
P 1.636494855908453 3.518433795343697 13.368876946690092 0.49499675103056046 -0.004533883314611547 -0.5939106891896546
Ni 4.634554173960049 -0.2235496402056144 8.176789422812101 0.9405545307037029 0.06882971717920404 0.4330233946515575
Ni 6.8669433366547885 5.998251964619977 6.6912192116589395 0.37099218845142556 0.8000293447617254 -0.5361747679307669
Ni 9.13168489007364 3.6939325295440764 7.934902432703514 -1.6320876929345376 -0.22609998379000418 -0.08991893374933546
Ni 5.006226378290864 0.4187983588007327 10.29407623668492 -0.05868671520793119 0.8922846399537213 1.1050891921864
Ni 2.2695832816178156 1.4252118546743515 0.95977522436015 -0.37663678833171266 0.3963712906461625 -1.257526813295247
Ni 2.1132103013374826 8.990606947724517 4.804673210161579 -1.4235568283765483 0.8793293653446339 0.7691534811184754
Ni 5.530144035989105 2.8534010939308248 9.727275893196888 -0.18204387401105424 -0.535905059209148 -0.018005435438485116
Ni 7.173910759537381 8.473849853569572 10.361640605879773 0.6573225777873969 2.3147286948820653 0.49372328363477547
Ni 1.5405600000427733 6.54029363936951 2.786215158664166 -0.5529972388047444 0.34174820398464373 -0.47163725036901355
Ni 6.276660611401783 2.1899359252107202 6.7181668609624845 -0.19697632695117043 -0.2460645998373891 2.566207009535858
Ni 6.693234743340233 1.27805856372308 13.149363007517753 1.0593559518153433 -0.13206779920324352 -0.06124136330898486
Ni 6.579120218374995 4.430505939000262 8.39311264455064 0.32334501888710765 -0.18594783705115073 0.05427058841810653
Ni 1.0541054461675519 7.795488486597483 13.01921512744767 -1.8264258109319125 0.08625845417861273 -1.465808795067224
Ni 1.0232000086983029 3.211160286195653 1.7853010126931637 -0.37242377869162957 -0.7118417918811999 0.04291788240944867
Ni 0.1338042196410245 4.436599838285164 3.434453926979253 -0.17838647976412506 1.558005726217459 0.7890203952457315
Ni 3.3294950914875736 7.523470550024653 13.283541950950422 1.5908412846902409 -0.07027262027331768 -2.362179175054545
Ni 4.36353797425597 5.173219624448236 12.130297946005463 0.39851636201362334 0.4274703260438122 1.3767432104571191
Ni 3.8670103996449727 4.490712179880481 1.3019852343400293 0.15119140740657186 0.560204555186461 -1.4944267159142328
Ni 3.931242138682953 4.857969321715691 9.867333547994507 1.2402484858307739 -1.1531014583996206 -0.21976889936565377
Ni 2.5048337649709262 8.435895156653556 10.504263820102357 1.1715218698883372 2.675616190799321 -0.04296004850129376
Ni 3.493844865352407 0.547602241905241 2.8248098541352182 -1.1577806090428449 1.2789199342590425 1.661550992500977
Ni 4.352806404282404 0.6211918728588051 0.7382197825506606 1.4424804047539286 -1.237439555627069 -2.201991477686634
Ni 0.4492734204300739 4.928267134014442 6.005756643328371 -1.6931007422828002 1.853909875284794 -0.5154107959105383
Ni 7.514297237402478 3.515103947789237 13.39738563594744 -0.851538568384611 -0.09512310365809425 0.9452925596093205
P 5.460875786583237 6.697399371618652 13.663504455404292 -1.1743837648171647 0.5340032142007449 -1.991172845535732
P 8.257882804939921 1.4965856065728724 1.4880541475740083 -1.0518814978151692 0.1876897594429219 0.9709603966890697
P 2.088139053594571 8.190998318268026 1.2448380010460505 -0.3250920834852014 0.25122866053683185 1.5621259190334194
P 3.206040297755369 0.7013929671461268 12.461171633753974 1.512908062547872 -1.769952301325216 -0.10746079928784072
P 3.150249119370755 2.9022264909410667 2.5186846322496868 0.7163543350395728 -1.8167528066185228 0.7186547010379752
P 5.8196645417409485 3.1208741132287647 12.001400381953044 0.44975459136330925 0.2488871568878488 -0.10842676274553585
P 0.37726709024961935 2.8238962330095516 9.86100776517517 -0.09214036688068647 1.4727759704136765 1.0557834039727365
P 5.7556646862374015 4.287572928375673 5.543134151588049 -0.9622842090713104 -0.9835300058239642 0.210177913243109
Ni 7.283916308272463 3.5109300441694407 2.412593277575836 0.10303155987189352 0.5128733742006651 -1.1790004376535694
Ni 4.026898734307313 5.961002193648636 5.1937172013579875 2.097490275247749 -1.502495608965296 0.5472989028683864
Ni 9.195823875697846 1.0270863767354022 9.099495745357768 -1.9408316740790186 -3.249379201396507 1.2841410734486658
Ni 1.6042630446222461 1.278707837619493 11.290320248272437 -0.8007983617172659 0.80744466338919 -1.0317998965739454
Ni 8.716177422393582 2.2063996561554733 3.577158764205959 0.4572876665155608 -1.0724572650839916 0.29034748091516444
Ni 2.333481108366212 4.270422822168998 3.9577992961145116 0.8196723158036335 0.9994199375813434 0.2446237536258045
Ni 4.301921881486395 3.7758616199299935 7.171218127935544 -0.04207944566855334 -0.7976739571556714 -0.30385400004203156
Ni 6.711507165853564 2.271707334793223 4.608752956850742 -0.8343538290752083 0.6967154777627227 -1.5935052046756493
Ni 1.7840748125630812 3.211800284750688 6.07405469202617 0.5941366891575316 -1.355886421612768 0.34892441001810875
Ni 6.077899321027072 6.732404509976679 3.91583765172349 -0.23929565654467178 0.8333948075960487 -0.4035009597124083
Ni 8.518556999008283 7.000925642850258 4.751838083073918 0.5748145917901519 0.4301576430679882 0.2944689592827057
Ni 4.611931616340751 0.29282438235044655 5.836974183819313 -0.4212521130482422 1.5153200144234742 -0.007095730504516812
Ni 7.612383972467697 2.1766721870411443 10.752572129046467 -0.6857234975275932 -1.9513994222925362 -0.4013327484164959
Ni 8.713608152832062 7.563410169995418 1.2546670803036024 1.8142151277983334 0.3296473069560516 0.5401823464282632
Ni 7.976005180482995 9.116835068528541 3.368192743247914 -2.057391350344334 -0.0715363174770897 -2.7631838507076605
Ni -0.04642864879834132 1.1869839867391194 6.921472141077948 0.053662008299830165 -0.6812004128462591 -1.9910255213245904
Ni 2.2238094719207133 4.000176475799237 11.18212431864007 -0.3992280433686673 -1.433475373041841 1.0357853635842547
Ni 2.0285357099038763 4.172011450155572 8.656923759072813 1.7027169252163254 -0.26562760957098125 -0.9986478353020092
Ni 0.32872459115138547 7.649884177656225 10.517051733259278 -1.9247098288164919 0.24235835463039554 -0.11673271150806995
Ni 0.7719606918789581 0.17918846500027896 2.3627169843875424 -0.04940631834726975 -0.2599570415487652 -0.29381152820436496
Ni 4.077152533889663 2.5311757344825314 4.781472798774474 -0.24115739234375885 -0.5403872633502177 0.40321788125435076
Ni 7.0642854997987685 -0.22927901857438845 5.464288184675955 -1.1662922460582816 -0.20680796832961157 0.8571901102434335
Ni 7.411201817993503 4.894866629714693 4.394044572045994 -0.14361668038310751 -1.2865635668472293 1.079106137859077
Ni 2.0235270255601203 5.665675324194588 0.37868714501448786 0.15032057476584432 -0.13521148703854777 -0.8496647484006657
P 8.525392925603372 6.302464611113503 8.417793400421566 -0.7123665540364184 -0.019829118910785207 -0.09822642517376631
P -0.08434346174643542 9.230550753814555 5.007734548798818 1.518548548663101 -0.3952441190202548 0.9501208342358991
P 3.8563715830851804 6.964686884089047 9.879660476684972 1.725189395287229 0.28431978666384583 0.017350318352989474
P 3.411229399704567 2.5147027281964007 10.086969921673026 1.1197887031801037 0.35470296437309884 0.28407244653973013
P 8.071587573376336 6.224152903864742 2.757231571928299 -0.11543790395604636 -0.07671066258917757 0.594419510505273
P 8.610939399126446 9.144392107760577 12.04799042169135 -0.4085079260086964 -0.04451762279640075 -1.181970061804855
P 1.743680700864828 8.949109070402361 8.489036370006668 -0.7416033394143485 -0.4739479007800612 -0.2790238283722291
P 9.139828639802932 5.650371010922 12.000517369453922 -0.048983371877238224 0.52913483036485 0.5382041396559698
