# total energy = -340894.3075941883 ev
CRYSTAL
PRIMVEC
9.04255638351575 0.00000000000000 0.00000000000000

0.00000000000000 9.04255638351575 0.00000000000000

0.00000000000000 0.00000000000000 13.23469530288675

PRIMCOORD
 96 1
Ni 6.293691541516759 1.916587897851117 11.307233809867691 0.6113026594138569 1.6187853193986768 0.6331002149049225
Ni 4.670380872901532 0.4822512840485925 6.0301905459980985 -1.0114393306397227 -0.4646626188233932 -0.6217508513303744
Ni 2.5165705524631026 1.410168573517051 4.8551745539259406 1.1394596992464698 0.8668278904435135 -1.1656736386376765
Ni 3.578636877755666 4.15200728910797 4.821982042429743 -1.1128251273780772 1.2679089278605196 -0.07232358926507544
Ni 5.180534772997151 4.560079770869054 2.6657718275430904 -0.12085110455181766 -0.36806138795787574 -0.1568180095647299
Ni 7.321549876238011 6.120083502664361 2.5657439737495937 -0.2296725316326109 -0.45174231121729935 -0.4619585896286689
Ni 5.0964842119714175 4.589133504336044 11.281915556417884 1.0988833204860042 1.0935472529850716 0.08886786677700179
Ni 5.5767795910872655 7.676940424859136 12.35396576814708 -0.39546857632623506 0.022798485951754283 0.1172901266734367
Ni 1.9285150296416433 6.523128323109651 0.6437196910368657 -0.25757928534520796 -0.24118156071347496 -1.069386596578468
Ni 2.849580774183884 1.5569292626453615 0.4818253796457617 -1.6438679733989174 0.6963946040881941 -0.9167044635589825
Ni 0.5318967267751636 9.02633397732681 4.5885086636941 0.10692189606523521 0.0015007529152425768 0.9304524092726943
Ni 8.631110968101238 2.221855556771797 1.3725307413322843 0.22877753062216727 0.904852449316403 0.8551674233864498
Ni 6.860985355019759 0.7362422230819647 5.028760890643164 0.10323853367637705 0.5295816880942814 -1.5654773520041554
Ni 0.7495899404708927 7.545787187944963 2.6116557449702444 -0.03272268704400171 0.7331701210453309 -0.7562550278892525
Ni 7.540831867079756 3.8606832520379286 3.705012932164201 0.6492110044238562 0.5373371636699843 0.27791414024781813
Ni 7.662933505114235 3.8851795371179407 12.590377073432188 0.41544399100689744 -0.675256022337366 0.07835385461955538
Ni 8.2043294373071 8.616832771666635 6.750078401713615 -0.5104979319899531 0.7169019800129266 0.7168986375788169
Ni 6.686961358576486 0.5959930787621139 0.033913203235170365 -0.024387941926061224 -0.7934059259079368 2.0413512661623363
Ni 1.907319277619662 6.4355963778994205 9.18190030780282 -0.857027359413324 -0.8430613841515351 -0.07157102736976706
Ni 0.2433749779097348 4.834241036037338 1.476634979516357 -1.0744796948306592 -0.08962865620242629 0.16852809891280654
Ni 6.459278832910329 2.122215628644572 7.058909732081335 0.344330105779207 -0.7701361567467188 -0.3441892093259685
Ni 3.6120581659268445 4.172497721736728 0.556901203520549 -0.7045671125966576 0.06702223165682006 -0.028713822994924747
Ni 5.979887709426818 5.733857836980542 4.774177664170611 0.14393729694731985 -0.8201698242653424 0.3661307465940662
Ni 5.405025276281158 3.2202170727662116 9.280102469474627 -0.07385416697698893 -1.19948004566416 -0.08939057204969121
P 0.3544709206430378 5.52086042278354 12.549773282773355 -0.4337936971586787 0.743017703263372 -0.3511065052710921
P 3.933267851645627 5.948654719885895 12.62266985057421 -0.14040357276244853 1.3147616265480002 0.20114022852087293
P 2.4212077534768324 8.598349786541664 1.4171449057205319 -0.1153728550460658 -0.9472306571722976 -0.913796288773252
P 6.251996314309697 7.8883373065869025 5.797405305798664 -0.2154769568585192 -1.4757923886424973 0.9232558915242551
P 4.641833522588651 1.0646344112884008 12.55985844584081 -0.15164006490821627 -1.331758675326629 -0.603586778826838
P 4.1149418507384725 6.046269115396684 8.2621158934916 0.18130853850692644 0.6941060651643336 -0.0686170869477657
P 4.859261789384105 0.9717040599531176 3.7951943463771793 -0.7304046424850519 0.7906175645295223 0.022477355166909678
P 0.25801487659727235 5.804706265774152 3.5480097394884083 -0.02927200949123991 -2.1158636355486142 0.9527873253244686
Ni 1.499364349090782 1.00349768798609 2.6495856517242564 -0.74665658556754 1.5858929395460302 -0.4621262255547848
Ni 1.8922724638975728 6.436645314432932 4.987640770018267 0.45059765608989494 -0.3348458204378556 -2.0502585959542947
Ni 6.084889873453801 5.802056796771405 9.241483519928776 -0.487003962633071 -0.015627679234927926 0.06122079448369457
Ni 8.636283310318206 2.1277858433397685 9.984757234807793 0.7298379713483044 1.4704246965726804 0.7911891207622761
Ni 2.6699323077074735 5.066933137906642 7.0551914329211645 -1.138952677703064 -0.09243578663391822 -0.31266928434081637
Ni 0.5384236439293728 9.058109520247136 9.12012156300155 0.22502860510269632 -0.5126286051797107 -0.12194176651283517
Ni 1.2555589455000549 1.123221133707521 11.63726722204682 0.9362412480403295 0.08164383822473681 -1.0695647740275451
Ni 4.0885647139431995 6.926453462800965 1.7196898509322442 0.654395376838273 -0.0498968848304431 -0.8295309537652681
Ni 5.585261508918587 8.350203955915719 7.971296431064403 0.2682761029374218 -1.315641200939476 0.19961427879464977
Ni 5.413181662084838 2.9372393151826417 4.688867475049032 0.5508292846191482 -1.2116740166271907 0.15324083373643285
Ni 1.0616503677016884 7.323141366150925 6.921824578219031 -0.5268105531070476 -0.23603472640521286 1.114668608344719
Ni 5.193058713505019 4.319493517329447 7.175441155420616 -0.30016292434368946 1.0271325730052634 -0.4381242062132326
Ni 8.104906530531636 7.254318469973748 9.106767515823195 0.06591845706968003 -0.21639946867278861 0.4291783098738544
Ni 4.536062741274181 0.43275413924572464 10.34528305116496 -0.15778294458116052 -1.012325847009734 0.24189607028199628
Ni 8.02009639477474 7.289937099331507 4.6169230884290275 -0.10434925024205256 -0.1809071893034497 0.21161027481426134
Ni 7.076433301980395 6.29530111654232 7.103471449642907 0.5906836976119247 -0.555825709392475 -0.9486077400254823
Ni 2.487851393580076 5.03116982764771 2.562700249291147 -0.5451844276285449 0.8092179532395289 0.7584587204087905
Ni 2.3432247477440815 5.192959245385462 11.309629183037751 -0.6011092638206228 0.25652359038718403 1.9580048434241955
Ni 0.9149439339113182 3.385325108674642 3.7106111787839997 0.1162100062353805 -0.11771667268789404 0.24296950585183313
Ni 3.5904012435323716 2.606010477057564 2.7801330373647626 0.4155609762007359 -0.025354162494072463 -0.034068916659251006
Ni 1.161272210716266 3.4024969231327233 8.179411769102417 -0.5779050577900176 0.4355276491306499 0.15089753031523692
Ni 3.4905623791660325 2.60181473092352 6.869389506866701 1.5969070312683464 0.8324640682516632 0.5787848892918097
Ni 4.0895413100261235 6.811441188924009 5.940340089346556 0.5119747736457957 0.9078153885994688 0.6050096273162935
Ni 0.6639704959230549 7.507103131993582 11.41444778317137 -0.4489992012545235 -1.503972450621139 0.7746448432503497
P 0.21982544847677984 5.573623738930408 7.989983777962283 -0.3890174213842526 -0.43619305062879077 0.1675996735612662
P 8.477369425491284 1.4368712423399654 7.926801628419624 0.18030760804623785 0.9839264699314346 -0.7240779289360756
P 1.8041889227516164 3.0888106442749854 10.620340433664891 -0.6341708222612821 -0.10313183289518368 -0.3207541182314798
P 3.915806675385198 6.053412734892148 3.7606517812219025 0.7061647961010806 0.8417601488416083 0.9773917541367102
P 7.107856185204109 3.9843402097600262 10.384590139247022 -0.13912393471907653 0.1606777496304523 0.11266779741007693
P 6.21581704645989 7.91032880356534 10.20355273611934 0.4885551091702747 -0.43332009995636983 0.0811661272573699
P 2.459602447625865 8.512129011998322 5.754418801548622 -0.0005916108374118844 0.057463127213475226 0.9647252144126354
P 6.9994721051121855 3.923746039837117 1.5048513722678036 -0.09953280269001567 0.6248613719348981 0.2481075984093469
Ni 5.480512536468658 2.793390329190457 0.29470776164624696 0.10713169808319616 0.6214898843595039 0.6753241565711401
Ni 1.6158324745357997 1.291738213349862 7.046787281074224 -1.2323883663564066 -2.0144683257285627 0.717602605624377
Ni 6.734760311301825 0.9775184236690452 9.286825610101054 -0.22632546953724894 -0.9311872305561898 -1.3500780424611072
Ni 2.592437600016184 1.4465558201622957 9.451663273575416 0.015867048939243643 0.22035408244516244 -0.9761108305417575
Ni 6.464894260387142 1.9844070702763992 2.5516357773738703 -0.7804056569935269 -0.15582067864846713 -0.08663126413699919
Ni 4.0347976740444365 6.779520965102511 10.446171756320442 0.33338954760730327 0.6572665277384809 -0.2390074358802916
Ni 7.902036779416808 7.182837062237501 0.21967986331997358 0.5063003489688377 0.02245010147340005 0.2871647123118087
Ni 7.5799861359599525 3.960730095199705 8.17808884311231 1.192465819129856 0.35081442795197 -0.11284237531472822
Ni 3.0178175345802 8.165229423764842 12.402961051074003 0.48560579673396376 0.7002610290221359 0.005658998057990254
Ni 0.20619650758619518 4.68657609127669 10.32737698113342 -0.49753982916738826 -0.08312273676310845 -0.36304028059420057
Ni 8.810289221648832 2.2771055759075933 5.806881000569924 -0.6225234678303407 0.5927855744462758 -0.08000167463562352
Ni 3.7912545045870862 2.8514164131175277 11.602315029090091 -1.3295246437897876 -1.4482569022263896 -0.26398518887155176
Ni 1.0930099530311388 3.340672965549836 12.847871098785236 0.22052711768791697 0.14387353358891997 -0.8528380039223247
Ni 3.0800122369723453 8.209040609151575 8.082759501584436 0.5384337391682728 0.6372913701681346 -0.3144508017212714
Ni 5.418824217230621 7.869185172294002 3.637754398230968 0.7308363307058316 0.19277308750310027 0.2098606391130063
Ni 2.9984212512665693 8.292539574241582 3.5555666038078493 0.40390076625398824 -0.20963746735860672 0.5104364826243983
Ni 3.2708734732897358 4.211651990616924 9.430580553507477 0.42183626768648635 -0.04563296734776657 -1.2780604144722247
Ni 7.366337657707668 6.033790387670432 11.430912469724964 0.10759886752760178 0.2985266742918472 -0.675929651365623
Ni 0.45651164747411715 9.007995673103014 0.31308404460660133 0.3895442404220001 -0.5889919117317985 0.8870483312554466
Ni 4.4838962338446535 0.4987421940155241 1.614089973932286 1.624258683808422 -1.4136753075967783 0.5577118706715942
Ni 5.841455214672333 5.47764604611415 0.35085028109116007 0.5633266457552105 0.4139499229598742 0.3842403117105834
Ni 7.96894265365343 9.013683441030414 11.22361729154548 -0.4966003480722544 -0.6087233287224548 -0.270981674794043
Ni 0.1520957973590992 4.899510207579429 5.668552495213157 -0.8319061388656641 -0.1952806844163024 0.707861209966897
Ni 7.830917073933496 9.004984501847332 2.329875221843889 0.632519145590472 -0.3988200092969712 0.2667406401295019
P 8.376183220232763 1.636802162649697 3.653344669588092 0.739782741265842 0.19735762154998912 -0.005157632941539505
P 1.7716538051001276 3.209004302925232 1.68918388291972 0.6473988909157818 -1.3720643169242113 -0.6086652217910098
P 4.681195770264284 1.3199690741914258 8.101539082556812 -0.3906027635935015 -0.4092291204454372 1.7695689498438685
P 8.427092812333342 1.6388096101534853 12.580769357338607 -0.12430718142121817 0.5304607482651251 -1.2130991791094916
P 6.275470790525167 7.756795239750824 1.5511194202075957 -1.1441077395414425 -0.08996649915781925 -1.2786656521563915
P 1.8219665884833636 3.3152633822811635 5.809938288862856 -1.313433651765196 0.011276344244767676 0.2740824252065538
P 6.950949747880976 3.899936989037682 5.897632095831274 0.4882584038654624 1.2048801336338089 0.14267102864038655
P 2.2005512940739345 8.29596670308814 10.268720631030611 2.0933382007525885 1.4359660006741786 -0.05414486147351965
