# total energy = -381168.48890078545 ev
CRYSTAL
PRIMVEC
9.22385488503621 0.00000000000000 0.00000000000000
0.00000000000000 9.22385488503621 0.00000000000000
0.00000000000000 0.00000000000000 13.50004398578831
PRIMCOORD
 96 1
Ni 1.1744550197330559 4.7936374855119785 5.362959647895582 -0.7609069248389669 0.6798873504617904 0.8644020546108403
Ni 1.9461873027816043 4.263819249668591 1.1500606902007613 -2.5541742467410398 -0.7234019859149734 -0.455688440349241
Ni 0.13975708502834683 7.927718964879421 7.297759179194382 1.0019578735118486 1.8597483363434422 -1.3208320011117962
Ni 0.03932037182410816 0.8111273680988116 12.398197765248701 -0.18601391440239576 -0.7181006283067181 1.549786937852092
Ni 1.317480116616544 5.6683264389728505 10.497026564803623 -0.02621342517057421 0.21518230843623587 -1.592369034188677
Ni 8.407451667633852 6.243710518915582 8.442725534233997 0.11475553317704107 -0.1600290603028599 1.2328812468324253
Ni 4.374736107015679 2.8150006605559823 8.159372395692658 -2.0737525653111772 -0.10545431038077323 3.8917798677667497
Ni 9.208561929114872 7.705617758387901 10.246547245770394 0.4365470915340998 1.0753700678554123 -0.38016691297215816
Ni 6.72230868749507 7.211108439793965 12.531510142732065 0.30992488882645974 1.3496049594794306 0.4597908925533888
Ni 7.673777010648846 3.338703480480773 5.374907307381792 1.2499490009479892 1.4737799861981586 0.10434256537383321
Ni 4.44324167870107 6.11120061682425 9.645430454923138 -1.1517295177527582 -0.7337712449644395 -0.9404401166130255
Ni 5.817439280209692 5.284955350247944 2.200534184250229 -1.2920487583315168 0.09770269145981238 -0.8076171844113124
Ni 7.4312541890083486 5.788845329459092 4.062662650909132 0.011478175842928618 0.38745290511061015 0.6976572728507017
Ni 4.590721897588604 1.8605253606458536 3.2426563999095057 -1.046103200570495 0.00043425932394118756 -0.19123351093012225
Ni 5.29646672138883 6.987817355997017 5.481193789478299 -0.31788450999316864 -1.1712860997284473 0.6146525497226962
Ni 8.783711164091432 2.421123600894 3.2927280972158397 2.8453385671305447 -1.2091507359847047 0.5823690070986421
Ni 5.497611329136684 1.7214665214471263 10.068994492162801 1.4834391065544774 1.5567628549492933 0.3556347321587488
Ni 4.597289282406161 5.166336573908355 7.600349589892319 -2.386281981640019 0.2798658646575503 -2.0278995115328042
Ni 1.0368535496371012 1.9904894787348737 5.2145948613057955 -0.289892652765933 0.3035511240896321 1.2273358915341634
Ni 9.15541407613908 7.598242861391856 12.674786128473752 -0.1763347394414189 -0.18291702064462692 -0.8919617093966639
Ni 7.787285771273648 0.03342263888541977 8.459073894979275 -1.0503182670931073 0.08917177117066578 0.1020763950474758
Ni 7.2064134975578185 0.33258362026430033 10.909830975091486 0.48219214306672437 -1.0594320564689172 -0.2711248852401266
Ni 3.5126838350155563 7.895020398617847 7.32169508312916 1.732271756055307 -0.5216531772758242 0.7535746528436118
Ni 6.955662997185213 2.6458167106632358 8.271719872962784 0.31912635282006974 -0.40311580845884765 1.0476299216276668
P 1.0454778541376857 8.20193495257768 2.3182407213223226 0.1002146592483887 -0.07505101549856753 0.8381166385517502
Ni 0.05914797070587947 7.388538516128983 4.277029654915369 0.8465220890066258 -0.7494981687813931 0.6032787606681159
P 0.7304859702835612 2.703973116947925 13.449540146446784 -0.7545717266495585 -0.6624313597688721 1.0622990936040673
Ni 2.0910848422465027 0.35427904979994146 3.88400303469184 0.7547133944337454 -1.4198050746436 1.3570133361283598
P 5.211699493195921 9.055750321990615 9.223527633983535 1.0927995761857696 -1.1543489576534764 -1.7576403167270824
P 2.0166022124687286 9.166316672844632 6.43817152127186 -1.9227059110125857 -0.3901116828896959 -2.494586616985394
P 2.8975726112396525 4.209094117473974 9.014222681645663 0.9656428411308983 2.744146374460235 0.8293851722160233
Ni 3.999140728123919 8.75496040780446 12.82602783546325 1.010294675512318 1.0570388736463925 2.7706382501031768
Ni 4.886724630987805 8.971352048000938 4.472281141652076 -0.9102229695996971 0.3388220314767842 -0.21854016916487523
Ni 0.26529744222059665 4.757941166349132 3.2978316562320678 -1.5279101923836589 -1.5589364655618443 0.4124126603797414
Ni 3.215066926977208 6.491869116010472 1.0522739905612477 0.003155772020162307 -0.26784287205474516 -0.41705093048270114
Ni 2.4002869122663846 7.471018228261844 9.343339977170583 0.19667010856466127 0.6195656707535975 0.5623653102832057
Ni 2.6412785739634628 7.319949929747865 5.251881373084579 -1.5316179802525491 1.60666745308922 -0.9690179282507182
Ni 3.315616171213433 8.730923041463793 1.8404607086885048 1.1677678021625435 -0.020925180188441382 1.5841435609550913
Ni 2.3108155179822476 1.5742537943569372 12.009936188559932 0.2336420578033202 -0.4442051222999898 2.3595741333315297
Ni 1.010694696627842 5.644547340574448 12.853742752824648 0.9156102020535393 -0.18855185033290106 0.2448752075149783
Ni 3.499180111177208 0.7017435154661591 10.421750683488895 2.6944477216835274 -1.1739392210805781 -0.9570946944505709
Ni 7.172220666773149 8.717594570871979 5.747239286345952 1.390001618128922 -0.7907872573381671 -0.5963398674564375
Ni 0.5902335642373734 6.1029175949616565 1.6174002212685776 -0.43337692133623434 2.7339655772724916 -0.45550254959068
Ni 3.0613513820550278 3.4260349403861556 5.543158725525867 0.5229441281731059 -0.3277434050651194 0.7066458495025572
Ni 6.06512746069546 5.427205643304641 11.156814453049078 -1.8189832386109384 -0.8410937189022031 -0.12635892174392432
Ni 3.702446205593655 4.246192462609109 13.160139848514447 0.15465134093071428 -1.5596571457779527 0.025197839421866278
Ni 3.1508135524840846 6.024533274484688 11.68418006582647 1.4745677722067767 0.3307413113511788 0.8891283537129269
Ni 5.3756166218375085 2.923694568828588 6.457543461712638 2.3606252003038635 0.8235870774770075 -4.502060513673995
Ni 2.339944452327537 8.369947472875161 11.544009752090501 -3.1794930179283307 -1.5984730902038855 -0.27749479332221244
Ni 6.123127061443775 7.3512372461820705 7.69008386404626 -0.2143793529189663 0.4716179670953039 0.7180312085213634
Ni 1.626165650751899 6.158869499882026 7.673546414271824 0.3875763180623519 -1.5682808828912216 -0.5341711072371769
Ni 0.05375662741112913 3.9265858840580403 9.603607651215597 -0.4141337568359061 0.383807595048539 -0.10414510465104644
Ni 7.2904151457790185 2.651553948523517 12.708307462608538 0.7060920338816161 0.8569481694359565 -1.5000646309263006
Ni 3.4551269793111214 1.827743779688552 1.0915703803621457 -0.6376806351867534 -1.0057628490802355 -2.143285222094677
Ni 2.954963437552632 1.008462523698279 7.864896210309335 0.74581712038538 -0.024799318431866967 0.7205323776766623
Ni 6.471013979672694 5.1049794899106145 8.808063063890355 0.6479159397615164 -1.1730545044827796 1.382107560092826
P 8.702338314568271 6.072331291513596 6.281664837802217 0.3198861138042297 -0.030433633899508882 -1.38802598245979
Ni 1.5158575678401462 3.609663447335497 11.734926949324722 -0.2632989614378046 1.5403759289508376 -0.7640542122186971
P 7.162849230011017 3.6143491657165625 10.487374722847031 0.5445390807350622 -0.5326050483016377 -0.08553160331491722
Ni 2.1410227936541646 2.303731597280163 9.575081956992594 -0.3606319282630241 2.4003047782816727 1.7997454734272487
P 7.595254332345664 6.283317752632704 1.5799781188201059 0.3126901102764228 0.4747287448101437 0.019660197433088722
P 6.471244576049716 0.6362052579602745 2.4166159029159937 -0.7506392243643718 0.1590157885469971 -0.808014419849731
P 4.672712745402181 2.1364938808094727 12.44057400026109 -0.06079630535176627 -0.989408061871296 0.7930287450741762
Ni 8.90770744794315 1.860958881834653 10.530804322109654 -0.27830520503864975 0.4040779152618008 -1.1077443704210599
Ni 1.7279416677138753 8.865711235760092 0.2861645695699785 -0.7548699746162677 -0.3678191900400827 -1.059369064441466
Ni 6.45557324626737 7.8617315056310995 3.4587381185752704 0.9730087945776662 -0.8474628556533405 -1.019616467133876
Ni 3.69271503848337 1.2551729755454772 5.517603112638894 -0.7971070289086079 0.044955224554451605 0.7694507006439201
Ni 5.5943511212245225 0.555749259632149 6.97049126661317 -1.4897449941678471 -0.25450373174367785 1.493123680832093
Ni 4.161406786706038 3.5327180482511387 10.910532910463138 -0.8237536849618587 0.8235919625730138 -0.9947338449595836
Ni 8.563270251514464 4.084313805940385 7.388249809464953 0.9958052236468915 0.2648855891986341 -0.44156408513271694
Ni 8.414637050741826 8.75552306296439 1.0186281343828716 -0.18060457046136638 -4.0625085738752995 -0.32496455676840164
Ni 1.2099945333595281 1.1522808721187192 2.03121648845881 -0.7227594672349682 1.2873894051826344 -1.4022742648486881
Ni 5.2212830786249125 4.486639916856417 4.404565131961605 -0.6179042238907746 0.1269819000399039 0.64450408586649
Ni 7.143580596747145 3.6376117282304383 3.2486233117613006 -2.2224626010567916 1.140295564884204 -1.7493891324618838
Ni 8.39114389185093 5.416395285149897 11.441921968826792 -0.1229295843474012 0.12594008903895085 -0.8183736515968679
Ni 5.6079747551789225 7.624088103328367 1.1349243440131047 -0.24610830859113098 0.4508138858657591 0.3672674313016707
Ni 8.367392465017769 0.09951063815412244 3.3484291132780095 0.7438504835773125 0.5057149087790129 0.5493583565005765
Ni 4.147718585766072 6.8586741610101924 3.4353694817279647 1.240316877174864 0.549609296169118 -1.0462566954292238
Ni 6.247114121440411 0.6600101831529035 12.901222546853266 -0.8233837032169498 -0.9808244339673431 1.3389081418872169
Ni 2.298344865912953 2.94185633948276 3.3221715650193855 -0.9597516724574439 -0.5640362702277254 0.5109427328368554
Ni 8.370971320789135 4.119567380059352 1.084185761984426 1.2809914720760907 -0.8652083525622196 0.611508861887392
Ni 6.633003322602388 5.239878370467884 6.499056343889461 0.6538765282203255 0.1053892614707927 -1.1359514289828954
Ni 6.8461573896654935 7.3282421754655385 10.11108755482421 0.908803463544351 0.2556841252050242 -1.4939058104137561
Ni 5.768755773093025 2.821992342707259 1.3258221711516547 0.4509910348735716 -0.10614156625578494 -0.8833888801259883
Ni 4.8063387339582935 7.8703096908562795 10.951681450364267 -0.3859158996407935 0.26598910667545805 0.5237308857404593
Ni 2.438335314474845 5.444002283406848 3.2622183517649486 0.2598063749035138 -0.5848064128955412 0.28836747437065824
Ni 6.483844362090141 1.6080223278078885 4.402647492490298 0.38821986518362167 -0.5110144666150555 0.40133223419586367
Ni 8.214848349690856 1.5682213931340687 1.1184625298503315 -0.9796368414171451 3.4288823112635782 0.24578692069597027
P 7.426051934742755 1.6036686682097325 6.4115219591723 0.6636487771157409 -1.519332478016977 1.3802463385143713
Ni 1.6022574183823644 3.5062271364589694 7.553571731235353 0.2922912349050966 0.09691310567898148 -1.2616045829090468
P 3.383789684115914 5.464211749888967 5.407712870362304 1.6190995082049857 -0.6187560303681086 0.2341763330402354
Ni 6.851931522946098 4.917320158290948 13.176272371050834 -0.10744768666171818 0.1250510015657782 1.3626581931189627
P 1.5896022892114532 0.2494739188294175 9.657904796534465 -2.1991419240529804 -1.2687283384380215 -0.032180184276970385
P 4.975983876605082 5.858005794855222 13.370241741931304 0.14277747231126378 1.9891121063519615 -0.4707509911093183
P 3.7145017841843115 3.6887303330884476 1.960881826310889 2.9183542973666383 1.1391177425260186 1.5414143975176808
Ni 0.4331568465237354 1.5929136531854744 8.2408457852362 -1.263685119587159 -0.9530416074271199 -1.204488811732661
