# total energy = -340864.64736985986 ev
CRYSTAL
PRIMVEC
9.31673911746546 0.00000000000000 0.00000000000000

0.00000000000000 9.31673911746546 0.00000000000000

0.00000000000000 0.00000000000000 13.63598944883457

PRIMCOORD
 96 1
Ni 6.482027929476584 3.3896625340526896 8.521552449316381 -0.849827499230775 -1.281838136347102 0.3195199887140627
Ni 4.102188092437301 3.8952540044998476 11.812584258568698 -0.1199483902318902 0.022294292621826122 -0.7652477183061659
Ni 1.7178110035486862 2.512407714994441 7.840311568518782 -2.6230795543531857 0.3134768678437762 -0.2649974321861501
Ni 7.3713572421626266 5.91232797858741 3.1093190652190312 0.2862087761564426 -0.2824961031915458 0.03458005196771464
Ni 5.710434246400446 7.658247583428578 3.6140552590342203 -1.632072780536202 0.044959852540141926 0.27260558355071113
Ni 0.10803038268700926 7.374748535125988 2.75528764499575 -0.928330220723369 2.1216398759107586 0.04702059172391256
Ni 3.144054662898434 8.245546854119373 11.095099400062114 0.36910062785566755 0.9775470487676519 -0.8582717733433864
Ni 2.122492874858004 8.381748260249564 1.6356364346856391 -0.06836331906574677 0.07290877234458411 -0.652849629617708
Ni 2.175933689247687 0.7655694796967145 9.538864872739804 1.0498402990154243 0.36335909738620004 1.2739085970873802
Ni 0.8801504615115805 8.362825963522674 11.423058858118713 -0.3461100804977652 0.38733360592392646 0.36936596570191227
Ni 8.951653179394766 6.534220300852281 5.38819247101312 3.2145397251198182 0.2647156392796732 -0.42792335442083074
Ni 6.828880802369451 6.238758559788822 5.547625165616231 -2.29359654088914 0.08107433887451197 -0.6765040358118543
Ni 7.479962467640403 0.8890218603020016 0.08301587038665041 -0.32981031489647716 -0.7149687675459557 0.7392412669400752
Ni 0.740758072304601 5.757139058557957 12.454240179084064 -1.1429522857807606 -0.47268163247312783 0.38408707396217073
Ni 0.5780812892129118 2.9698223285362557 3.5259254306596874 1.610648292113839 1.3371819032247292 1.748383831125821
Ni 8.68076899557677 1.8944936402442822 6.350307874762265 -0.17582540390516815 -0.20729390682709462 -1.7839360171988181
Ni 4.899533241861605 2.677668029785966 1.9933768486691243 1.2524373145874819 -0.770134614084822 0.10652491773713267
Ni 8.220624577534227 4.289268209756831 4.749701446705595 -0.18540970515949362 -0.42333984881520637 0.6927901745663876
Ni 1.3043713976636533 3.7275620208527247 1.3514274508780832 -0.16530393554855402 0.9656870641052724 0.21530726404987438
Ni 4.002946189564412 5.716760312120564 4.621291629326119 0.721013945298771 2.3644720848537797 1.0880828874363906
Ni 1.5748363282306828 6.69319181687933 9.160753409128873 -0.34973199352106865 0.8668931964638104 -0.7451784583601166
Ni 3.571860680183204 3.5183453318822386 4.747192448917041 -1.625118460705556 -1.0114033351954645 0.8123631837367301
Ni 0.34574045426697364 0.5216730934802876 8.300553812319885 0.9112750650132951 2.6801148500006224 -1.8667399371699271
Ni 2.315712723119445 6.7053128942016755 5.919505594243931 -0.8683898356139947 0.40832537768424515 1.755408084962454
P 1.9174594016582585 0.4245973324040504 12.854442562325291 0.3727009436124162 -0.2718324528301125 0.8140739957802495
P 7.548608199931754 8.14283912437184 4.603223677557306 1.0756156082073152 0.3397232031348149 0.03458365151214044
P 1.4750820047177244 1.7629692370470809 5.563674180063174 -0.16337637950853798 -0.24991174149762121 -0.3229033033639987
P 6.932045052323592 7.96384593642648 13.061518264694184 -0.45980143407635005 -1.0288549550130086 -0.12811267121023742
P 1.2688653056763661 8.121429258355889 7.369843272089697 0.8073047953772161 -1.3586899524998342 0.06842194021782409
P 5.496074717551456 1.425339935675445 7.569896948341869 1.7800983886202826 -0.1813861858223973 0.7264955372386326
P 0.308445548408902 5.370373276173213 3.1574130031480725 0.42519104309133227 -2.045927829789425 0.49629464390637756
P 6.6618782574016935 4.13606375511528 1.8688670181975144 -0.09426641208475378 -0.9179907864705739 0.5122771353775629
Ni 5.74694654619005 5.2177650928219235 10.005884112424287 -0.0543466930716806 -2.620883318032815 0.3250383474291305
Ni 3.0129401962132873 2.247132208000468 0.44926060364748965 0.45012791554232795 -0.7272383289419281 -0.09531310818171328
Ni 8.821721938551232 8.33303103248742 9.610208732619588 0.5174044293017992 -1.9792141305119588 -0.6565432764192113
Ni 7.389319914781753 5.677993361514659 12.411395291857106 -0.39577119516831843 -0.04634747691628792 -0.9032915325871863
Ni 2.799167621915647 0.3027269340657383 6.851880104043505 -0.11672474108826994 -0.29873621919949195 -0.07502813268043208
Ni 1.384672370331832 4.633298110759868 5.052856950761209 0.014399463254781652 0.1340228660470853 -0.09206966154375111
Ni 6.130311718872521 5.9437440221930595 0.9491176212953364 -0.09493515601700424 0.7998390831277903 -0.6516152429899745
Ni 4.790797582039083 7.854318353796581 0.7882417638350151 -0.6426739746362867 0.5773196176001929 0.6778410094557229
Ni 6.945395939182103 7.066439011105177 10.130312887267374 -0.3050637040794166 1.8341676596608605 1.9084982520536358
Ni 8.313614948598282 6.281932327899315 8.575537361258426 0.25902064577742484 -2.293586256476495 -2.309127546645204
Ni 0.4364323858418492 1.8308975804423344 0.46150279857567 0.9319755307854402 -1.8484871616073262 -0.8972067598456871
Ni 8.398332055509961 2.3563709717241474 11.919477067434755 0.3104028569041428 0.09030845587827027 0.14038660348158405
Ni 8.573766249191571 5.562614866849069 0.8563583053562576 -0.37821775966558735 1.170231690322004 1.2081629181501388
Ni 3.423128260218613 5.007653996916045 9.107136508373785 0.8771737524542119 -0.5433167782921869 -1.2175867825671998
Ni 0.3902474477155357 9.015016320723955 4.898497220494775 -0.4897946380043307 1.4257774901769509 -0.21091890517419157
Ni 4.6997916763629295 8.845600740378421 8.702229171982838 1.1200203595749356 -2.8779656091369463 -1.7396055707125588
Ni 5.3303951495089645 8.87090500325889 11.073691397393947 1.6506469439939637 -0.8496004708216337 0.6823646083576893
Ni 6.007498466556483 1.5573860762516252 11.953062979532623 -0.07139130725879318 1.2011255516873829 0.5445869032538622
Ni 4.632105568179345 6.535953214289604 12.379092294707192 1.0011721443857595 -0.33026899970045054 0.46599239337841036
Ni 2.0526080162915803 7.967004310917084 3.9528277242701546 2.5986036806990085 -0.5613929190676074 -0.17405262827546153
Ni 2.709354258820016 5.98825008396773 11.144285259791447 -0.16780819002764646 -1.059985357869226 -0.36437262625237893
Ni 6.109898743919977 0.7471083615458853 3.1731769253843596 1.6839267890930163 0.760333054613368 0.5177561562142632
Ni 7.381708139092008 0.7152302076902826 8.892955860911872 -1.910512454270187 1.1541211579133865 -0.16062812733943949
Ni 1.3871319894041605 3.2744144737318437 12.348015380397879 0.6945722061674747 0.47976682145468336 -0.3746881492457741
P 8.951308460055083 0.24640165730941602 1.6801173412652524 0.2770312234222325 -0.9944561658181647 1.4748040565872989
P 2.90015175496477 5.073896010568528 13.200265003894676 -0.9554080507767674 0.3354130057952352 0.7987000844273406
P 0.12461697296907895 0.9918972913499224 10.433672427905126 0.1307267117943168 1.0288384999527767 -0.10281841541982292
P 4.050191372578721 8.205028356598326 5.287081630314817 -0.5210546244598768 -0.031724327686474395 0.2994044489111101
P 5.310885898230723 0.6456257829650596 0.5765104870326293 -0.5646649049506598 1.282211974746753 0.6663160395352589
P 8.690365236654415 3.6685404798557517 13.757213134237276 0.5287905596515539 -1.0658238189278744 -1.11835377050579
P 8.061867346502117 4.488404187226335 7.028411809568753 -1.3550040190078148 -0.22149822335193464 -0.26378875659002954
P 7.044153371631656 2.40952296720761 4.542911768221251 0.990365797798875 -1.422257907059467 -1.6362821906318594
Ni 7.228606168578471 8.090404517784473 1.753356225839397 -0.018651296552600134 0.4248783969469199 -0.7379765412950388
Ni 4.008312631176765 0.1598416994412741 2.6683587442667593 -0.9235837071773191 0.0779969855007689 -0.5719488402065828
Ni 1.515209199204538 6.077485809250921 1.3110822447007677 1.2252458417743544 -0.1048318463054259 -0.34425528667721356
Ni 5.833061163938278 5.164370862126792 7.203647556711574 -0.6300868819998955 0.4246325994847009 1.170431979258268
Ni 1.2054369471748043 4.1929144959461455 9.615622689600384 0.4416522739711491 -0.5142370873174112 1.3044841558813922
Ni 5.471133807488488 3.778096012702383 13.586395384685735 0.8456348013056663 0.1301060474911824 0.04697148365353201
Ni 2.187896382008557 7.46068613483492 13.12000316152992 1.795695214617275 0.28937817502335966 0.14499530589818901
Ni 4.5127954096935925 1.276393230715917 9.668761641649372 1.016667154697565 3.9268371164811984 0.9642521314309587
Ni 0.7168429351956616 5.05284949737008 7.476449125397316 1.631968393747854 -0.15114101378461067 -0.6669482738026191
Ni 8.663151042297327 2.793353976835598 8.390142642007776 1.0321899329235127 0.6691074862374671 1.0931914123075495
Ni 5.745530401875679 3.136834190242924 5.982844512051954 -0.46484156760341877 -1.078642053738465 2.0137113929578803
Ni 5.618002879671011 4.222122472430046 4.040943577536322 2.0325987167806865 0.3143692977510586 -2.081712957808834
Ni 3.6951397694447583 1.317293714532288 11.845856196565286 -1.3985857602535074 0.0647113241354563 0.36223938195946004
Ni 8.21765253782183 2.1277754658201644 2.447224082882172 -2.270352482759535 0.16646735972903587 -0.7588816668788221
Ni 8.596508408871701 8.529744657840238 6.768155229825778 -1.6453720687482696 -0.15591066725911212 -0.8061552551538052
Ni 3.117287672009041 4.7376362698167105 2.642245788448872 0.20481922003435693 -1.0332991068272914 -0.4460401186261996
Ni 3.7805463150358007 2.515230686884273 7.426364200363135 1.4433610075866692 1.6841355626697125 -0.2999469516781415
Ni 1.4215946066334904 0.9344968629233475 2.977895282802061 -0.030751936470876075 -0.7843134766883654 -0.2641445972675515
Ni 8.21844446062921 4.146097882921711 10.306612605993758 0.03546322590361634 1.6491973560316304 -0.35401339450524194
Ni 4.072877631825388 1.2723777162455623 4.85587127663221 0.2839557184562077 -1.0232885166688248 0.10586542977626283
Ni 4.338330156858657 7.114681085182893 7.315940347450061 -0.31470868336834834 -1.2107707880866307 -1.1344049104313818
Ni 5.927598113661449 9.193487771290336 6.100509334446141 0.26440376446620917 -0.8041886183457376 -0.18652556393149167
Ni 7.800579403761767 9.282183125716726 11.38881891094934 -1.274696125985682 -0.29009859812915195 1.4632191799631769
Ni -0.09072360848717068 8.089258558898502 0.10734467070320859 -0.3476583988214916 -0.1553869335451582 -0.24576018122309287
P 2.9564341747221046 2.4869357508135845 2.7355296367886024 -0.9138114582819037 -0.28582696733699164 0.5274844392456206
P 3.270669144689889 2.895772887676912 10.141848873386154 -2.096475203719673 0.529750609571978 -0.8766063099865161
P 6.4769689402482715 3.60733882195376 11.392391880321453 -0.6450136785130569 0.18216651563184755 0.7394132737415653
P 9.194848015171244 6.333034640822504 10.560842187335636 0.021361496394911597 -0.6392034995891831 0.6637917304515084
P 3.0084867950141465 4.610854086724871 6.883338072974252 -0.04883990432083846 0.6815544537515681 -0.5878662827677875
P 4.753828762042874 7.014721793413907 10.003334120984526 -2.2319060058578786 0.5556308197728496 -0.29107767421296965
P 7.0987308281683985 8.01080230053457 8.085255156188731 -2.455660372233842 -0.14146543836805958 0.660949633017023
P 3.665279621237134 6.780694628725199 2.7400706153335004 -0.03167059163040352 1.7080355092157615 -1.2919685399128846
