# total energy = -381162.7567637254 ev
CRYSTAL
PRIMVEC
9.29171167560728 0.00000000000000 0.00000000000000
0.00000000000000 9.29171167560728 0.00000000000000
0.00000000000000 0.00000000000000 13.59935925787118
PRIMCOORD
 96 1
Ni 3.843702285559648 2.030015956051755 9.031279668380758 -0.36892270751690653 -0.7569854782973737 -0.3139481510532399
Ni 6.533727091051471 3.8048536398857413 0.7234257094230814 -0.7399917719528546 1.6631309353935875 -1.5980804827511574
Ni 8.342061394750187 3.6531292832224507 10.680338241501046 -0.0727575914787005 -1.0245727826978872 -0.16064766772346525
Ni 4.356112298230999 0.8775036566028037 6.91915007051747 0.7463349405620631 -0.7369866665779436 -1.3773829009236473
Ni 8.053126334746409 0.8853040483854501 5.202529604925498 -0.7681373811491352 0.7511259341928032 -1.25159399275058
Ni 5.194745009052358 5.860681970413008 13.662732323557536 1.2173116745289423 0.0705623835995946 1.594042822346674
Ni 0.1342754516857665 2.4691608237485183 6.102794237955664 -0.16921998277350855 1.1077981064771307 -0.09446053037343087
Ni 5.259248070106714 7.149275101087176 3.398071803253847 -0.8066923586041979 -1.3379943718236957 0.6931879242254385
Ni 2.5659897490218455 1.70205570785606 5.593212622257079 -0.3357518771918927 0.5197158510437953 -0.4062826362226035
Ni 8.497836937616256 4.783140774165319 13.617038474040537 1.2280817685612528 0.6837326923498095 -0.19781887745712382
Ni 0.4325347441539704 7.501291590289746 12.804082478707166 -1.651324943897595 -0.6177579281208974 0.6719331286117203
Ni 1.9383625140695946 3.227345896625682 7.381908893754934 0.9543050475205758 0.8314587669156003 -0.36947909424100883
Ni 7.784679498543388 3.9432815574293576 4.8156422517311555 1.3281352196414287 0.0629190081217239 1.1668717727108355
Ni 2.3991663612128726 7.288464938971682 9.378675389467176 -0.9320089551265367 1.117443599986695 -0.6316943356963315
Ni 4.601682940784378 5.992810107577071 9.77211897427776 -0.2770350800769745 -1.4449849163433375 0.19209843003357885
Ni 5.594576645501501 3.5679242890034306 8.625338731637283 0.39759667841283136 0.23474069018413765 -0.1479199357441517
Ni 6.422811931183157 2.334468174217558 12.146363106974356 1.388213158769932 0.5108342322834493 -0.7396176764428875
Ni 1.6935909587030034 2.8686858337190113 9.605472128986797 -0.8479742480721203 -0.9395939665626464 0.8439440438668045
Ni 7.740125742024282 7.0201110198834025 1.8538646190937664 -0.6078612378324757 0.22247832787701685 0.24022408189621205
Ni 6.785439554889339 4.897410241875844 12.125664890494281 -1.7397657504395068 -0.28577194572934006 -0.755024497916261
Ni 6.97388475529893 1.016829153474834 2.9398278226217296 1.5925536393956572 2.1221924059801194 2.563510436540301
Ni 1.5973845780984526 4.603680658751345 2.9957760049217277 -0.4877989477305406 -0.1559893430158475 -0.9522304243797343
Ni 4.458246790756132 8.063951178613928 0.11594940914507151 0.778296323960008 1.588050095098349 0.23062538246418346
Ni 6.270678739214999 5.615399370915332 7.084762748321347 -2.6614504408219 -3.2746788565035603 0.6354900552933378
P 6.086963019945809 1.0558171748208542 8.478669995187142 -1.1396191076424695 0.022007100398710486 0.08862129798383447
Ni 1.76484909399915 0.03406620177810171 12.7132792283249 0.49468384777583185 -0.31878413898930263 -0.4351072737637797
P 8.670755688152349 2.3636720233811754 8.375328509341502 1.2837217265230603 0.4276785853998764 -0.160729171693678
Ni 8.44134333185272 0.09516199223484345 0.9403369971052332 -0.4636778863126208 -0.5650443997772656 -0.6821854024673477
P 8.735574667396829 1.7195148337162058 13.099052505313479 -0.3047268895652881 0.3808631677082344 0.5533445948418342
P 2.0167938506238747 2.4831169743828663 3.6492109684937524 1.363840129242206 0.4299676385443692 -0.586557591258693
P 3.262106189250911 4.926679133019782 0.25873978522585545 -1.4761307458185224 -0.5465396561048588 1.9834531082939713
Ni 1.2914456860967678 4.253299510768245 5.264379882353951 0.47599089935201905 -0.5044342422943765 -0.5918370944900775
Ni 8.20287155686568 4.788687925915457 2.4007217937136645 0.8184330440798937 0.4177680111543837 0.2966004038034118
Ni 3.8252117797258585 5.115458835042446 5.8259922947949825 -1.7567915955735423 1.4323764835507076 0.7538405049104888
Ni 3.5713808056718577 1.0887470002856532 2.7033481905747734 -0.2840526490453882 0.009496112415893323 0.664962610831158
Ni 3.33833539018579 3.131613393306319 1.5043336627105623 -0.0705641833718075 0.6722182639523068 0.620600539776015
Ni 2.5675321731265734 6.93886429475242 -0.20179553145581577 -0.5895611539717073 -0.9611742638365832 -0.2205381734315105
Ni 7.2274091028742795 8.377342023217974 3.876864403811304 1.063208492792214 -2.7248643863021713 1.1825997249690536
Ni -0.06536440270801956 2.4229531425869935 3.6487082869029948 0.5645592326107309 0.45300240887664567 1.279624673635551
Ni 5.895776764651311 1.7615133695798886 1.2918721756534364 -2.7675961208427435 1.0547927579246932 -1.163515454644093
Ni 2.091183292686849 0.5328183277534293 7.875021880036529 0.7205501182884751 0.25531440057043125 0.6660519872405948
Ni 5.799142965318944 8.815622761747631 1.90354275449093 -0.5598222321463778 -1.5565682224399837 -1.5376443889522873
Ni 4.522266682813825 3.2696510589680154 10.776621743310832 0.567752542737048 1.0200471269133915 -2.341835064180554
Ni 4.535014910956518 3.1163564030655735 6.328556809988202 -1.8217705715480885 0.40781887036147185 -0.4950008647956185
Ni 7.598817393923643 1.4486893193757724 9.925655214678532 -0.06279199562555637 -0.19793457709938167 0.6584538631783627
Ni 6.493549730636745 2.369683760705026 6.763328069094029 3.7840689001413153 -0.4066001674630223 1.9343632927458558
Ni 6.395382798911124 3.456888336885951 2.9462465369081525 -1.189680543075235 -1.786359024818014 1.5877173943492786
Ni 2.8039226047433767 8.54970327106561 5.8173296321875245 0.848803428841635 0.1894998160684672 -0.36043601020213406
Ni 1.7457917937654304 6.223133051601179 11.257740059250299 0.004187298608470208 -0.023403466525604856 0.16981802136882365
Ni 6.9896806648051815 7.669490151396911 13.272226777915114 0.42815115416092064 -3.1561684842697773 1.2373950755423786
Ni 3.8635400895572056 5.2149637732203615 11.937993689650497 -0.27691243845618113 0.8014691625320455 -2.348319129243001
Ni 4.375773559710546 3.1214482609534713 12.841997307377907 0.2149154279280944 0.04830922862834906 3.848564765831856
Ni 0.8999487148400408 5.796374035299612 6.987024164494689 0.36435488564056606 -0.5912727373461751 -0.5584068398560899
Ni 8.80045868862163 7.280427608546442 8.23238574919254 -1.466118612998159 -0.6465807658898607 -0.2883548759651679
Ni 0.15451930347474999 8.071077921314691 5.449004331005323 -0.2632228567842306 0.7147175707670982 -0.07502890401138046
Ni 4.088548174618033 0.8834633603423979 11.947662644610618 2.259953141803082 1.431672001284515 0.9057618485045498
P 2.561158059055227 0.29800284123151416 10.16259664478576 -0.6617741858008473 0.42323880446096784 -0.09774562888260585
Ni 8.685157840937462 5.885658090855835 11.30420883750425 0.45345518014334807 0.4276248493438055 0.3661929672905694
P 5.82463942160433 5.416259410598862 2.4941499525874096 0.4942138501179489 -0.09204472184308664 -1.387969675300558
Ni 3.5893695590860366 8.1611610640577 11.511449311883986 -1.0643595756775217 -2.7279733642447987 -1.4967018851016545
P 4.975079658089234 8.014221938803656 6.2255693383497315 -0.5410500937451972 0.13470755081893573 -0.13126150125186425
P 6.033591429237625 2.1602764592094914 4.821503463329122 -0.3562764795078058 -0.15293204424676243 -2.425096383404056
P 2.8668367831356325 4.579187707305179 8.922974550265565 0.46585561069022996 0.8089857826240647 -0.06655660487431118
Ni -0.08736717547908164 0.10257120296442322 3.1497201514562208 1.1865929052888466 -0.33502168389408754 -0.12132521597475882
Ni 2.3788639716416013 2.2044957141155237 11.978750852861218 -0.18513768244502954 0.4701771208837193 0.44909227518896205
Ni 7.150650274385367 8.579836291376656 6.541209706301697 -0.1489118673437758 -0.2225354063671974 -0.8841648390600645
Ni -0.16795604743768616 6.202440410147989 4.149695069487883 -1.063022087813021 -0.9379829133217845 -0.8620991175092766
Ni 1.2735219746629083 1.395066852457783 0.9385641385559432 -0.39566732260060244 1.5231338540409383 0.49954169008876553
Ni 6.121045017633418 7.443924563647627 8.138686272343746 -0.4234483493686127 1.0891318975261952 2.999655921760608
Ni 8.283347069944298 2.574900500325666 1.7271182412155976 0.5164932303414396 -0.7331359253732858 -3.0527147492588007
Ni 0.4097170882866152 1.3836008804985387 11.21309338561645 -0.42141306410613877 0.7553415149360475 -0.13178112120076013
Ni 2.0376351594606534 6.475152141917698 4.912985937820156 0.8473343004952762 0.2623047158453353 -1.2337225117867978
Ni 3.825444072512715 6.472494712436058 7.734567440220376 -0.20562346110320714 0.4294328490868217 -2.1043178396925435
Ni 8.216167995985355 4.212323063166732 7.481606170360366 -0.050647904063854714 0.3511666690850662 -0.36670538815061365
Ni 7.012882068356425 5.277729284229028 9.482506548507509 0.4013733718464442 1.1072846571758221 0.24067865293512744
Ni 0.7324135819321389 6.335116758289034 1.5402498442431904 -0.1905429126210009 0.46958859537010095 0.07512454904898029
Ni 5.7204793359778074 4.847392959009869 4.765256087919653 0.45861692684994565 1.082401006560265 -0.11828488648653822
Ni 5.081060919164713 -0.039149697125672685 4.116906478037493 -0.6052947626568801 1.4448882428644727 2.5271954041593507
Ni 0.46291120730564106 5.073534632870556 9.191303381732862 0.6969967564485674 -0.04112428084413563 0.8126568037177488
Ni 8.031532397280214 8.98590266622503 11.803971901687978 0.8092585766694773 0.6333393274989221 -1.1495692768766461
Ni 1.2481648940496364 3.9851221341979777 11.560991788293626 -1.1626063125662622 1.7506271186340432 0.39445479034974
Ni 6.287961322557133 0.3762288309622129 13.231659165618467 -0.9141629280840514 0.35979863372845133 -0.7725355102168308
Ni 3.796518974693325 4.009865961853948 3.7449230300478726 -0.20924588834714286 -0.3131631932580994 -0.11532966051295622
Ni 1.3237343834698423 3.719434936302813 0.4024295989773483 -0.44975921934899965 1.0995811178839772 -0.043592539878970084
Ni 2.250991438332751 8.71619215726151 1.4129190177132904 0.49736139460799506 -0.9627176970643032 -0.3454274526084438
Ni 5.783207680140578 0.005181058318050764 10.617686089372363 1.290230217065539 1.6922970154345822 0.46755048189414966
Ni 4.411017021332437 8.98642300206759 8.886351269489744 -1.4918952077416305 -1.6586908973443628 0.061229536234442924
Ni -0.13814266200135603 0.602101045190147 7.17292715264492 -0.306860133858207 -1.7952316447172951 1.3136689077044537
P 7.830218176478765 7.485272679708111 10.187143488158478 -0.6187565445887407 0.3978861846287922 -0.24084243220650137
Ni 3.1105955419515285 6.514641915683328 2.174646091004444 0.4955947896258755 -0.39733159767690285 0.197421384908389
P 1.3438881056575256 7.856941138678754 7.238326863856542 0.5833377987698147 0.5208551068545612 0.9217060305386319
Ni 0.3246523989108567 9.090592379405587 9.516531866755123 0.425622474201796 -0.25930629533864374 0.5375698485060806
P 1.5612212370406091 7.986579097167715 3.2219195371247107 -0.3732547592333572 -1.667546805073096 1.5362271968897865
P 3.616640732263008 1.2353237487922006 0.5360704267694224 0.13598564620041098 -0.9737590424801296 -0.9751278978031979
P 7.6526721536284885 6.286902067449067 5.9151639206423665 3.032416661131397 1.0508407152554806 -2.3058311352821192
Ni 5.737696877339622 7.259660633401457 11.297300450023133 1.1207014448023602 -2.108293279400524 0.606711954719381
