# total energy = -340858.15771821415 ev
CRYSTAL
PRIMVEC
9.33598209051473 0.00000000000000 0.00000000000000
0.00000000000000 9.33598209051473 0.00000000000000
0.00000000000000 0.00000000000000 13.66415348500209
PRIMCOORD
 96 1
Ni 3.606788563385367 8.779622740356851 6.308438742992241 -1.5603909386201837 0.537938544699409 -0.31721936560534403
Ni 0.3707103689011967 5.547711194599265 8.062342050980023 0.4637205666250982 -0.34466254941796126 0.9780838951077283
Ni 5.489492011406386 8.097928013227664 12.042368233569714 -0.7554934671328796 1.5152305400334614 0.5000620813686097
Ni 0.15346020265120924 0.42699513664225286 8.433529488556838 1.158824991146959 -0.197823248332498 -0.4140566237410675
Ni 5.0269781315862465 2.3896939456620183 3.821644983873543 1.0444566661060077 1.1414103952149375 3.0421511148103417
Ni 9.079830574665735 7.290468273784292 2.1082420990110062 1.0956560717979582 -0.32915545492129766 0.8670744592366809
Ni 8.784766866389447 1.444864568389907 13.031775990865508 -0.21104951721478493 -0.05441431308482242 0.21669514553633648
Ni 6.052311680871217 3.39389083190198 7.186989183888278 0.9174418559456394 0.5313153829559365 0.06222146783406703
Ni 4.1327497762681755 7.1575145553991435 8.011716755473014 -1.8357352612582964 -0.5173684338575413 -1.0399870603704284
Ni 8.165016379235366 0.17201079870705427 1.3376492185333744 0.7585757056026291 0.628728311089472 -0.46936850893949483
Ni 5.694538182103178 8.451341608443576 7.07588633116428 2.6024572501171437 -0.46774511440345895 -0.24445303237589516
Ni 8.470069588155717 5.253282333092881 -0.10479266255079928 -1.1895095647150096 0.8111763625174804 2.2083968669923446
Ni 2.5494045882022 6.228070876315273 5.517912607537843 -0.543872907905973 0.22518647083679927 0.8522175967295065
Ni 5.061203841269552 1.190972540338218 11.392419579328449 -0.6735639793469239 -0.5195441013526214 2.296938717888496
Ni 2.2117314584871224 4.348607014017141 6.987998331058533 -1.8401755564178373 -0.22110715856110308 0.3605781922069532
Ni 7.766509991392515 1.3268204131155714 10.70712116318187 0.7336105510168592 0.8969002843488617 -1.023605276578295
Ni 8.980047600008024 3.6494820086613506 12.094018619890479 0.5213289611671861 -0.18394520479882517 -1.3338222427238773
Ni 3.0527633888800763 2.769332314064073 10.500519617898817 1.578812892770797 0.780323895912998 -0.07992942663679137
Ni 4.942011360220245 1.4152228258245783 7.587348764140331 0.019933762809449543 -1.3629520702102977 -0.29985593462623195
Ni 1.529952707520743 0.168705861110794 12.835217161323406 1.30258488197615 -0.3506100252506478 1.8142904611209592
Ni 4.804137579368347 5.124837893970427 8.65939769970826 0.19100339719718717 -1.1180892039904937 0.7393078585119525
Ni 0.8218082100413737 3.2912137028520636 9.195018853073696 1.9853521250888968 0.8056765157451737 0.4362249323079907
Ni 8.713197229064784 7.6521068690632115 6.950572246776362 0.26218464532770336 0.361155661976978 -0.012537470345378408
Ni 7.764969554377309 4.836897539891729 9.41173220036384 0.5661358330692314 0.016878520922893513 0.005025992459681666
P 1.240845355703253 1.720994905352025 4.442352409173435 0.009254685829048577 1.5722372964358085 0.46337860990464713
P 4.589419331412444 6.76579542640511 5.857904795159448 1.081599336594576 -0.30247408897536937 -0.6250482911347236
P 1.093495553212361 5.585409889553216 3.162704845454428 0.3923986791516597 -0.17121541593698256 0.2949620968690404
P 1.385973194499484 2.4407897746573073 12.875198503854435 1.7781752034556406 0.11807251336541601 -0.9985647886698997
P 7.257017450599545 3.2589205414241986 10.885697957966466 0.2811668428571609 2.444953270228983 0.5230595707050476
P 5.267426345687046 0.4209864986847582 9.47263361115956 -0.7079121178094905 -2.5818943383641275 -0.25482177720472887
P 9.625303989741154 8.652961473779271 10.233740200418096 -1.7120914244526901 1.307189470627697 0.9025608250687489
P 1.1533578692214594 6.224728594791371 13.503408324217476 0.6385172721554359 0.44499419386018846 1.197460701241286
Ni 6.877547129871876 6.505919033948892 4.527124992115702 -0.6747374308297347 0.9100496772466262 -0.14268208438398008
Ni 2.7461510709806993 5.2637106248867305 9.92143199995522 0.9701067904395227 -0.7225416947972073 -0.19104967705409032
Ni 7.881734680129927 8.920185283998926 11.75479291638371 -0.557537292766943 -3.1150436892050095 -0.04272942054772641
Ni 8.471143226075405 2.9820806698368942 1.4037050249417922 -1.4225240162366597 0.10048539641127212 -0.9537383763838283
Ni 8.26872046629542 7.187641769023809 9.355859149425031 -0.40105069839970287 0.4599654704580401 -0.5449864526851259
Ni 7.712398640240186 5.339481454071048 6.801031289331114 -0.6893189281883354 0.09281862389463369 -0.8030753306769008
Ni 8.721282189399139 6.299360434182627 11.481100204298384 -0.283526344228273 -1.0804963333383844 -1.374575513381839
Ni 7.863016036399696 5.233265987877113 2.4470178081896954 0.6714024529192307 -1.1860208348354606 0.6964773936099876
Ni 8.953262667907259 7.791941206116279 13.335913339960454 -0.20500279680007275 0.5667577829239465 3.7848224904778878
Ni 1.460997145130974 9.40180058280762 5.776561318372849 -0.07584780036825002 -2.254180243875047 -0.08712234484080479
Ni 4.6615584636336385 5.4900054904114555 0.794668510628016 0.6351426992562481 -2.1422297842469686 -1.4419962660286585
Ni 7.1739645555251625 9.423553420658711 8.6974931738934 0.28910949474300535 -0.2815820760177086 0.15678509944426547
Ni 4.725659315430031 9.208881852612361 0.4253622734061345 0.5685848088303563 -0.378682872227464 0.1221104308802155
Ni 2.4958347240006704 8.969208525010119 1.3909968863654376 -0.48647097294773645 0.40116074161500587 0.3089059606436422
Ni 5.8755255274170235 2.391906573374769 9.559947448377821 -0.7834390445032121 2.112979372022284 -1.007381358520265
Ni 3.256325138453124 6.015826663565609 2.4768332000185564 -1.396245285045789 0.868612236037446 0.6043737935045076
Ni 4.508074921027654 5.955880323719318 12.05159218369713 -0.8006986029146081 -2.1044278829078467 0.38017745449511947
Ni 6.285879276304096 6.103220790228299 10.794039154767134 0.8464521550006391 0.09206554777869305 -1.9084414306737714
Ni 7.692718390373189 1.096623107152325 3.7784249892178163 0.286865435903835 0.2339271931439068 0.40028605231953646
Ni 3.3721940099423504 7.04417573500762 -0.11185159847320715 -2.565970982265652 1.9912731185590218 0.42852833499468135
Ni 1.1906737889170873 7.527676902162204 11.882621180700083 3.4568245461998015 -0.07571204612133413 -1.9146478165947993
Ni 0.23900580489565215 1.7791394006896206 6.442252305311331 0.41571807060389054 0.8494714014429371 -0.11851988531547974
Ni 5.448525722783816 1.6398745585330832 1.879695394649508 0.6355813294555634 0.43438839331988416 -2.3781644947392078
Ni 2.0654272859701885 7.599545290907999 9.711632880867874 -1.599451394956755 -0.7917298237570946 -1.8722112446971435
P 1.5062953293599421 7.218646564948048 7.494009484197137 0.8432452180275671 1.12042916497758 -1.3109849331143872
P 5.880249534263656 5.978081288702105 2.3341653924557 -0.5566798298626542 -0.6868882072596557 2.8685034352827823
P 5.793452910443227 3.508004538792062 0.5095485566844319 -1.1094533826923667 -0.44815048010098296 0.16590531657797877
P 6.696158337335886 0.8525506648739314 13.347609458097725 -0.9422136635736806 -0.5850933480083408 0.1593428328691127
P 8.94641005718507 3.5850450615161855 7.0903841774728456 -0.2561392104645718 2.626752889439715 -0.11056154970035152
P 7.183655304748095 3.0944858920373846 3.137563046169883 -0.34378014681300795 0.7530946278833998 0.1021643267755918
P 8.059762519178195 8.373890302515395 4.399679503057655 0.4710754643282725 -0.3133609110912023 0.23702640089452082
P 3.2981690093752665 8.915582644917128 11.500721637479343 0.006018181169621893 -0.1519812502977189 0.6045434863131524
Ni 4.829886217477065 4.8094310811115095 3.802406325950906 -1.7733880664796426 1.1393126321456442 -0.9788025184413078
Ni 3.796906499007525 3.1869494568773895 8.263273854448927 -1.2272806128161962 -0.14877842708970507 0.5427521640379684
Ni 4.236323159581485 4.433611129310784 6.05039126939226 1.4315629865104766 0.7224689325777428 -0.0068900422516139405
Ni 6.560422496341456 4.237686212940394 4.911634875878572 2.098476807530734 -1.6640236224111855 1.1151270360383763
Ni 1.11545378266548 3.130345398555 2.592363175364437 0.1912275973928513 0.09241778891178923 0.6147551367388316
Ni 0.19342287321841845 4.016694185140743 4.948104022014932 -1.7195715348798193 -0.5982219149704988 0.5535775367882466
Ni 3.4260719615469206 3.4577769561144347 2.2201655845449233 0.8987111123053555 0.05913048761356913 -0.678736781797115
Ni 3.162386488471286 9.356427710723368 8.73590327066892 0.923931577435041 -0.4302625440769687 0.12059605111821811
Ni 6.906750081287418 7.134165264641384 1.0922370628508473 0.7580915668773589 0.8375962472719058 -1.9077505752543336
Ni 3.1324273225210053 2.1741728032618255 6.14211915885773 -0.5983615258721566 -0.6866742914766367 -0.7336720003824139
Ni 7.717085303159176 0.4021110104584334 6.3916130058314575 -0.8654911739099609 0.01109353881000025 -1.1705762181456163
Ni 3.3354009052337013 3.9138863523440817 12.706405818111875 0.7762821217434566 0.32141849128835615 -0.2301520423721907
Ni 2.3611258410163787 4.031006245409293 4.505481385252962 1.7338136466211302 -0.22372402735865984 -0.9262018615264566
Ni 2.1939930928574767 7.884386098992464 3.9332267724695416 -0.47815911064793143 -0.7904537852581484 0.1437928009496556
Ni 1.3525970591700196 1.4600448749761195 11.038504641883952 -1.770995140767434 -0.6758286070113845 -2.661515489731881
Ni 0.09461084067938279 6.474690174458807 4.8887878609475885 -0.5294384776481978 0.8737073911721663 -0.17995433847187717
Ni 6.4227074271820355 8.852938206298749 2.503299775136178 -1.5348017772971696 -0.9312849324763187 1.1138455982227913
Ni 3.3012125394780374 1.8646756669521534 0.17764599738813533 0.011788507994495826 -0.17784783365183562 0.7546162067342488
Ni 1.238091241039703 4.201658658748394 0.2833367813987093 0.4371988661854858 -0.11112796372678281 1.4002459215647496
Ni 8.145448161151293 2.6239243958105316 8.768478378750478 -2.0867399787097805 -1.970536143121987 -1.106562434297817
Ni 0.682570442232376 9.380981343147564 3.1260853900093117 -1.2931005966347988 0.7563432167276846 -0.01310954079876452
Ni 5.130598194809107 8.618661076240684 4.525376362703895 1.0354140962877654 -0.6906523022877783 0.6229410149837336
Ni 4.16859994680388 7.289273268099769 10.211372121359112 1.6559637282211868 0.7294723604787695 1.0729424322505263
Ni 3.1334449445492325 1.2849298622838772 3.456634231928609 -0.92766867587997 -1.1865201430693824 -0.3907773414981528
P 4.979952790703864 4.181474265858239 10.669681074926835 -1.5545720179455613 0.26459608298267334 0.6275299199059966
P 0.7667576591088645 5.164114369867226 10.380028501765782 -0.8011626870352202 -0.5087117866238078 -0.37868364355841233
P 0.7656046653429375 1.393227252443818 1.2807127992549767 0.29156052738665916 -1.1504768762925799 0.339989312312008
P 3.892478945823673 8.398630654577797 2.9045341368932305 0.4725813594498377 0.1263136703282857 -2.380439149705997
P 6.407919231836057 6.330197182432478 8.357473911924256 1.6327299545042266 1.8237765462345237 -0.4174162842419199
P 5.467776517482936 1.0847570741442831 5.608765715498314 0.5748310468503842 0.7221586004261757 -0.16259013616181678
P 2.0364390621385837 1.69309899140393 8.391839661336215 -0.018992224831786645 1.5436168044856384 -0.7613509543549211
P 7.102077494815546 6.932956182509742 12.628478377106271 -1.0438784250050346 -0.7907746589326768 0.5979653188750024
