# total energy = -340856.7687996569 ev
CRYSTAL
PRIMVEC
9.40986508923754 0.00000000000000 0.00000000000000

0.00000000000000 9.40986508923754 0.00000000000000

0.00000000000000 0.00000000000000 13.77228872183934

PRIMCOORD
 96 1
Ni 7.413712779234555 7.017971492463089 11.823303540662401 0.9157845228478744 0.5235948743832273 0.09643693737351133
Ni 6.675593550690695 6.157138213111098 4.115614342785715 2.4195152897718524 1.0065202960715505 -0.45188809276654435
Ni 9.232743212159205 0.6026388137505012 3.4345330115636448 -0.80479745557433 0.404827906053948 1.4453165886511432
Ni 2.125867314203039 4.220936139923983 7.255475546676118 -1.8546015020351803 0.6219179730358579 -0.4689874714509923
Ni 4.272916234752915 3.426828214017314 8.002485215769287 -1.0433132965301837 -0.2860455111057009 -0.378936897219799
Ni 5.47603335722627 7.834616045291426 2.89300656672453 -0.1752008829472918 -0.6206414203162796 -0.09463562249871443
Ni 5.604289818580063 9.145109138455032 12.317880404556643 0.5357016849490903 -0.7618062967247848 0.6752321110779661
Ni 1.6936910297527843 2.007030127817343 7.961567358355433 0.4933435316978535 -0.6321810455247628 0.4241042377850567
Ni 0.6265577498557987 9.263249994823108 8.474130238407536 -0.3783622556632516 0.8111131133797127 0.5347380354842404
Ni 4.245994610693253 0.030180260344828933 4.652210018310861 0.6236812355838678 -1.7878451224452372 -0.8932410903297198
Ni 1.320618108014427 5.754226609131151 12.996316622698263 2.6562696679519093 -0.9595043323333281 -1.2265925856102358
Ni 8.821174532284504 6.251914374428442 -0.022343724687056494 -2.143383695345754 0.14008861262519098 -0.2600876535893585
Ni 3.551659484473617 6.789038884372377 7.004710169573442 -1.0246440022554548 -0.5978976988618606 0.3623918483769243
Ni 2.190211971777304 3.5213314892466716 9.82662426445835 -1.8310283427009302 -2.1326364841315786 -0.8294036841587845
Ni 1.9951548780573656 2.0142569042164413 13.5114135794226 1.3973817126430772 0.3068529347693554 0.5422639115476402
Ni 6.477976973662742 0.8567813914386422 6.486968099768652 -2.168485118399072 0.7557107253500082 1.607497405189683
Ni 9.213274201261113 6.26800524375456 3.5455515410352643 1.1378612444110985 -0.16641285234201664 0.6380871265965526
Ni 6.19285806104206 1.4651442261312941 10.570438343362543 -0.8483298316393261 -1.1745303176973578 0.49311136108238945
Ni 6.544994032926257 3.433236332152452 2.325464667835172 -0.6932362609648706 0.9269744780264229 0.6392973448545699
Ni 0.33750269066253386 8.387078635353237 13.418024432221436 0.4387821515122056 -0.10734484253526673 -0.0587569063242343
Ni 8.851728364273923 7.597732101188684 5.556719186538393 1.6372836353131806 -1.0043356297154058 0.14199148607485867
Ni 8.54724394927128 5.024830325537764 1.7530061144294995 -0.5441899249257596 -1.6670143296083935 0.35959911612313555
Ni 2.176266551694669 2.7941465239524876 2.9144779969165393 0.40099696234363197 1.1860012944514349 1.0680856183788574
Ni 1.5066699608308014 6.884840720985947 1.207445660420732 -0.5645232371664729 0.6236377839404421 -0.04302741140411945
P 8.151069808705076 0.29874157433028575 5.536515265175757 2.903419016213045 -0.9246034066910851 -1.2351528164754213
P 0.1691385612802551 7.666282968463986 11.367949817476964 -0.04657193422226818 -1.2077690251458295 1.3736152063510987
P 0.24420199619333927 1.3821303961926914 10.065945363622767 0.45056166064563696 1.2630117476692182 -0.6122035739615714
P 2.683787626024588 5.3366544353207415 8.809734018292286 -0.7953954455341399 2.0915937072576556 1.5345179275081637
P 5.089965411780681 4.037537869066652 11.51045187361018 1.0974820692631035 0.6224121390634572 -1.0873686349781853
P 6.338541592566595 0.12395991694776587 3.4964122844809253 0.6194949654166622 3.023447624863567 0.48168692129553176
P 2.9532673428440965 8.650009086061065 -0.0105117603065533 -2.4108301032930286 -0.7492647126143483 4.1860732207035385
P 6.253843396774556 4.219392922047092 4.6163744290391335 -0.3355449033874092 -2.2470729434063044 0.2115583385304034
Ni 4.232613782516797 2.312831923934404 4.13628687543048 0.8220948092021971 1.5580234668292716 0.38150671482950427
Ni 0.9120530570806016 7.0818738863775135 7.866014883167093 0.9400487947118777 -1.3542763968131708 -1.1826974268891826
Ni 7.057427056839938 2.0718264589165516 4.6518938468434 -0.9074677754520629 -0.8072101787808809 -1.5476462373600057
Ni 3.781721276376689 1.3223118837329657 6.423712163586803 0.44906784970892977 1.1292398212906745 1.5343839730334607
Ni 6.725898689531295 8.174340405104775 5.240287065814481 -2.088135059285094 -0.09773508735964458 -0.03232339472305401
Ni 8.623849661074743 3.1728935943479493 11.271764058367193 1.3291045255332337 -2.185141238898514 -0.13365956917039562
Ni 9.299289778167571 2.7850565942629966 0.1181201546648485 -1.2526720563061071 0.8167649123488514 1.1576587387529997
Ni 1.0058581203193167 3.4068228408083514 5.4707111375240185 -0.03709793329356192 0.5665364109417598 -1.2974511602940106
Ni 4.26808897395508 5.197736596805257 13.133695007282897 0.40545268412214047 -0.06940795828017723 0.6286370369272465
Ni 3.2799119901642872 0.8262680218691674 2.5368008281832877 1.5160844033933245 0.31820075568200684 -0.07867138585997419
Ni 8.000351999350439 8.474129297421024 7.661593091696655 -0.766787294879144 -0.6624627272274397 -0.7890209094663637
Ni 5.874004782027146 3.4966870525419327 9.552913872288535 0.850119062329265 0.4223872550939499 0.05505631754419551
Ni 8.323213880899226 9.149042462068083 10.565755994487294 -1.0035473294861554 0.8945960616957174 0.5192489387097057
Ni 5.402730508073956 5.294272402896861 6.348020149684839 -0.5322283816885092 0.25653593168235816 0.32603850655887073
Ni 9.213481218293378 1.7576028335323115 6.627087578057787 -0.929042159188729 -0.3925907405578077 0.2688209196972983
Ni 2.9727645833374976 5.418153276977761 5.106682037136147 -2.073758221738132 0.7663049559260867 -0.6213608149808073
Ni 3.306287842047976 0.3466970698546682 12.166068227890529 0.3390179495376742 4.2494555416149264 -1.0407735608274655
Ni 1.2516061573490773 0.4563182343584935 1.5420416437529514 -0.4372819128175953 -0.36226046500538256 -1.3480921223793298
Ni 5.280778656339169 6.565836884129386 11.324526112986185 0.34204748039261734 -1.094241965059251 -0.7821689195415368
Ni 5.0441205489989 6.360363069740434 1.213613826995744 -0.2254404958291343 -0.24859636512030736 -0.1355182196456892
Ni 8.323646734693963 3.8159355458911715 4.13628687543048 1.911649653198424 1.4564399522578144 -0.8417148974259698
Ni 6.624902607380873 2.681171683525956 12.592168562443781 0.23372613287669425 1.2822610828171337 -0.4779415953204866
Ni 3.384257984291375 8.392028224397412 8.818520009338949 -0.6575400931148419 -1.0765545750818168 -0.26560678363537477
Ni 4.667688305418774 0.07173610661266591 0.9330379972467858 1.5859633877726493 -0.7939445720202262 -0.6442444044472001
P 1.4634128109523432 3.6106499288042797 12.073408345234848 -0.8894903650380359 0.29000038198839084 0.4265498711120719
P 2.2899565418690284 9.250546676934068 7.1227936257643885 -0.1056420009115471 1.123630188413381 0.8495940430637304
P 0.5274464636855061 5.546447377791966 5.704468183453035 0.26599064933735483 0.8206791598015929 0.015213217405328638
P 6.529740641594306 5.350072902957608 13.822419971928126 0.8360471576172311 0.5502813825354782 0.010717900638136381
P 1.8624193209145485 9.190897542046196 3.614028070376254 -0.5392197254046779 -0.9340802358332687 -0.4532101540120776
P 7.482385974756197 0.5240438564642639 12.868302935864127 1.4130726410157728 -0.07742311527516989 -0.3181102528507295
P 0.17417189812384598 2.648886436357587 2.585141187190383 -1.898229780248092 0.24081337874077885 -1.231013597496067
P 4.511108150104973 8.6655259536159 10.576662969128174 -0.1967313008198999 0.39535236246334493 -0.21308557380820722
Ni 4.148658966067895 2.524139854687211 12.671001589317124 0.25026372552040127 0.07231896127938513 0.6248829692014528
Ni 3.441225307624893 7.5856216048011325 12.086794819330366 -1.228670294074871 -3.819004021455603 -0.2353947788283688
Ni 7.495719753607139 1.1441172682775904 8.704141217039052 1.4929169641379256 0.7914696281171724 -0.12102825355963026
Ni 4.632645967775228 5.861113266836047 9.059948918286437 2.2057709993337236 0.44092645154871807 -0.03863468165306249
Ni 7.090700339844121 7.8339197152738045 0.27009418101073435 -2.1924686257978627 -1.2439267060133095 -0.8385580969645429
Ni 2.1230349448070385 8.09446006024547 5.462089819116656 -0.16772411495427245 -1.539141542323104 -1.1711572874600669
Ni 1.7538671170864233 6.766897471785034 10.371456394908147 1.3549029746535763 0.5065137505312245 -1.8459332848372212
Ni 6.239719189254964 8.303904837707885 9.429927876378931 0.21566850404403504 -0.5338561470999192 -0.09554887834160318
Ni 8.470431220435549 6.979748620414732 9.53881130745868 0.2616040902338849 -0.8007410261167693 -0.3319412451965509
Ni 1.6893436720752013 9.21380115370688 10.677723979347807 -0.7168765260916299 -0.4962717610882421 -0.26515246970677564
Ni 5.178813358083138 8.419241554275267 7.083033181758202 -0.04769293520058883 0.12048009436564412 0.3815743348426461
Ni 3.0627323035872123 7.332722070293097 2.884908436816895 0.8635250513225258 0.7581669001999846 1.2289145488751931
Ni 0.14147449886396643 5.273664798321307 10.989969651087398 -0.08035545843061645 -0.456144296939737 0.4551359102798807
Ni 4.654410985758451 5.339590313232875 3.5173050079691004 -1.1367646689128101 -0.448912297967672 -1.3091913315490744
Ni 7.256897377293181 4.849995031924157 10.819427137933774 -1.456003636051344 0.9394055047009242 -0.163878258845621
Ni 0.36934191022502044 1.0573583120279963 12.32601899688422 -1.6464552745101193 0.032239576759996086 -0.7096111027784683
Ni 3.4529876390036343 1.1253163578018106 9.810827923909956 0.9809211074462074 1.5817732609507018 -0.6184408131205349
Ni 8.270772702680247 9.155544678854252 1.461446149145818 2.211288072497211 6.413162779009381 -1.6934671244832833
Ni 7.8377871698311345 5.2268507194339175 6.3674665769066845 0.35458469362767964 -0.3307652226105787 0.4677155467171042
Ni 3.3521797541552716 3.6696403731349414 1.1070169931360203 0.2788027135003585 0.7448249316754398 -0.1471678880694756
Ni 1.5944169529162098 1.1891528826605142 5.215909869278668 1.1132539873853795 -0.4741638734456091 0.15383990077301246
Ni -0.03036939863339909 4.8344028854484975 8.551695756451506 -0.5104323688593403 -0.7580679127282751 -0.26707282665794
Ni 7.0699986366175365 1.7390277598190036 0.8349335666425135 -0.1137278632434751 -0.32840674968073114 0.8741812454847913
Ni 2.9848186205344316 4.968220577078159 11.257317092474567 1.40022663829104 1.0817327768486467 0.3292467290835233
P 2.0926316706592685 5.414238773094916 2.634583441401038 0.3631688357522649 -1.293512487361237 0.33055104971724364
P 7.991582005074449 3.0847137484678036 7.6723212789005775 0.047183085443705836 2.0043384363834127 0.7069178722170213
P 3.60427004026445 3.600562553413871 5.913311670535369 1.2310472789474798 -1.5272753870131375 -0.9186261060617277
P 4.582990109626735 7.222231434253755 4.990306471461394 -0.3553557674657493 -0.746830906361875 0.06894335993893289
P 4.93225607265452 2.209135210499423 1.2906448647018638 -0.25329119949281537 0.6571639407223456 0.12255600305806634
P 5.402476441716176 1.5430296795887657 8.290077981925547 -1.093663981068594 0.10687664464959658 0.901439824090428
P 6.921191029878808 6.398482433272659 8.142865347321775 -0.8498059019642203 0.06299819809909149 -0.5615857518047037
P 7.96152689593549 7.593403563241307 2.3781984928588535 -1.5401378447981025 -5.7797483752981496 2.772054156614097
