# total energy = -340890.10683653195 ev
CRYSTAL
PRIMVEC
9.11442926918161 0.00000000000000 0.00000000000000

0.00000000000000 9.11442926918161 0.00000000000000

0.00000000000000 0.00000000000000 13.33988853607793

PRIMCOORD
 96 1
Ni 6.763808773970669 2.0305125308957237 11.356554139115891 -1.2618956317869041 0.9219528564421156 -0.2181316208725469
Ni 4.797552968736203 0.2692438835069218 5.9619696019094786 -0.9463030031517056 0.2144225474520759 0.43106652803550277
Ni 2.648935664632171 1.3371505605086587 4.672402741778087 2.3019099458508423 1.4029692340331839 0.11520213379615644
Ni 3.4352830414300373 4.513848131905288 4.474612337206483 0.5677959943804737 -0.22168025745575368 -0.10296316852780334
Ni 3.8524504646237587 2.828289401875039 2.4482432258122633 1.0502498757490168 -0.1047552274312196 1.0211408741982027
Ni 5.347453823958986 4.976396297945449 2.3318127732428167 -0.598970105990433 -0.725464524870957 1.5364783936686441
Ni 5.216998999222877 4.726214331608449 11.363450116227284 -0.5976007364467322 0.8411176301616029 0.6069194427444967
Ni 6.044981088477569 8.066643508647465 12.391529472076964 -0.899250015527961 0.2802808407077818 -0.31973493293834615
Ni 1.8216645008528805 6.782037632314288 0.2770039085038004 0.7394806366443909 -0.39960445287147955 -0.6330009703228969
Ni 2.918613394967671 1.659145114290345 0.30221350815010833 0.650140715326977 -0.31466934548998066 -0.120487807675128
Ni 8.065823210022003 9.102306981011008 6.553086817290103 0.2797565927731956 0.35019144965599047 0.8063802266804178
Ni 8.786154776328452 2.3582947472015094 1.4398145792570038 0.5936044708031455 0.8363939994336885 -0.5746798659845007
Ni 6.705968606446366 0.8027515264212887 4.647870344219244 1.8024438461950185 0.6698536203748722 0.2844336865338908
Ni 1.024489182198905 7.646276920814438 2.392842079534336 -0.18185489792869972 0.3199578475824296 0.4736877051401391
Ni 7.899585136357369 3.899125456412595 3.7724667914265444 -0.07143835844664471 -0.1180714849241515 -1.0584041294250353
Ni 7.447062842406198 4.056522533780574 12.635302171820348 1.4202994977815153 -0.42432252444344987 -1.4052068651144507
Ni 8.30647148344529 7.4379484132343885 9.30946793021415 0.732514489739203 -0.8607109789124983 -1.0284366365286675
Ni 7.150461088297173 0.8253753625115543 0.2629649532504622 -0.5607131193917634 0.720825740547365 -0.48952904304776984
Ni 1.7857445354867791 6.66513596375666 9.160861719782382 -0.738434968988696 0.3041265369771278 -0.14679250700792784
Ni 0.10579938238344769 4.771285183863048 0.9486890319915511 0.9134468758536333 0.8381048114772083 0.24721876804649037
Ni 6.487049132168673 2.059696933103858 6.9395832748777675 -0.4458020344734645 0.46333850069533106 0.2518266991321469
Ni 3.6718480505843534 4.787381265780463 0.6711008885778378 -0.6720071763827653 -1.2929365602531089 -0.7120117418001609
Ni 6.523944341456159 5.6929544905747695 4.30520882229048 -0.894197540705718 1.4743307164953061 1.4051024783261026
Ni 5.143327068227141 2.992330898109267 9.246610269430766 1.3379920578308504 1.1376660976811568 -0.0027068574082017897
P 0.28070527819047225 5.656751977904342 12.171647514078728 -0.013061461169648474 -0.22077188670887138 1.421336680796778
P 4.091002419337529 6.3181131874691845 12.62161503353304 -0.004990511236055922 0.6836128789424937 -1.1976573906331245
P 2.651241615212639 8.642620745730797 1.2363540882976172 -0.3430080445336738 0.33623858702032416 -1.8789922721747188
P 6.407051787327702 7.878120655657757 5.789938397063243 0.7394374421112814 0.11517513721296294 -0.5527671250718094
P 4.959753350277725 1.299289221728962 12.669051991600641 0.2578014286583431 -0.07860299451588398 -0.3163631882526358
P 4.131105907693491 5.906769884516248 8.134610718424566 0.7926119692517317 1.4612574282511157 -0.4571855937200578
P 4.7752773038403005 1.1652433118991592 3.75916701637904 -0.09338992301707141 0.006733976289723887 -0.45592035385438895
P 0.3527593980082124 5.929473927583227 3.530681948685533 0.36538306979476426 -0.906156255729491 0.44268020101503114
Ni 0.7110494316378788 9.27356710514931 4.621031084637016 -0.7192630240459355 -0.4122414249091997 -0.13400846786938211
Ni 2.2299180123165723 6.534398591716225 4.86647172491884 0.09777493945864452 1.6370905454657678 -1.5995542390832065
Ni 6.215776376728107 5.925764354910299 9.239966762007434 -0.8557888590205325 -1.2321304847093295 -0.6931329026177869
Ni 8.789408627542787 2.534868583546975 10.025126528684213 -0.2814491499842701 0.3729017467693126 0.6222280480771091
Ni 2.2384308891630424 5.61276574272119 6.961967401480814 0.37931099272976604 -0.7660666146630355 1.0227025622583679
Ni 0.5342650519785443 9.241757747339694 8.886299566853708 1.34224980466594 -0.23196492721121342 0.49684897374795084
Ni 1.3662073607083873 1.1468139361137604 11.194007409265842 1.662952500834194 0.7530205801123547 -0.919730651979816
Ni 4.398760234752849 7.064320618194402 1.3889360127341286 -0.5097492267493867 0.973062273523421 0.361369577759997
Ni 5.683311424510995 7.8756141876355095 8.086333409987326 -0.24795204666808907 1.3194500331626051 -0.35311839349479834
Ni 5.425828800407376 3.059258151517864 4.578649900431019 0.14499402034660835 0.40936590313361754 0.17208547724676168
Ni 0.6328713268595999 7.4079801701174794 6.503836087817312 -0.38671808382711464 0.4316859067870566 0.6912945638574676
Ni 4.872628521824398 4.3787905204374145 6.691020942604599 -0.25025318399744 0.38298304226471463 0.32636452243972175
Ni 0.8088800685964134 7.676135790781286 11.41207468441597 0.6826461441538502 -0.6194900803206557 -0.6439435853773297
Ni 4.8359794021245515 0.4953473508578348 10.60838619467582 0.7231664728653998 -0.5314470234377944 -1.0123150483764565
Ni 8.310563862143432 7.628066291329164 4.384687556111576 -1.030007323449897 -0.9398045399115558 0.33803038881342434
Ni 7.214708699529258 6.140801082360802 6.949254595671976 0.18355593978020648 0.3810205192217051 -0.39131675894139056
Ni 2.2017361973173375 5.376364793291966 2.467585867400677 -0.057363625521133464 -0.14059897660270623 0.2579739496804654
Ni 2.3502922783886606 5.355447178342663 11.501984882424201 0.26132101177582734 0.055134479080298594 0.03375498496325799
Ni 1.1132819511906733 3.2702298435577384 4.11742332662077 1.4499995959491094 0.23545777085582031 -0.5332293121491978
Ni 1.577607430919337 1.0762500254656113 2.47284215870406 0.13408251564042714 0.8933097387841261 -0.26291766683898593
Ni 1.2765760642328126 3.213091487079665 8.175857156198672 -0.010603743657775286 0.4868892914320776 -0.19173127650214722
Ni 3.7510433256582063 2.2471442834512922 7.109373241590655 -0.5891261233168177 0.28056031962141353 -0.9443597633824059
Ni 4.389709606585242 6.950909776009576 6.1279041650826915 0.007134039941619971 -0.8063984815128629 -0.6257448029811159
Ni 0.9009321574600208 0.18075553644949194 -0.05565543885182045 -0.08723675893148201 -0.23309801237439212 1.4917653670319857
P 0.08695621151364868 5.786842225473579 7.9816149989036544 0.6967851546583935 0.7789943784682971 -0.7123873799720247
P 8.604941695534535 1.7895087947347368 7.989779704555762 0.5266992243401639 0.6047936546507454 -1.9507221937198533
P 1.725798934823788 3.403655972203858 10.469091285085971 -0.08022278950749409 -1.3711217505052837 0.6031556048266903
P 4.450302331719432 6.533687666240823 3.8069503227551684 -0.8712820695601252 -0.6476616576588652 -0.68331360253452
P 6.898438007267468 4.117543637085839 10.234789388695015 1.462669992327926 -0.9251988741832389 -0.2192729335658417
P 6.492891481267804 7.892667284615965 10.229092870462635 -1.1831270582274334 0.46742475494956276 0.35895531189154956
P 2.4010231911589526 8.660548827911745 5.903474106927723 0.6871797703581456 -1.0153659193876383 -1.1255903974635453
P 7.146405167315717 4.330611647835229 1.3648839455926405 0.42187894799896375 -1.3578492017660937 1.552918027281906
Ni 5.556885177468826 3.062120082277812 0.49905054343034105 -0.9402897070780902 -0.07967360187224343 -0.5423148193902337
Ni 1.4590925083982982 1.1796076522739312 6.896935949339953 -0.4479897861534027 0.48441486174965603 -0.04492591397841295
Ni 7.199688120254116 0.6841080904489271 9.0446044413672 -1.6311752084225972 -0.5620297813206578 0.7095452825375393
Ni 3.1284731266485855 1.733600886194857 9.326902921776906 -1.6143661072850581 -1.0236042481370307 0.20384065817117153
Ni 6.517691843044297 2.0357533276695143 2.4519646472431127 0.6174357688947882 0.66945329961266 0.8151109216851962
Ni 3.974118979638244 6.9627129617870684 10.039200118768402 0.959440054754296 0.3713243749798637 1.0002208362160838
Ni 8.448893553683984 7.410076488826995 -0.05028339429795591 0.36416128157252126 -0.31629042603317137 0.2252489486436185
Ni 7.949887670956585 3.99832690351857 8.07132650235594 -1.0068175155969952 -0.21446805597803065 -0.1862746242629502
Ni 3.533527473472972 8.532919476218897 12.257769755323157 -1.1184404166823254 -0.6490647086539789 1.0298399446340973
Ni 9.145418230993668 5.0302808032091875 10.057021562128043 0.3768141944498414 -0.6290954646209037 0.06470901014261114
Ni 8.61175928855505 2.736561786689948 5.938838092114343 0.1992332413061472 -0.6417013263103722 -0.303279101375168
Ni 3.8114173044922723 2.9375896365033785 11.326646051231517 -0.8352763408894777 -0.9274015382615125 1.2546186385095166
Ni 1.356792155373908 3.2929521154830597 12.812308943551473 -0.3637342213374316 0.07190244256725682 -0.7078100450139875
Ni 3.1876440008319724 8.400122243185631 7.799912473263212 0.0013873672658298686 0.2802798122665173 1.768580360678354
Ni 6.166749862212943 8.086950456842256 3.308518649065593 -1.179913436386142 -0.6165777917698672 -0.7206341933618492
Ni 3.4628268463872454 8.615860781682363 3.121000206170619 -0.0996544158695445 -1.2380411937668099 2.7976212064499237
Ni 3.104456605780867 4.467792921300134 9.294527557915721 1.0623965384138798 0.029335001518691412 -0.31743739515342106
Ni 7.451273708683574 6.174342181713062 11.261747669756565 -0.33894004511188724 0.020752402056002973 1.2372032712465466
Ni 8.335610313507564 9.19983137314937 2.212473906324646 -0.1992054733920053 -0.36997377448924024 0.8097231750107217
Ni 4.892944584448361 0.5313985640040102 1.5314856849812295 0.11876825388085997 -0.3986562300255973 -1.0840439414803267
Ni 6.10538241059915 5.896069544668545 0.23010379031442021 0.40071979742284536 0.4383265520320258 -0.7955191155961977
Ni 8.15038688387805 9.189987789643816 11.319068314818075 -0.4195243317238581 -1.4704974587921449 -0.745209311598052
Ni 0.1817490092292192 5.0956768325169195 5.550033861060376 -0.2580053171390331 0.33914213382036434 0.519499621267931
Ni 7.721598563490273 6.305061324895153 2.2210378239744784 0.21799175286057296 -0.2376100413121327 0.47106826523942097
P 8.695147201047934 1.77547257381015 3.6537285653907956 -1.0760025592330889 -0.08840609664923484 0.10612382564397206
P 2.0158929865041415 3.312074187885516 1.6578809429642152 -1.6472335474370405 0.18357573727454835 -0.7041199977569099
P 5.078377645948826 1.0427544982592112 8.368485148087364 0.002001603811061069 -0.9515778783973999 -0.6732567325191502
P 8.776803371998176 1.7884059488049477 12.297629888420232 -0.7062072193032418 1.5663864940819863 1.8322920399047027
P 6.8038484613224295 7.942823988348433 1.1518059089711605 -1.6582219281277444 0.5539865993012072 0.5430635246308002
P 2.273457640470306 3.6090314047322423 6.124622970580839 -0.46713267763044064 -0.8760784625075041 -0.7540256243381014
P 6.86696588333721 4.2543512189546995 5.88559888843597 1.03081336429096 -1.4303715373055366 0.1772531374906302
P 2.375958510936476 8.543647159354116 10.191474886941824 0.7307576549490964 0.768728991986547 -0.69227132594844
