# total energy = -340897.9663448884 ev
CRYSTAL
PRIMVEC
9.00221713066289 0.00000000000000 0.00000000000000

0.00000000000000 9.00221713066289 0.00000000000000

0.00000000000000 0.00000000000000 13.17565472878396

PRIMCOORD
 96 1
Ni 6.471342818912363 2.0382730037035235 11.469895006065872 -0.20287135227936676 -0.40621604465072625 -0.11587447727283269
Ni 4.5030080402066215 0.2746720486346129 5.948755111440847 -0.11179259389397521 -0.652775838956979 0.19250852098780394
Ni 2.797853079728469 1.5790879115826797 4.717476861463816 -0.31047381935139434 -0.0833353669945468 0.7712335035759555
Ni 3.511728899309376 4.162454165619664 4.928788605168337 -0.40959267443244296 0.5511085064224638 -0.5285360204385865
Ni 5.04841636814015 4.336349994205344 2.728348761597066 0.2263900042265972 1.1753222174710338 0.24742702740255454
Ni 7.136759703602929 6.123227081923792 2.46069844233538 0.16579913001741767 -1.0173387268432932 0.3637527332801929
Ni 5.164725013650684 4.456304537659513 11.420143352793541 0.35416457537112556 0.14467314667207987 -0.5836267907651432
Ni 5.701815292942438 7.841066166358937 12.267179968380008 -0.49675564270319605 0.5316570825660715 0.22125242588971572
Ni 1.9305704777833974 6.479147741176886 0.4111816694180287 -0.4570218144486839 0.4741129656030157 -0.5028733255651597
Ni 2.69839658471296 1.5263439213314245 0.46001329609816327 -0.2848612609896126 0.19391877107176927 0.029568971906368424
Ni 0.36807995395054544 0.10159992291768065 4.810142083865305 0.14180893775040737 -0.09180278103560964 -0.6797554528696165
Ni 8.536820522827407 2.415456899852583 1.4054072359867602 0.1273174290024517 0.8089161057283941 0.25391006402373695
Ni 6.760827115636994 0.5841547707463685 4.877653311120853 0.03204751535384803 0.04286466057401005 -0.8584543216678376
Ni 0.8311125936790673 7.285710388480429 2.5261418603127734 -0.7678962116726066 0.4134537000497461 -0.34713415088690536
Ni 7.452908567510393 3.8015462780683635 3.82105858372967 0.5450946961282161 -0.1710917458749247 -0.4627324916802159
Ni 7.735281112690649 3.9514511979632094 12.453668098307803 -1.1777074298737589 -0.3409012826033161 0.2638491775143198
Ni 7.787953085204746 8.815772225492646 6.920525547563644 -0.4425763284473152 0.9146771487163087 0.7981658091904253
Ni 7.031775847260527 0.6217714353075383 0.3621285881961326 -1.172774511348516 0.08935560504669773 -0.053117705760585936
Ni 1.8344448031114566 6.516191864727648 9.223551056829947 0.6656681215386149 -0.06347693750772293 -0.3487704009387477
Ni 0.31168646486879725 4.926931447771369 1.2518114070625557 -1.6364881359950785 0.25080519984616806 0.5596450831385652
Ni 6.202734663746473 2.0079355319256207 7.0164180648115355 0.816688036364329 -0.3809971221829374 0.11212529464304562
Ni 3.363129300900523 4.3823603260323045 0.597704007770974 0.15435746383937932 -0.38923313693948447 0.13420824258501401
Ni 6.020781850816218 5.656318087492729 4.814265999539327 -0.3450821534538831 -0.48264594277469136 -0.0415881078544316
Ni 5.232835788568075 2.7108286465898983 9.219058050252992 -0.6772280584620723 0.5403129584688566 0.19520509398336058
P 0.09790721344489266 5.722871478844074 12.30907898763695 1.5281819579878069 -0.5979298376513766 -0.1051617188410189
P 4.03037363567148 6.095626284157903 12.605056583588107 -0.9190673073642042 0.37125701207703804 -1.2576383991724471
P 2.292279562660583 8.469582962973059 1.349543077273125 0.6564098361651404 0.11452953320916405 0.061731929792158205
P 6.288642821959091 7.593991314603357 5.868910846696951 -0.6540469923599188 0.37590633792359135 -0.622004104991761
P 4.666155221521436 1.1660121756773896 12.48135081624971 0.11376077336393955 -1.3137293286287437 0.15216405573248631
P 3.991277006611708 6.118671960048535 8.173359606493847 -0.15856044617713336 0.1279334653198958 0.16708288182584774
P 4.736498546290732 0.9636963475656454 3.7481973388249794 0.05820540469613847 -0.44493428715653055 0.08851305454074433
P 0.003485658478458098 5.455055518786923 3.578876436992276 0.8032751053925328 -0.12851067797960447 -0.7867755650756127
Ni 1.4375910625010566 1.1160948816095948 2.5924152827109155 -0.4758417753686644 0.48412689819559207 0.2053748354275108
Ni 1.7902079080620168 6.461737453218886 4.592677324742327 0.14066993904995773 0.10790945678948513 1.6935123758989221
Ni 6.057033779258239 5.676870149234257 9.142362761066337 -0.5398064511460833 -0.8951923005188196 0.2808775937515163
Ni 8.620280077976645 2.2871122900194805 10.144701125725945 0.2927064680656443 0.7364773310416929 -0.07657542256289393
Ni 2.379601068964931 5.246330112068098 6.907047428054482 -1.0945034462507537 -0.4535102017509996 0.3430414688747705
Ni 0.6910858066571867 8.977308009938547 8.914252880169661 0.09869436594912036 0.6594403954613482 0.23064877950295112
Ni 1.5235262273651087 1.1245659679428308 11.318097820127194 -0.1859198120266927 0.47867230283892404 0.5721046490581566
Ni 4.048053990143823 6.868007512962723 1.5474937302913663 0.385944953106516 -0.11988951196949674 0.5837586883573171
Ni 5.587829219455257 7.839085678587086 8.020970074667042 -0.5898923120588808 0.29614403299228353 -0.07242283384710108
Ni 5.427607758712496 2.7277168059535026 4.831143356242357 -0.6187881691576246 0.31504549788247677 -0.25108185054632237
Ni 0.44206917666347706 7.369971140955552 6.751219049278372 1.6602471860878893 -1.1417135282776532 0.22736496654535682
Ni 4.974094063392862 4.473507774623183 7.0537052482252065 0.4270653772959096 0.6830300098558302 0.19861283411332892
Ni 8.30296092584036 7.104891854910415 9.126077750251435 -0.3051832603764163 0.1779311373942613 0.29631629690408967
Ni 4.75625841292352 0.28298649638953005 10.395314749041138 -0.26122922339296945 -0.265467172733717 0.07871278062087089
Ni 8.123645762533524 7.067415624936703 4.6641558290935805 -0.4573426881232123 0.578283781285675 0.07289591682877769
Ni 7.224243249815884 6.061336839053443 7.117251899050195 0.39936714004969287 -0.599887989819012 -0.8488990738792348
Ni 2.2424882996328153 5.216514768884593 2.671337720419186 0.6811363923775431 -0.25348248956801506 -0.06985610156118938
Ni 2.2323788097792296 5.304709490251984 11.409629663390154 0.2318065472564782 -0.14882882071166625 0.3357616473839056
Ni 1.1594855682474252 3.2815422069173987 3.9564780360168537 -1.0176529156496021 0.48271202012593645 -0.7246363725427069
Ni 3.639038254170828 2.598300932280172 2.7159896176789995 -0.626159007700399 -0.4152282754516656 -0.7930590840914793
Ni 1.2714821517456103 3.298835466052518 8.273916172444446 -0.22774934646796904 -0.05862269473921517 -0.3688923684996034
Ni 3.70592472755653 2.575768382766792 6.958721954908937 -0.9818770436015734 -0.5685565266955821 0.22300103314970626
Ni 4.023288890778539 6.754453545898492 5.913325985645858 0.24653511171590445 0.6200804056064869 -0.1290333832522939
Ni 0.9676123120236239 7.534963776785046 11.286239873873539 -0.6407747007310448 -0.28937663236146294 0.5437055290901733
P 0.34997019372039523 5.526146027579237 7.96067772533989 -0.28401048295354314 -0.3736597079812597 -0.4508735354591009
P 8.427335557912613 1.6332272454913752 7.971627122053084 0.7694262751638878 -0.22538753110401183 -0.108563031213084
P 1.7975087061664317 3.296098792040505 10.499587430229102 -0.033410200029329554 -0.724574666066836 -0.3921821922654794
P 4.004825343414599 6.054810231623479 3.708999884933186 -0.11966608310478101 0.24397403585694757 0.4964944186220095
P 6.826264232062387 3.762215591362828 10.101801059922504 1.0461631072741533 1.2031788346719858 1.1193320752586593
P 6.44062725401438 7.659707499760237 10.134424194633466 -0.6061668808491882 0.9137232694434716 -0.009955568550815112
P 2.1599559728494895 8.342336623631619 5.7947586838537 1.303867862453632 0.12835564045897893 -0.4744878324439312
P 6.78069500887552 4.011820066136091 1.5382844621522582 1.5991816862351362 0.10665630110867438 -0.3112970865836381
Ni 5.298110865084862 2.85827596120422 0.47867309179585943 -0.6409788463220508 0.2764221290833239 -0.5826582562042869
Ni 1.4025814400250143 1.1811899137834854 6.7907855940731014 0.14372132428177184 -0.3632693658858711 1.0782427614175172
Ni 6.8455469811865015 0.7865102086135495 9.20432772233899 -0.5436507645928379 -0.5114440979533063 -0.7755239034211934
Ni 2.9206973348861114 1.626664629192832 9.277531951716897 -0.42575874266934416 0.05030569023308755 -0.22690910995486085
Ni 6.292306724337015 1.9144835157456788 2.423174500610801 0.6797197145356745 -0.11584259559363273 1.1775367086238495
Ni 4.088167869740955 6.7677588228384735 10.379925458832139 0.24613119140926645 0.21577520482522838 -0.026361777822980405
Ni 7.974244966798785 7.114551233906762 0.3345403935342455 0.7829351082835999 0.7354049239131206 -0.055597020539013935
Ni 7.808712197940605 3.767724948255432 8.090432082377864 -0.21027664360450238 0.16954034222740477 -0.10726153879284107
Ni 3.1311871761653145 8.286864961585497 12.31438849530894 0.6768313372442859 0.22143677398637993 0.3932929088311549
Ni 0.18626307449917567 4.804033179310857 10.063090625978242 -0.9186320195989985 -0.1395592224842822 0.6617104224424475
Ni 8.433006954713825 2.266407190586491 5.765877770809823 0.033287301298220086 0.7261949752790784 0.07698242819332549
Ni 3.5176973692763642 2.8823568920665013 11.810986313016373 -0.4516458948487511 0.026747957517805544 -0.9317595581198922
Ni 0.9947269900636957 3.3953662404959735 12.657258640367248 1.523081403536448 -0.22858572632633536 -0.30131452144962945
Ni 2.9511788421383303 8.26805032775291 7.91470790349008 0.7008976341648704 0.10461253120576823 -0.48539625182631885
Ni 5.609650593814199 7.818209537028346 3.5396924864262003 -0.9704867994867609 -0.02937973871369779 0.3856243365423036
Ni 2.933453476580262 8.421439105682785 3.574450046822189 0.8032429666030166 -0.7028611856491443 0.14852748742116356
Ni 3.3987510741424103 4.286684762217603 9.37752227820909 0.5650364293574657 0.3847799862641373 -0.36588314935963434
Ni 7.226583826273526 6.058483136218548 11.292103017899933 0.1671024222098735 -0.2857989423125336 -0.1671726133261766
Ni 0.4215333189128091 0.13098045901309308 0.4189748888002632 0.529548777973817 -0.7555680291245568 -0.06087163867439194
Ni 4.5059427629958195 0.2812337647114417 1.6054004920751515 0.12952677794894468 0.40451731679206465 -0.5110435200807779
Ni 5.94981737306393 5.624675294228834 0.22367628895287364 0.26851650108300207 -0.2881628145590199 1.178247875758261
Ni 8.092786162161223 8.966712400359143 11.004240920704792 0.014431344933981597 -0.23674872175310196 1.1663367261429718
Ni 0.009965454379269408 4.859243777059782 5.68542675663037 0.05333830641182428 -0.6189689177098631 0.9450503616915273
Ni 7.851373704989709 8.746194089180657 2.6680573124916287 0.10403968942143373 0.1734067671613465 -0.3354608283140352
P 8.471806510607818 1.6938841846128905 3.543302375501256 -0.8109025400308034 -0.24607025626434395 0.3182213245072971
P 1.7226552706076015 3.3194415410969147 1.7646812211262837 0.5348959012183433 -1.5711335218486684 -1.2139191039076256
P 4.679856596015788 0.9089898739768285 8.138272564950359 -0.0962595312553826 -0.22597682794857854 -0.2147709319304301
P 8.593948592828168 1.7314864456266288 12.417883384935594 -0.6837604602639515 -0.25345163633007967 -0.6580180611925248
P 6.1818855288391665 7.821936454926284 1.3752615114340416 0.2871012060637249 -0.4825204729404206 -0.07533306551536058
P 1.7218720777160057 3.1748389271003434 6.014686449587487 0.7911397555815795 0.5596898203335716 0.35349917387298474
P 6.829901127788877 3.904306586776006 6.082014031613284 0.43045871924817475 1.0984110088352759 -0.7710519836927688
P 2.541911044085281 8.569165489028594 10.120879458717432 -0.09384192295282548 -0.33015227161692823 0.2450335874697135
