# total energy = -381167.3606988508 ev
CRYSTAL
PRIMVEC
9.24299415902716 0.00000000000000 0.00000000000000

0.00000000000000 9.24299415902716 0.00000000000000

0.00000000000000 0.00000000000000 13.52805624790219

PRIMCOORD
 96 1
Ni 4.363072301685066 4.13782052908043 5.663737225326912 0.36837583387450107 -0.16558598556534707 0.810497848393217
Ni 8.207963853441486 5.382509878865334 2.784899412512955 0.10051676386983979 -0.371920870913282 -0.5348413938313241
Ni 4.84367103653737 7.609895903241117 3.683054114871352 -0.14530769493228524 -0.8770256569121219 0.189111579491113
Ni 6.409665356337965 4.793971455852302 7.187402328146785 -1.1288654686703914 -0.6411174287824443 -1.3839890933862553
Ni 5.792085445039181 6.57829454548031 1.6335670786836765 0.8303670765133183 -0.6907628597237135 0.20201851736076817
Ni 0.6549216085217111 2.121294935087477 13.503665377856748 -0.639693294741408 0.24620266807715016 -1.872648846455194
Ni 7.532957218170909 2.564727589609735 11.585102583910063 0.301649536191545 0.35991639025323824 0.6513198232367429
Ni 1.7275988332277366 4.440417678507208 11.616325418865271 0.14744505299026217 -1.5032219456083595 1.5421960128787118
Ni 7.744704976012501 -0.014365461837592347 0.6299405676592347 0.7728576694429399 1.2848566114584516 -0.18143040879677141
Ni 7.271500636649884 1.153839958199719 8.62262121791562 0.7739362472190994 0.20361542953424286 -0.3750434757026638
Ni 5.980559343076978 1.4138823615833394 10.42605974418391 -1.8475062857512956 -0.06777813598623811 0.07257812847804275
Ni 8.53222658165305 4.642876227014879 10.917344304818252 0.2559083254006883 0.9367824652557802 -0.26759630326157785
Ni 2.8215349449666163 4.97964472659838 0.4638245486839462 -1.784957773595113 -1.1408735488748611 1.4849789402377715
Ni 1.517681188269842 8.147533156302005 10.962961254893576 1.4338702944874144 0.6305311686261657 1.1939043513485954
Ni 3.819112840480493 7.8737926352737375 6.267251147805437 0.9776637768511743 -1.3296125755179038 -0.025268801869117775
Ni 8.941617287939655 1.871271937592384 2.18513259994883 0.996886115415896 -2.561480807704782 -1.1382708211446915
Ni 3.282455344821987 5.398158268320387 8.398744802872066 0.5557920279410621 0.670568901274342 -0.11718214034066271
Ni 4.091457669360083 9.07621377184071 11.88480390320319 -0.30378946535268325 -1.4627571527250938 1.7450269988384461
Ni 7.46793275283346 2.4551149194694646 0.5512762155416197 -1.0154947316560188 0.27289766086983325 -0.9157397856528681
Ni 6.0505380533925175 8.87442071892711 7.422885171210841 -1.1793305672994785 0.1768286483587019 -0.322499897277993
Ni 6.359032233222323 4.799794542300432 12.106528549159245 1.2836299381402023 -0.5820365634598879 1.070694259646298
Ni 2.8546525937660587 2.7760409267163078 7.240635505576488 -0.34418252445774916 0.2745153989789143 -1.0991910815344101
Ni 0.9152098755553638 8.56025134055897 6.007376966919207 1.7381130453274323 -0.994140948570591 -0.03631863192537616
Ni 7.45978967480044 7.477887457761453 3.594797383204739 0.8503352921051291 -0.5680425631736411 -0.021048336029866974
P 0.13481276996912844 8.759705915898955 2.6651083569811282 -0.3288651773743885 -0.10793851025520766 0.18818032592609527
Ni 3.0724360269261095 2.712116377707951 13.206048353792276 0.19619342603855888 -0.78273121980291 0.3050989281927262
P 1.714178005413952 1.6012101283202358 5.562317545389217 0.9017617262062211 -1.0626276805880797 -1.3186609616024063
Ni 2.3512513918224274 7.072646855943437 13.199202992167697 -0.014680227719994072 2.688950703124698 -0.35993104554125754
P 9.711799036156886 4.217088448729891 8.776489345061675 -0.34680119302751883 -0.0017511783631518228 -0.0301829513412835
P 2.1361206980443024 6.892353007916106 7.120357344241779 0.7250256375613255 -0.24119210223643622 -0.40009939023002705
P 3.999249557603667 4.138236463826725 11.686603602198144 -0.4775338183591066 -1.1009990812774266 1.2100861033147805
Ni 3.608418783996181 0.25953588729257693 4.769329632882914 0.23220018315047108 1.523539317009473 0.42709520209258056
Ni 8.216069959497057 7.988341064403374 7.939981717900812 -0.21735643326941922 0.23479442624020852 0.28497207553586407
Ni 5.608316231131696 1.4517046945130962 13.000814134077663 -0.10334086358219621 0.0009384526538693515 -1.062712269882086
Ni 4.753163635743583 3.3622223861670024 8.278250355469284 1.6778232472984396 1.0356485808960745 0.40916612841798566
Ni 4.442783885063908 6.1926028767381585 13.02500212602387 1.9593004223071675 0.9458844275570484 0.10005319396985994
Ni 3.7276996262392186 1.8934089090896393 11.112595166322349 0.6319666155211116 1.438683913825974 -0.411896125754639
Ni 0.967796967679156 6.552340217311505 1.7922378657002849 2.4193175719387496 -0.19679249307513852 0.3574396465779715
Ni 3.3254999695663368 6.119795810147814 10.938380435686978 0.9344396760552165 1.450636715312476 0.04050413076163347
Ni 6.92889056462953 3.5272652934968494 9.274024018483676 0.9770009464561947 -0.2921534237756517 0.3916399466087642
Ni 3.925453490616576 8.504802617380669 9.690417217299014 0.33581461210902813 0.05905335451873055 -1.1937727108667375
Ni 0.4299203210642882 3.28233518589528 5.973259226129784 -0.9214607472970454 1.0831296571961733 -0.8912711110875424
Ni 5.019223228456938 4.1020408979047 0.3998639519975768 -1.1108512914811577 -0.39357187352415446 -0.21432433131131476
Ni 2.741490613790738 0.3768951110077319 7.357801550709476 1.035027659482624 -0.48805528671572074 -0.027015609356895412
Ni 1.9251770807122135 1.090359072920743 2.9730747618328563 -0.21898908377683576 -1.079210010426793 1.9158734614717845
Ni 5.664994272560159 8.312705465552924 13.637634262440617 -0.5174244839064572 0.26561244006232965 -0.4894452250847119
Ni 2.5289664444227284 3.452692814983341 9.618813588574618 0.25061108155749096 0.4597189016648727 -0.5255383712628433
Ni 6.749179025247012 0.16429977058313378 2.569113390434556 -0.5185588546212166 0.5666228000079789 0.6343235457890624
Ni 0.0845234862437569 8.20991412525189 12.832741373195917 1.8067411880187916 0.3319803259646024 -0.23357315223859776
Ni 5.279302603818007 1.7150283608952661 6.340599853865402 -0.9929502706965996 -0.08361741701133986 0.7907983130817606
Ni 1.4449757946174797 9.495328108196256 0.929062351205859 0.09410623235780567 -1.5386887710564017 -0.49633680999822266
Ni 8.132069626734195 1.2904051998999035 4.266545862962672 0.3363352604991885 0.48335505302657406 -0.3513649011388013
Ni 7.393184657427072 2.610785430516132 6.99829343639631 0.5070809358886041 1.1925486086516495 -1.7518609910411442
Ni 8.641460289024474 7.261351828840287 10.259529639061201 0.5766706711622843 0.5673056850076166 0.03127644151577839
Ni 8.198452812242873 5.263571027413695 5.3031744853570295 -1.0377478866272642 -0.5935458496510682 -0.09721392474885193
Ni 6.0187329097924955 5.107530796592543 3.552048534279977 0.722365317120343 0.8701551550445337 0.6870738409079006
P 9.060824186227796 0.4270013834447336 9.360482063447423 1.0308326475646699 -0.7114196167421167 -0.008808085209933217
Ni 5.251490433782416 4.944142385253513 10.229415963429444 0.16634188989476514 0.9479330825559611 -2.8439437436655477
P 2.287068038971931 4.9379403360365375 2.886955010462763 -2.495166400748264 1.2224153143040948 -0.1427856998413799
Ni 7.377212763169344 5.826182851241007 8.793304200405228 0.3906487863400885 0.8616928832097934 1.8659084424075671
P 6.345759293318332 3.6423775452825757 5.1178265680124975 1.204364370339655 -0.2922246433332193 0.7194522572386061
P 0.8993405785350561 0.9301872236197279 11.766405766921734 0.30363828448679964 -1.960301609878172 1.2030428233147539
P 6.883932640052223 4.6907456948162505 0.9251266842064723 2.2399988101683426 0.7047784572765153 0.6741303933733551
Ni 5.786437975483931 1.8244839001313804 4.061366176914795 -1.2634483209860048 -0.3392845729354996 -0.4587830201141647
Ni 8.246414709987866 0.3322107790635442 6.253019709386095 -1.3325297491646986 1.081029580134035 0.8651849555234519
Ni 7.630507780668624 6.88461662163502 12.339968690469275 -1.7980554873193357 -0.9933395357152183 -0.3074406889520253
Ni 0.10307694882682157 6.0839514780115485 7.347249748345689 0.23456688361043473 -0.9051848929551572 0.023525593925765937
Ni 6.652266229360283 8.450925203243925 9.7024035323878 -1.405757081190966 -1.5729428071432654 1.1329021006336102
Ni 7.460482899377599 0.09823916557769288 11.838903193200949 0.14795850229157098 0.3646639322405526 -0.39728480359936735
Ni -0.04378683719162671 4.0775562058394685 0.8702371621870784 -0.34509629452127016 2.1794521589335365 -0.0008798315017920331
Ni 3.1613813616727002 5.886511875442503 4.818693692872639 0.8303670765133183 1.2024213876806713 -1.4672825513992729
Ni 7.206568601256057 3.1636643812801415 2.803960315486499 -0.8727900215642194 0.5293415470590175 -0.11112282152046024
Ni 0.24891845966882042 3.545945385102675 3.540793340045235 1.1226166595472022 1.0833163192856827 1.2002801729679522
Ni 1.8683326653852332 2.985043515232354 1.7758149133176868 1.1946175753655361 1.157483132407084 0.4611931722175542
Ni 8.228095095162162 7.03040637170859 1.121096650671942 -2.0608857366508375 0.06652806562922091 -0.4328130784129643
Ni 2.0936214099673176 1.1144555592227654 9.713901817374266 -0.14633845018964475 -1.7288336769080355 -0.849941141990504
Ni 1.3831494053293216 8.060676738281252 8.740963896230904 -0.3569580789558627 0.307434004083806 -0.9776694332781293
Ni 0.7896724504286134 1.6748028494313605 7.457544551469884 -2.3423608547770374 -1.195156992808774 2.634686799574811
Ni 1.3936864189021279 5.905081051115983 9.920624159181179 -1.6952136748607451 -0.014952764655090376 -1.806648114084353
Ni 4.168655158272431 4.264024374100688 2.8366712725340086 0.2835458846122988 -1.0807884106575063 -1.031194658889779
Ni 5.203306704172733 6.860677266237152 8.028036027990895 0.12175664708522256 -0.9890846170936063 0.4262791339491884
Ni 0.8671490777706972 6.201781170139734 4.259010973958679 -0.7458500305058444 -1.4380133701215103 0.1973601926531504
Ni 4.35258150308407 0.17385332955581137 2.508873098978936 -0.8644696746239822 -0.010254330738156531 -0.004671694444056471
Ni 2.0543294409339854 4.815137912941535 6.421971479031678 -0.5099664849665153 0.22310027773173188 0.0668031736674785
Ni 0.530817771820524 2.52993695883075 10.55440056950069 -2.038093935567303 1.135821074052618 -0.5168436717023228
Ni 6.243078868949645 8.865140752587552 5.124183899534757 -0.700415038101497 0.5341086294303575 -0.5462210964231754
Ni 3.261815738411394 2.542359543253427 4.2337406273726685 -0.002446404657963529 0.36924126719858985 0.3067560041801749
Ni 3.521691767896497 6.998268480311532 1.8452131635872857 -0.8337984707923706 -0.30531644352017095 -0.08416017688868732
P 5.4041939436388455 7.230628115580632 11.351825119300806 0.5069122715212238 0.6196782850720618 -0.5952720883135554
Ni 2.1142610163779105 8.009100829740674 3.8804419566719695 0.2418603319480544 0.4893068997346347 -1.4140038945807907
P 0.739707595805352 5.918622037856475 12.740385373529707 -2.398569797868437 -0.11616809725385155 0.6319691866242729
Ni 4.897243431860164 2.1605499321433608 1.5439978418176434 0.17354637806300433 0.07404365727997571 1.14929339750744
P 3.6040930626347136 0.5524593188199699 0.5600293312025385 0.7041943026382712 0.2189345763898165 -1.1598853140906733
P 4.0913005384559264 1.4542003029908661 8.71750702513874 0.143383738436695 -1.3230516344709344 0.7039919568194779
P 7.796964866135874 7.366296786827691 5.816184704239512 0.11776886608206813 0.21642337993218855 0.3636280347768705
Ni 5.697917818477997 6.398065398413516 5.3984660600326455 0.5378500987506608 0.05112792902406678 1.9416294873899655
