# total energy = -340861.1797270216 ev
CRYSTAL
PRIMVEC
9.33577316269551 0.00000000000000 0.00000000000000
0.00000000000000 9.33577316269551 0.00000000000000
0.00000000000000 0.00000000000000 13.66384769802057
PRIMCOORD
 96 1
Ni 2.073848588749967 8.36045535623782 12.448693929808295 -0.667084028049535 -0.18537525237713234 -0.3133958780941957
Ni 0.9934195927292877 1.2403694570923656 13.017437616178952 1.2853659469947025 0.4374639469214143 -0.4575023536295282
Ni 4.553784626466558 8.327910851959516 12.486788551066935 -0.05370366017104299 0.19612400625320417 1.8639348636209643
Ni 6.204125214045852 0.13023869963696952 7.689070448456552 2.314776517400865 0.37053916007440696 0.7834115336993863
Ni 4.1077494053235535 6.512607157496221 5.7166260912098865 -0.18334716620351002 0.01166946591812829 -0.10477193960176795
Ni 6.06584374606816 3.0078086439725085 4.7486511474796 1.0977224674086838 0.35342666876383655 -0.7658393291435778
Ni 1.021510933341283 3.677332932217726 11.97002178023542 0.4263971475842914 -0.18506106357082322 0.1085352632989421
Ni 7.566083777196917 2.9864577313837306 2.6173642160525636 -2.748205632131273 2.241599836106875 -2.6934984703963805
Ni 8.481736381791302 5.237798034229828 11.344067544046098 -0.37414667492000725 -0.19337986784916372 -0.3573159765159137
Ni 8.430651032562707 9.315112819947164 6.061774282667439 -1.144228581390023 -0.6021729291984468 2.63755255115838
Ni 3.8550580406359902 2.3774292514355317 4.819826146380162 -0.42078751470699793 -1.3403955250660207 1.336767184284814
Ni 4.099375217045401 5.439385378143027 1.7835826053534771 -1.8839349608919749 -0.03516857748133298 0.5997594346609477
Ni 7.302273507002911 4.3257303664234135 6.647106703878062 -1.4116958152729042 -0.28471599366100003 -1.8715466145299509
Ni 0.6012555154438625 3.594645991772248 7.438297585096927 -0.3527952058274247 0.8206974146340382 -0.33480519700790723
Ni 4.150441894728225 8.861571637404344 1.4817626694340875 1.1754212049427435 -2.246422197196183 -0.24465357842247543
Ni 4.5917438790183605 4.624111003611843 3.8157936470348166 -0.2690291790533625 -0.07320110677402233 -0.3905125178725404
Ni 4.47202192753673 1.6302686758758067 0.6793819308348505 1.0211161916078544 0.2863869536055197 -1.7997079353210943
Ni 1.9629302710992134 3.4934555494680217 9.431129403170603 -0.948054952845806 0.024432936231383727 1.3843472480566223
Ni 1.7195186646596803 8.741130831410542 1.265231553863321 0.3073568709889674 -0.4574231636521606 -0.2529466716692031
Ni 6.77238437380376 5.568022992730159 4.643085028424013 -0.5805036717551294 0.45809113625346265 -0.705491681293456
Ni 3.9655749200526733 4.696192506059572 10.941818031312636 0.24733498190938047 -2.1695822081179923 0.011538853877534967
Ni 3.3017081101759733 3.642435813172316 7.556039419149577 -1.2506226299762462 1.951019413245298 -0.942266628298803
Ni 1.1551618579678453 0.6735489399360887 3.2620936250916004 -0.9264713131377592 -1.669006420337758 4.4006973426434595
Ni 5.230394766331751 2.700792416865138 6.922541878468896 -0.39216085210924073 -2.0327583822870023 -0.4641370853372265
P 2.8828960027666266 4.928914652545388 13.112128493400403 0.5949154763050851 -0.37496788526972197 -0.8077462537900089
P 7.5260146399730266 2.067799007920265 6.435276149955064 -0.3320435751023701 -0.9217332842321416 0.5177772392601856
P 1.481148375578232 1.6226506852013671 10.748268787853718 -1.2343580884882677 1.074977717513 0.5096543530427352
P 9.201393770430808 7.251020113862381 11.655179374718267 -0.4468137635674305 1.0089595016406623 0.1804791006270956
P 0.3537632426761462 8.232741983166335 7.714690609985798 0.28866083724136093 -0.7901879331912713 -0.3480116683958523
P 4.970178768698601 8.446363138328739 6.42657240889406 -1.4833475752819356 -1.4273656605996772 -0.24260363787198216
P 5.352786748858589 0.9750281201451632 4.046561816255731 -1.0598902270522585 -0.937051916867083 -0.7998341980317838
P 2.915151098085485 7.233394174654855 2.4233789919998987 -0.4179708711938092 -0.00950022618095138 0.6114615535892243
Ni 5.05083984642796 7.471194981590296 3.4967286714416224 -2.298324799602745 -1.1973722552925377 -0.788467608066055
Ni 5.397112998518196 -0.3170773895459046 10.036040807276365 0.05412660664107452 1.4085449283487486 0.2952675439246012
Ni 8.12998313101737 7.634505656673591 9.301814011471995 -1.2542795100025432 -0.5950460883456784 -0.4840513077626502
Ni 6.1889359115613995 3.7347759427812384 13.176566798586903 -0.799292723706017 -0.6036741963343216 1.447524137825423
Ni 8.832341332500336 1.7336530248080888 1.0555323568900479 -2.697584467540296 0.8582332067959672 -0.7160468311014829
Ni 8.671271242909524 0.14810830251680346 11.838753344849199 0.8255729975587847 -1.2759413112466929 -0.8979739770290148
Ni 0.3062077491755004 3.0687712409137946 3.189811403526836 2.533586395287359 -0.41701956302413346 -1.0964189181059116
Ni 0.49144722118917633 5.670744501787582 8.98142428970637 -1.0035666127598653 -0.4867946748357423 0.1747072311403249
Ni 6.521970937700219 8.33431519215886 4.953663786464431 -0.003454791317819857 -0.07504972994698689 3.7195054144376325
Ni 1.6287376091226107 6.16983492023799 11.07911177451906 1.0597711849758908 -0.6565458475223724 0.5576846169780847
Ni 3.4673527284806043 2.9278384134366653 12.416310934400908 -0.5491904634641446 -0.6219112881676386 0.024189966982642207
Ni 2.431221974800875 4.141498224304066 5.3876138496073605 0.9324002770276846 -0.7789146742702973 2.8559855053214296
Ni 0.3354856665212228 4.986563050112378 1.5358438681815878 -0.30848995615214614 -2.195606400095896 -1.0915955285753394
Ni 6.4557709721702565 6.563925901046948 6.96745534824299 -1.7293970056106733 0.8965143617643528 1.225317061331922
Ni 3.0337340852751047 9.686611230373595 10.222593822535009 0.4885096006443199 -0.847129897793954 0.9433387783170593
Ni 6.494533101190198 6.22359030051179 2.1842207636869277 0.7153384921805487 -0.5310238198574467 -0.45884164126624205
Ni 1.8074149663751793 6.37231849834818 0.49034653356599445 0.33566060302966705 1.3609939180426625 -0.012012965300476085
Ni 1.980425509486345 5.251288226049147 3.5660318478786737 -0.8043140881800084 1.8034694592460554 -2.7124333596276706
Ni 8.84384300469508 2.9175597274899037 9.840402217845709 1.0353583033491651 0.5601055677147515 -2.137806972588925
Ni 6.509834432949275 2.511098847607865 8.569937963280152 2.497190116046512 -0.14253347462125773 2.34368960089079
Ni 8.386660870726976 3.398725462000452 4.925010432324737 1.032716494850944 1.2571702012867767 0.46118623023901867
Ni 4.16831056403077 6.805918470007909 10.979515882223648 0.11070553147738353 1.7480498448251702 -1.520050330019608
Ni 8.73726582143601 8.658481234056605 0.6459159857727637 -0.1564570266808854 -0.8940391607509829 -0.8674259290388286
Ni 5.1251806059139415 5.049990291095394 8.663671923780855 0.557285067546821 0.11065462363479008 0.1572610106394195
P 6.426774061588383 4.310597078576274 11.174294646971568 0.4446645784349116 2.1873742419940907 -0.8003270785078023
P 7.525846596061091 0.9682410132575192 10.087430502701022 -1.519784992173363 0.3820160503657549 1.3722165262313593
P 8.34307214712531 3.6604165117494856 -0.0891052843041508 1.2390791481130208 1.6735238485921373 1.7497742837154444
P 2.918455961686896 5.47249002879445 9.152017801217522 -0.029760776202200363 -0.817315899756315 0.2939493393338099
P 4.888416069768772 4.437274180857485 5.922471481136091 -0.38697545125355937 2.1850543356116625 0.571919529630544
P 2.3717717730670143 3.1773836226618686 3.523673579143298 0.8752608517022152 -0.8688526341830263 -1.8462862973012653
P 7.714718617304453 4.637694553160016 8.482707302171377 1.5745757147609978 0.5877737230539813 4.343247585166424
P 1.3804247219182726 1.574384739384147 1.5747581702995606 3.0529173521879103 1.4773093395076557 -3.1840788375268003
Ni 2.03603870856433 6.016196105863909 7.18084404266055 0.4522516467535502 0.4989274535435343 -0.31964443010706883
Ni 8.097242575508474 2.617265256859979 11.847334787285405 -1.2691222314423305 -1.1649539868628325 0.6605523975786044
Ni 8.45552153152926 6.606506361176995 5.957095995613248 1.6099471522817563 1.2461705077421636 -0.2970997120373335
Ni 8.7281634428728 0.8257649825224427 8.397678016308967 -2.576639774833408 0.17851992001819578 -0.8498935765820201
Ni 2.906506172393658 7.5457691353984115 8.962540821891187 -0.049621262571553255 1.1630873659677388 0.10281944386108743
Ni 1.50508529725625 0.835028869956568 8.138037102285555 1.8353064012509939 -0.2429646207558267 1.8796759285053046
Ni 6.81643988604969 0.5331426500496926 1.1702157917454599 -1.6887735756623563 0.5085420938151629 -0.03828424029217922
Ni 3.35613566609752 1.3055704949235971 2.67353662792638 0.5604950898436863 0.4923834817774295 1.0031904603673691
Ni 3.956967337452388 0.5749426395665248 7.783829476820067 0.45039453894015336 0.40767925945981404 0.5595221844074557
Ni 3.5995566083099386 9.00489442274012 4.729071231007171 0.77642867462365 1.0195948698673214 -1.0359383442223513
Ni 5.499078309971906 2.5121817972625644 10.90049790052211 -0.060262801445799444 -1.3481759403423879 -0.44433933388500896
Ni 6.491648347368627 0.588265721051197 12.342935493831272 0.24495516882329427 -0.22508105560718655 0.27521165371499057
Ni 2.6488295049853217 8.53127199272093 6.728324193671386 -2.057885002151301 -2.1688527861511355 -0.401333005526812
Ni 2.8425934712206034 3.2725338199092784 1.1326075642541464 -0.791682772569243 0.9747471174250116 0.6212433155663365
Ni 7.668151782152366 5.87010993175407 13.731619574021204 0.6083080955619072 0.2804621034806524 -0.26248520728725766
Ni 9.03524502039037 6.972160577777202 2.505676630716058 0.2504557869265493 1.2664415992863738 0.6898076948992958
Ni 0.5117329220917369 1.7322900019668288 5.981349399992079 -0.2326187587451284 0.14303895350276657 -1.0042919209616639
Ni 7.398329274220199 1.3439218499365837 3.906794093234692 1.9640554204936498 -3.3749248832105163 1.400040233311847
Ni 3.9300523042239455 2.2663615614186132 9.18568539897393 1.1310149109132264 0.3777786152456397 1.556928691103196
Ni 1.7250267706620324 7.464006436468583 4.466479279174702 -0.5708535502598749 0.22892588327457347 -0.22616734669282984
Ni 7.074648692512492 8.457846138977711 2.9719275344649834 1.9135360715878593 0.05544995343818837 -3.195873773279199
Ni 0.7445297547606355 8.40248500576763 9.902299325652816 2.3368574084603044 1.1297285880016348 1.0211149060562736
Ni 6.581878592305462 7.234057014529713 11.616374301143052 1.1473293318025337 -0.3064037630470787 -0.14336136983919182
Ni 5.148622731629037 5.945514969348981 13.674778720808797 0.2664547334579669 0.8248194072222117 -2.31658528847483
P 6.344283172373498 7.899557584661348 0.2536790894588327 0.31738725864177597 -0.12554413915211282 0.1342108136881753
P 5.463714402282229 3.116897150137735 1.8255851811419213 -0.19511664803461234 1.0221649445873429 0.26272637676378624
P 6.045286374174635 7.180432335076307 9.305271048171436 -0.8508464274135928 -1.5779122353333985 -0.25021898832539485
P 2.4662778019853357 1.8090487266301143 6.6354649950900395 2.1997713301068633 0.9984765998314675 -1.361316591489404
P 9.027617693943045 8.736322908374591 4.256835163261452 -0.025319452601395107 -1.6202914716305579 -2.519834850029222
P 4.455684324987381 1.0314815387828289 12.15050747669588 -1.3531643946959147 0.42160358285039 -0.5803139243418264
P 0.7371134167805197 5.245724105409484 5.677205790201528 -1.5151809177424487 0.1663444609979264 -0.35327805900111414
P 8.2601518123577 5.042017541051311 3.1103014265942406 -0.8295792905047004 -0.04171717723312815 0.46093966144585136
