# total energy = -340858.9964986454 ev
CRYSTAL
PRIMVEC
9.36279711321262 0.00000000000000 0.00000000000000
0.00000000000000 9.36279711321262 0.00000000000000
0.00000000000000 0.00000000000000 13.70339998122555
PRIMCOORD
 96 1
Ni 2.1791160777333287 7.713381064299875 5.3517391334235995 0.5067919438932756 0.9588610423223746 -0.7920301286063327
Ni 4.284228608713582 4.592901297144173 12.524372798638304 -0.043539832264163726 1.1007676819929106 -0.5836337327436787
Ni 8.864078166969371 0.9070518475972225 3.758403635338819 0.31959120827163023 0.04219951618618539 1.4352795161301153
Ni 1.0162754274754295 6.488193549438139 9.762918841679138 -0.10599115672084972 -1.4491655300835882 0.7671426213360336
Ni 9.156628119126074 5.783998868467454 11.930398835416424 -0.13522717076783164 -1.3964198629504403 0.9832353574016809
Ni 5.922465271925352 -0.003867771402289394 3.4124613975401505 0.9529960989011651 1.9297283650770058 -1.3238545899882037
Ni 5.72537839703261 7.033688822834858 2.832136519649322 0.5967376171154885 -0.49370991389833674 0.6612576511757451
Ni 3.0536949368179385 7.593396821936431 13.426961400949951 -0.24646774881307873 0.2708508056431335 -1.1294635072657064
Ni 6.819468029602271 1.3855535002851513 5.283455319301021 0.5982406840235762 0.0168864913426935 0.10458244929878119
Ni 6.469224522904518 1.1534216765694385 0.05952585389575231 0.9537928837708477 -0.3127654435990484 0.9580706852105951
Ni 7.803151561044369 7.656436533511387 12.293990881664513 -1.3360650160114669 -1.71396293044379 -0.5651336170569621
Ni 4.192707268947475 6.4848416681454255 4.4514537791510795 -0.889220656316417 -0.7363546894208997 -0.10733172990914419
Ni 1.6183688081750764 2.6912329801565265 6.637337286488801 -1.4975914867954596 0.15001127105554166 0.7024238410014096
Ni 4.815398802842563 1.8536371688546402 6.491081036004263 -0.7026436703216996 0.29850841945940204 -0.6208049424773373
Ni 8.910264844111694 1.3410614893829986 6.813632198290127 0.40507010397174104 -1.089003599478447 0.4155743459371746
Ni 7.363530795072217 5.799466208957848 10.273233405697736 -0.21439889330299206 0.5474377424390958 0.41656627753679876
Ni 8.346240595635985 1.705087033127883 1.7624491446584232 0.6411043161563217 -1.0079243755079286 -0.527253039961105
Ni 9.0707525458949 8.003927377918476 8.548249492862746 -1.4425871055351218 1.775706173089858 -0.18610621700588595
Ni 4.948228802562436 1.7737725112377716 8.885832625582829 0.9075482509810111 -0.10512546628644474 -0.5465710235634265
Ni 4.897004940684138 0.23100267040872632 12.446057683909547 -0.5623848506672314 -1.817057225232819 0.6595283271894642
Ni 5.8585548202380435 4.046385478884588 5.309300383883157 0.9233901031092743 -0.11315990655514704 0.22188491726739207
Ni 0.869264535560186 0.8622733351097152 9.04884828253093 -2.741344386235066 1.1317710723529606 -0.477454628381739
Ni 2.448099870075067 7.019007957284652 1.8387222333817597 -0.4028928938147642 0.3364856700341237 1.4686994863514578
Ni 6.551289437794537 6.856160830680877 6.823813303646819 0.7374404662859106 1.080120180945888 -0.8151757134848605
P 3.965790523108972 9.061857888833233 7.3903804877624735 0.5461789303313304 0.7260875031669366 0.4579846925825854
P 3.0751451045319182 3.6797664403964596 1.0516330937150948 -0.2474691934943996 0.4453618616122524 -0.0029207731912207764
P 5.6458320745105794 6.926035383997958 13.29458643315976 1.3019963564625319 1.6023909372010532 -1.4858418024586992
P 9.252194187156014 6.342854853050488 1.1829950068799475 2.1909282778939363 -0.8137922028737727 0.38469179742570525
P 6.862696062921977 8.474108312995138 5.075246377962433 2.690723992975037 -1.1178634611329328 0.7657210583981586
P 5.256283546397164 4.826446903192845 3.442554363078999 0.9557183829283348 0.791303020632321 -1.0928993349884275
P 7.424267258608047 3.4581490376073294 1.2112678447000715 -1.421942432701577 1.617201776961641 0.524072071129962
P 1.883635570144728 3.871151371972828 9.152692935586055 -4.535926056073188 -1.0124364044456693 1.2454737387854549
Ni 1.824743577599581 2.1637891791965393 3.030808516058422 0.7618515481404234 0.2543610355182265 -2.333136250854975
Ni 6.293484824959779 1.1125717936641162 10.600264666303607 2.392845236679834 -2.371822868791896 0.40392596306496886
Ni 5.479118112784206 7.427076097680152 11.281488661342612 2.0946425213863087 -0.614654092384593 -0.0851420811859824
Ni 1.1712765302711228 1.3338334101707803 0.3629469495411956 -0.6689336796637642 1.3298558018769613 1.0577677813926172
Ni 0.060603511819750155 7.874308817537711 5.0351502002081245 -2.8369140905122756 -0.18413263821928288 -0.6590950963067874
Ni 3.128372604948319 3.3739025910379756 5.077411056607335 0.9783026959867538 -0.21825374827270796 0.4874510774728186
Ni 3.2566897365590095 6.866853144748693 11.26781242390053 0.33278251015092364 0.05489485226566675 -1.4270188187832198
Ni 1.0636418170280368 5.52291727671524 3.244211000841335 -1.7501116124502054 1.0825552727499421 0.9538468769372346
Ni 8.892644060332685 1.8076658360411788 10.741478114374024 -0.25510202744930904 0.19841074540485185 0.6302056669659469
Ni 2.834146712145259 4.7434550714090316 7.64716830085313 0.6967856688790258 0.6050826466460741 -3.7028690914325324
Ni 1.972657043136661 5.4375847457046715 -0.03695589567169322 0.3036138590067674 1.067830822055574 0.1347270912029615
Ni 0.970219829489805 9.348471827750886 12.241151001040063 0.23545468553202673 -0.7811571904475708 -0.9513076554551487
Ni 4.019738958887213 1.6243984493831964 1.7443471131183934 -0.3592293914885426 -0.9162216103852932 0.2337893820144619
Ni 4.71547903425086 8.77564655018258 9.681753691571883 -1.4050004055305996 0.9728804965299181 -1.3480530416112784
Ni 5.7126637188328795 5.919853051588294 8.60477550662949 0.29383852478755845 -0.9888606740082583 0.028313502232712527
Ni 4.972422269770172 2.51815231653338 11.700689167260556 1.384772508519499 1.0797543129660372 -1.895124144739575
Ni 2.2364912971795388 8.671588425357974 9.594805141815165 1.0965950386724599 -1.2359318607332908 1.1496124714097555
Ni 0.9757719680556671 3.5988344239321908 12.804676212440627 -0.39075805822444315 -1.0549822482276798 -0.6536248172208355
Ni 2.3017874428090868 4.7451310120553885 11.227894139287457 -0.5724504624333496 1.325820455465323 -0.40864882246193496
Ni 3.6957955487012764 6.666367574578703 8.668332044593713 -2.2211793634689943 0.9155338402896489 4.844919434224313
Ni 3.1064262089982675 4.5947083169472265 3.126868939765052 0.843822944907908 0.3222155332683548 -1.7122786007628314
Ni 6.921466339107333 4.9368436415235015 13.00190914696512 0.025796649348129766 -0.9332577399319735 -0.8487774606997058
Ni 6.388058436517575 2.63190093615675 3.304410039834702 -0.7459446471021799 0.5315624659697361 -1.1377229190610212
Ni 3.4346952313552475 2.2933141116082347 13.070521595259132 -3.5897971166055016 -1.4057593951838112 1.8100813081356182
P 1.2197102786711302 7.202659218615823 11.703964273618633 1.0285268822496285 1.8407841365361137 1.1475702441687463
P 0.6960621555772485 8.949981828591266 6.730575763207656 1.2808678020140327 -0.35592655236755477 0.8762874931945166
P 8.755235652925279 5.951621021493808 7.994467207923625 -0.30101678770355256 0.6634567157095929 0.8677745706274991
P 4.85045311446244 5.4270141479966485 10.451185532551602 0.07300261760997105 0.06280433692073054 1.6124424078997845
P 1.1183205509650256 8.804437150671662 3.174159490662712 1.3101493245869695 -0.16474549194192276 0.581176786562754
P 0.7270258612284497 3.0135659892744564 4.511762362868258 -0.9923154653260782 0.14084708805777033 1.0919395421783193
P 4.225898383982856 1.8034713030268343 3.911676365825476 0.18048012906836014 -0.8759049130441172 0.8003340204863377
P 8.145043452901062 0.29783712357009734 12.297033790659293 -0.1149707345116407 2.5939630966032037 -0.14380334247261686
Ni 3.6202377776616355 9.022403062667056 3.268220020950003 -1.9327239573702197 -0.0482799180523104 -0.314680144123258
Ni 6.4364079197454185 9.307837289174426 7.189242330648065 -0.5895500982281138 0.4371464156809955 0.6993205194857376
Ni 7.271719208601993 4.55497260687384 7.582638968290266 -1.2742253569968507 -0.31488788925868993 -1.0340488405091224
Ni 1.3943919805653768 6.6073538656737645 7.595534348470303 1.0547215383671256 0.9616661158713375 -2.6385318843525143
Ni 4.8400978610832786 8.654754116519156 5.272219026732909 -1.998848874023751 0.36650792742782684 1.7010721905240511
Ni 2.0981746984721528 2.546708847099787 10.938286914198628 -0.5078435250862415 -2.399067563440462 -0.8406640875639521
Ni 6.4000709049492785 3.389856796967535 10.018075655548591 1.0358193021459836 0.885583830894778 -0.5563484146651644
Ni 8.74273631905441 8.441272984242223 0.5645757172135324 0.9480570097283351 0.9103247852848838 -0.2711541958161653
Ni 8.387633520761913 3.325403303059619 5.833304293259505 -0.392941181918691 0.14450628207691243 -1.2694287069391557
Ni 7.15248398999111 6.196261541877298 1.1966600089657413 1.3979262722926376 0.8800163641093296 0.6219290287794514
Ni 3.8327077278726094 3.7729356324182026 9.548569778128925 3.207926076458043 -0.8153716315457505 0.36286004626259444
Ni 8.915152224097158 4.186481009004308 9.307486184290413 1.4777819082687 -1.1240197105423158 -0.22292981359213868
Ni 8.51226171039124 7.831221226171611 2.865381002627073 -0.6941374326229014 -0.8473003619335473 -0.3169715112605961
Ni 0.9662500036012291 3.8922551162012478 1.4937256380707002 -0.9164159857842862 -0.2730508986182459 0.2908375331777056
Ni 5.185407173811032 3.152743965297289 0.5980495887155054 2.5240319188297047 1.618238188645955 -0.03479319641978523
Ni 3.797428709126963 7.038997528681137 6.663552181548763 1.3662633939717181 -0.5323613077219478 -1.187415144079826
Ni 4.769427470029102 8.276113246802415 1.1320595191463847 0.5336897967253841 1.3335427638102453 -0.3684694220295719
Ni 2.775516877913508 1.4150556733391668 8.168610548995717 1.311704070668599 -0.06455834349735978 -0.3460460600290492
Ni 8.101216200579307 4.492972165755563 3.3109190562444613 0.13137848644570277 -0.7937357984435297 -0.6672534637478638
Ni 4.967235280283685 5.641028959697279 0.8829894595461846 -2.9716774342698113 -1.9975077866148248 2.572036471733441
Ni 7.2902013696964465 6.194613689621662 4.7479398511274935 -0.9179416784001933 0.7611488656464439 -1.3207782650557254
Ni 9.077428220089605 5.568823069950352 5.924199261912532 1.602394279635163 -0.11185687147300735 -0.30126129961419085
Ni 8.244026941802062 2.650223929703785 13.120909359373636 -0.1678362150521045 -0.9550172430962519 -0.5071249017526621
Ni 1.9817108677457482 0.865018507162853 4.835408972392243 -0.21691086109156835 -1.0966148361668016 1.5866331601461643
P 6.962952892202332 8.917642728074425 1.6179605902299303 -0.6308232459452877 0.3536354423405329 -0.16648638589242942
P 4.888035381247214 4.1033019212823545 7.185281867556396 -0.14514597254344033 -0.3900656601431089 1.2181141158255795
P 2.9531759492241862 0.23054389336028241 0.41409778160361976 0.4917216798237144 -0.2919631621417166 0.08537810845618844
P 2.2237204421983656 5.4881157606118505 5.353739963122629 -0.09675189751076885 0.2052038570672853 0.3168756091126801
P 3.400324403909582 0.802492813138092 11.16424210079478 -0.8667931805508362 0.15100525953769478 -1.6895356506393613
P 6.789441539921463 8.565339406057127 9.206505610809145 1.1022146988520825 -0.5116592992879059 0.5701822352244632
P 7.365056930968062 2.4271084794095312 7.769279770673848 -0.8960477065405794 -0.5882113248120322 0.4479306507806931
P 8.292779025296907 3.9039305239443 11.349676038657048 -0.7819809719004468 -0.43693789921461523 0.25947341704412735
