# total energy = -340887.3689864101 ev
CRYSTAL
PRIMVEC
9.10573494400352 0.00000000000000 0.00000000000000
0.00000000000000 9.10573494400352 0.00000000000000
0.00000000000000 0.00000000000000 13.32716351234048
PRIMCOORD
 96 1
Ni 6.569505373405828 2.1060016594994657 11.542749031445334 -0.0913474386657459 -0.27986663598849865 -0.5316694238612456
Ni 4.708675623134551 0.319643161210463 6.135905762442016 0.3540177653806161 -0.4786890150094723 0.5353774688404521
Ni 2.7886221737873167 1.1376978219014877 5.039453276846564 0.14550309877254294 1.4619791369084885 -1.5051875539751625
Ni 3.9375382609504244 4.330122910698396 5.217291009021096 0.12893053912584246 1.6462516431397456 -0.8010397883041108
Ni 5.152962635021711 4.163642761527775 3.2500552842845667 0.36289707014811695 0.7480195273533377 -0.9214131818885615
Ni 7.290761520408822 6.083559624853154 2.771063585391227 -0.5317331872196456 1.2316905689584337 -1.2130660118787109
Ni 5.093101534510434 4.923407060958846 11.36476469694068 0.3245981745679184 1.0297103610347687 0.6383331811690877
Ni 5.665997944575457 8.07974612278189 12.46600224616842 0.32228186772991596 -0.41074709975186036 -0.043556287324395954
Ni 2.0682766002633515 6.2213567094344056 0.1445061899747263 -1.7959114443931392 0.43666921893426086 0.7514270103729896
Ni 2.55077127533051 1.498913215296957 0.400626834714743 -1.2534446728060735 0.7718287139577933 0.7067769757637827
Ni 0.5914812147719756 9.419518411149188 5.060616825646124 -0.8896232910714744 -1.7953673989642114 1.418633422933002
Ni 8.775069137102175 2.2179475630111223 1.2175833437900605 0.6468304200068216 0.5073917822608036 1.8202659619781036
Ni 6.989662188098756 0.6617246740911248 4.921055049662518 -0.8488329965279896 -0.5303368210927512 0.14145798216889185
Ni 0.6286508241858833 7.237802566868575 1.9632510551923048 -0.30008861946232834 0.9020352915825819 0.692863193896168
Ni 7.657740843926535 4.196532675590253 3.974839903518791 -0.21227721897429894 -1.6307162665083077 1.212586501139131
Ni 7.745966308309522 3.952699309376235 12.973900100153495 0.7161972406364182 0.43657254545539653 -0.9970311256341926
Ni 8.00333079642189 8.870970735913366 6.954673402167119 0.3931584401358197 -0.48361113490143814 0.4846100084795976
Ni 6.908985377856908 0.6846638411747887 0.4533435757095684 -0.09559387264692568 0.30618419083710496 0.042730706099307056
Ni 1.7223042069068046 6.585886590293535 9.188959385112435 1.0704546328316662 0.7744568956092598 0.05820231937234492
Ni 9.002758035533033 4.878916440773557 1.5502823075428214 0.24250516462090496 -0.698349670932036 -0.4435469198907006
Ni 6.513004289032164 1.959991202137386 6.962869474051847 -1.114560622011945 -0.9140904229749032 1.2541668956840788
Ni 3.769974529339761 4.5742021317517505 0.7966033706720919 -0.7858214286924596 -1.577402899797148 -0.30583143548337655
Ni 6.041054054852145 5.848285649341996 5.063255667588346 -0.5820399058939976 -0.6884151854271435 -0.9768708486362337
Ni 5.263214871862377 2.8940847941282963 9.264910318998128 0.5965496694743985 0.1495117057113038 -0.4885319692418231
P 0.22985970560485994 5.532007057136541 12.374857483211674 0.11842552582946055 0.6589048346728523 0.06890839293593938
P 4.077038117937457 6.438583118591237 12.569101017757845 0.3008375818132109 -0.5142239746912887 0.3613598075679841
P 2.2333817834806404 8.603435142040258 1.2843757296236948 0.4437140415961842 -1.00502802779674 0.013927151604053433
P 6.2691344998789855 7.77952094101169 6.178499658070492 0.35677218819730167 0.2858547352511335 -0.9995397509886592
P 4.5201869129758325 1.3361482059207688 12.90056069100565 1.7857332183085568 0.7057691033245587 -0.8514678630476755
P 3.979961879338322 6.110503494097583 8.403016098159318 -1.4259230146158797 0.16877466770597385 0.34867604145272857
P 4.635228766316183 0.7253591910994913 3.613434200266205 0.14867841117673106 0.9429276589215696 -0.01964991302044358
P 0.20783748601457677 5.608294903209475 3.650136685485372 0.38546801347009746 0.8889769157367271 0.5262870765034098
Ni 1.3091861252067605 0.5652357553859622 2.9118254972201916 0.04316599386451275 1.2304746942734615 -1.6790982573561213
Ni 2.101321311817264 6.542133534626258 4.557090634933864 -0.7053425573101013 -1.0328121398885437 2.618776556102458
Ni 5.93999861014966 5.5079041771466795 9.155694314776598 0.3928848747594589 0.6488119692132245 0.9890733042396966
Ni 8.735313499007828 2.2896461187497574 10.112811757184721 -0.6224237090276828 1.1273492891361812 -0.25508145862401876
Ni 2.431549889721423 5.030572453705608 7.091996988539275 0.9519946542198443 1.0988810064931591 -0.18783194144774104
Ni 0.27344248403155924 0.056755134374312954 9.217372919952012 0.5522017394866425 -0.42666685630591034 0.45131910763695177
Ni 1.2434518257557563 1.2991060767939246 11.578133006266869 1.0240534198593072 -0.24057478036741148 -0.2505146651889428
Ni 3.838540712310541 6.725058640828117 1.4785555240263364 1.4586531578590491 3.1527818271857315 0.22982499805007517
Ni 5.516117549927509 7.713650055538832 8.256590419290802 0.21084588584441108 1.0200748948275336 0.5540184809804072
Ni 5.301559121064229 2.4554069148719466 4.961889717329512 -0.4336450873959564 -0.19279545610060345 -0.3773546403343437
Ni 0.8072561698032361 7.230117326705582 6.542637992333639 -0.4174494514727004 0.40127541281599927 0.9033498966289475
Ni 5.177375109994441 4.767535092818897 7.087718203761325 -0.1941846231386462 -0.8836555035238136 0.6374800891401732
Ni 7.95913155974989 7.17172224949554 9.10932973437147 0.8829895878050406 0.3461681874292103 -0.06449098059453409
Ni 4.422955876885262 0.7203683378609409 10.701098680192269 0.5991752800227035 -1.3820224565781876 -0.6082731285589137
Ni 8.066406221314134 7.098794419560217 4.91355192419533 0.7980621937330256 1.0162678623766175 -0.5808695397349802
Ni 7.5606463938578194 6.1120787862163 7.043552658308048 -1.5116567066392739 0.7307165172985158 -0.8502797562768454
Ni 2.119605627276139 5.492715811516498 2.5194338890497745 0.22147688319569597 -2.099073817684785 -0.4561615233309177
Ni 2.515568504631302 5.318887334370125 11.41763441427998 -0.040548353736007584 -0.8287783918699598 -0.8777478797901271
Ni 0.7646741116299882 3.2148798307897293 3.5019654372575597 1.0884742093375384 0.367537911354238 0.2741521021022246
Ni 4.347460229739082 2.305062127749695 1.9133407016598427 -1.3539694070957133 0.9047421489907836 0.39347211472149657
Ni 1.0918231300280759 3.509077016128765 8.202362126320791 -0.9713920849098495 -0.42976606405652434 0.7105071322301764
Ni 3.451984058993733 2.558647735924099 7.021535902158639 0.6632533414495351 0.29246632703038017 0.730087111244633
Ni 4.168823924623442 6.946036612718543 6.2991233268372815 -0.9547601327801236 0.08636284096696094 -0.4462715179107153
Ni 1.2151238848232069 7.512222096243131 11.683617480371346 -0.7464840645454176 0.5049327791973498 -1.2145953040390438
P 0.2774098526796826 5.626724910424995 7.949866474600784 0.575790582550176 -0.5853972524020047 0.9830391822304748
P 8.4271572222353 1.7811727823259407 7.9481600599010855 -0.19771757599256917 0.23162914113834945 1.1499019776257162
P 1.7140270939824434 3.3344017056468953 10.641899566600244 -0.32787658820887405 -0.39151139145069996 0.24608028356667297
P 4.05635899422874 6.094996427749742 3.4812152888174777 0.56734065201061 -0.5050027132033367 1.8856974521090362
P 6.842577254031423 4.00988332385917 10.40532893445495 1.6223282995549286 -0.4274533567629477 0.4582986242785785
P 6.353917996511248 7.8886258552687805 10.38231327919905 -0.8454429970098344 0.5027627681292245 -0.3835646257997975
P 2.4340084381147977 8.501614815615389 6.153058235066459 0.037977764795353953 -0.42603899291392433 -1.4568225324082136
P 6.878444743370322 3.9910981929868297 1.8386418063078114 0.11186844143723314 0.20598110155294203 -1.09973435563239
Ni 5.590074327894133 3.3138591679600324 13.443376306190995 -0.4792153198265876 -0.8607875977867047 -0.17408965216098407
Ni 1.1720537592652 1.256992053388897 7.243020152903403 1.9689122343653185 -0.8171428645135604 -0.9090610880811119
Ni 6.90540682408433 0.6120783868675804 9.086819447396428 -1.0516223306165116 0.15441428521924375 0.9322156718207041
Ni 2.6404354458103607 1.777985775149344 9.368875956539588 -0.12055388502637303 -0.5125720409101624 -0.4377701653079235
Ni 6.506347996900472 2.0349131879917794 2.7553643880393115 1.0489445266740323 -0.5593411787449012 0.1298887892740537
Ni 3.8885220905743676 7.344530884345403 10.491036663168426 0.6432067072113051 -0.49356953166573064 -0.757653708008992
Ni 8.07123226075298 6.923299592947222 0.24107523914604323 0.2010085880390151 0.06761487093549645 -0.4643139772347229
Ni 7.626890614457079 4.072394193194416 8.058761956957698 0.8714409637354926 -1.724417293007895 1.7670988910368213
Ni 3.2872977395767964 8.590696219068661 12.619077843154276 -0.8386097761380847 -0.5591737999291014 -0.15635263989253717
Ni 0.17172869470373622 4.989960876540975 10.217829107094458 -0.5235629927040274 -0.6957286883694211 -0.12975432057871847
Ni 8.610309971806917 2.5834699689623926 5.80485948955369 0.7925680033876737 -0.24204802247882828 -0.47769708340984823
Ni 4.133520990841541 2.9238423354229193 11.36472554228108 -1.7813751984501773 -0.4857502927316279 1.1652314088939353
Ni 1.2429783275466617 3.7083287048095905 13.042028297280861 0.17686027292758574 -0.49128896316167 -0.9355380513257178
Ni 3.10482792011445 8.579304944846026 8.139431482611714 0.738814978035934 -0.133346408805351 0.48823372127511394
Ni 5.705143498438853 7.855808787084626 3.5489036789544754 -0.7222647869867367 0.04923148333230231 0.3061638791221308
Ni 3.0187605148767593 8.195753184010009 3.487158601915091 1.7281510490187142 1.1675834540658794 -0.8857242131273841
Ni 3.239128402536235 4.178667223931731 9.405991842118231 0.6693962211224794 1.0300024383538906 -1.2278771087496143
Ni 7.432719925789228 6.2290965840061405 11.28542825085996 -0.5273695109343111 -1.0256493035915175 0.7154436502998452
Ni 0.3494161822542293 9.007829929811217 0.1135266590712484 0.5357253390981742 -0.20032878836317114 0.958568193672304
Ni 4.703357874017029 0.11842372324145897 1.3294236207781496 -0.12094906358226266 -1.934793952525371 1.0118149688115865
Ni 5.948548895117729 5.7151324895037865 0.5049539699273753 0.05402556228683599 0.31238286344864913 -0.11826920275725439
Ni 8.030602472118769 8.78179827511219 11.459014515460913 0.0650162569703848 0.36674626869087806 -0.22842117572401305
Ni 0.387311518730922 4.9287703387503194 5.842335051656551 -0.2576484480202466 -1.0237680274084044 -1.221715974244225
Ni 8.004377955922774 8.754736031315488 3.0045555686039283 0.21338844976060667 -1.7540166039315663 -1.132001957416844
P 8.605675152798666 1.4519367295139218 3.6960086456383467 -0.9100972426551102 3.0084645211911734 -0.2235661616245569
P 2.042352573315435 3.316481619579632 1.6664687517463097 0.48571892527306015 -0.1351947748679994 0.6813626494557362
P 4.71620606580611 1.0922784167675896 8.263253996010327 0.5018988774670324 -0.30052493566879857 0.07854540180507118
P 8.446470485725476 1.668889966627044 12.554201303920518 -0.051245685548853684 0.360717803108611 -1.0523054727264651
P 6.683144943588476 7.905198292587084 1.5457777005420719 -1.3241687787945131 -0.19929854732644386 -0.6002453731584309
P 2.1702699356492356 3.3586958060673524 5.480862876539996 -2.3261600766474584 -0.6623655395279431 0.05779891328633916
P 6.849415660858921 3.85168028761291 6.115302216332058 -0.3871040064116236 1.4909009621491613 -2.4125254887175807
P 2.257457346266131 8.831542904271469 10.091061799064668 -0.6691280550627573 -0.2612839878903049 1.8479420877371335
