# total energy = -381165.3026433846 ev
CRYSTAL
PRIMVEC
9.23564769911538 0.00000000000000 0.00000000000000
0.00000000000000 9.23564769911538 0.00000000000000
0.00000000000000 0.00000000000000 13.51730396122840
PRIMCOORD
 96 1
Ni 6.879190731347011 5.904109508454202 11.555159496633063 -2.3948576391241723 -0.7289470841029188 -1.20127981787706
Ni 4.05377517968395 4.552823408282834 5.077666801172949 1.5195471651309442 -1.3299329349717999 1.2901908791871717
Ni 1.014369668612429 7.991384381403308 12.695033306695537 -0.43979542326806836 -1.1015649810832255 0.23446686769746072
Ni 6.463060148650983 0.16842034962351038 9.494311506284362 -0.6096828644222468 0.2776467455190444 2.3945308519123727
Ni 3.1603186120027065 8.60840877493459 10.388940077670782 -0.5752509079966222 2.380054512673069 1.48236438543306
Ni 1.8581199798613754 4.11327122277887 4.027561640547609 -1.0392897771930876 1.283567717443699 0.1866579757442979
Ni 3.8225699727857463 6.283038901832264 0.9107835665093066 0.5395079460690579 1.5434316850580256 1.5301480805752423
Ni 4.129710675853841 3.5010401304531555 11.488127164937483 0.9150916105459079 -1.0538854156190751 0.5076599483205257
Ni 8.572629875377043 4.915220992107977 8.095459049274782 1.5469337846740132 -3.3070714139016526 1.1171916318768889
Ni 0.570308639854982 0.6286640804472287 7.99839146738532 1.2410840943581916 0.2820908973333271 0.06349236412669065
Ni 3.3450130966056575 3.225956360881253 7.108344700869962 1.0262239451480648 0.40565554416156596 0.026611431939941265
Ni 2.075000697029648 1.1843610019258564 0.8751247303730931 0.5547247630188124 1.03230434701419 -1.3685917849945786
Ni 0.8394769770142337 1.9235083662494592 10.880510202250115 1.2331229305295859 0.46446155855618076 0.5609920840847629
Ni 4.84450363694222 7.24221633922221 10.712301348961107 3.4958636623801342 1.0605348026147927 0.5611527780323433
Ni 3.2275448923019803 2.3151183040499563 3.963841212151289 0.42747212581602506 -0.7475736980651705 0.48915314776558977
Ni 1.6702207254735844 7.381480672321914 3.712027580763485 -0.6304054416815789 0.5223854274561583 1.0537213792373852
Ni 2.6833620529292883 1.2675187746713799 6.15223903993661 -1.0860537728215038 -0.706067608401584 -1.500011923311494
Ni 4.098503421954782 7.489981062616717 8.580176323190278 2.73618186819752 0.7184132744511306 -0.3448165584973223
Ni 3.279513882444035 7.845562738369204 12.68450282107976 1.1046665028266847 1.863632758999513 1.129956644852041
Ni 8.744246682702377 7.041285585795777 1.7666981494689513 0.24516034285556487 0.2591692555401472 0.28111310680109003
Ni 5.153759303355353 2.4620944030584253 8.75130548831204 -0.05866228972789897 0.052103148453142525 0.4736761351759132
Ni 7.58020410592536 1.9126010662036501 8.751034883831649 0.6935229389673541 1.036253561469925 -0.5395629676767094
Ni 7.8606537868661155 1.3517017043221398 10.95365283852682 -0.7497236545286378 0.4784236771632277 1.602836509378904
Ni 0.49760284971897767 8.767446629963233 5.532605575903261 0.34713415088690536 0.0275164602527139 0.7556461906606599
P 0.21704695882858088 3.7027743852377473 9.950614386193985 -0.0025217379805892053 0.018356391020000643 -2.357609039185359
Ni 7.675044973131466 8.041275350791503 11.279014551129524 -0.5731724282010386 1.5996779091452644 -0.5140475970144244
P 6.11524565269403 8.276202523751063 7.966842494517848 -0.3556146775540908 -2.1551896868417466 -3.5312649246975636
Ni 1.8233108233222954 5.778818710468222 2.0982098799382993 0.09277697202342086 -0.922751955304643 -0.1443702707196804
P 5.316796193879201 9.05535871432229 0.2902403911681573 -1.9096367365334528 -0.06400504209705106 0.9957471167154465
P 1.9205067807161076 7.945252320667647 8.870838783462663 -2.185567013582023 -0.005659769388938639 -0.970982765286573
P 0.056768756301078166 0.017000056896122242 1.225315558507681 -0.6653539327323057 -1.5017034520813042 1.549174243968758
Ni 6.091962584603019 7.5565331406269625 2.218541135058404 0.2709091696848947 -0.8395289455182444 0.725854304110208
Ni 7.264769791137422 1.4866437542538191 4.658549409980041 0.11048827326025489 0.028130182577312847 -1.317128327007964
Ni 5.460853828184473 4.5168043818826185 13.437484262235385 -1.9427391755143768 -0.6913156469033901 -1.118033925272526
Ni 7.349553037894851 5.3955023843875685 0.40871989890537913 4.691947023657919 -0.18272804456227237 0.4992655536092434
Ni 1.866404355933425 8.032464542795143 1.4738865539546864 -0.09259879457434375 -0.5839592344038975 -1.0634213801339685
Ni 1.698638813738575 3.000070887112927 12.890709900091435 -0.7013324077094438 -0.4329958838477317 1.0372642621226265
Ni 3.3312335100956263 5.761584991682888 9.712223845311328 0.906228246618007 -0.9629758358216964 0.33534461445114505
Ni 6.775622176974699 3.040633852228247 1.2562337366307583 -2.426050776897525 0.5992164176732842 3.4944613827159685
Ni 7.631766727564438 6.147662776454224 6.809923372885058 -2.7258054100592024 2.171117928036229 -3.0191271431113424
Ni 5.38894507445317 1.0997347611809398 11.514174462413516 0.09626518768233744 0.1494065475920072 0.3613559509132422
Ni 8.561011430451025 3.8852430787221213 3.8254108580474653 -0.1488085089966921 -1.18775890057249 0.543165083205671
Ni 8.95346181220086 6.6302438450347525 9.746043863971572 -1.9331461325093031 -1.2444147013933213 -0.8133278616428444
Ni 2.8341340031814726 7.845978342519976 6.870669922691412 -2.1284725825618764 0.8699548661082696 -1.7928158361869513
Ni 7.24011984717276 3.773343970038785 5.836717910059399 -0.6804193117058605 0.3536827506387006 0.09348119717929708
Ni 3.923534074479889 5.864285395162477 12.128212047447919 -0.9890270243827936 -2.824006638421988 0.19259593849528767
Ni 3.326357088059905 4.176082863432169 0.6168646168244297 -2.3793358893394894 -0.3906171617712047 -1.6289748583371688
Ni 9.178303657768359 1.9334643945723904 2.1773132033018494 -0.1660629252017656 1.375984992134856 0.4954202117212242
Ni 4.094504386459579 4.121306236360457 2.6985814769305483 1.008757155821869 -0.7001494431449361 -0.023374155949566197
Ni 5.366493214663703 0.3155894736708936 5.959062536398798 -0.7908121970388315 0.9640855239461074 1.645417577274224
Ni 7.269646213173142 0.01527299075847088 13.220761474644405 0.10890035994784471 -0.026771354556573247 -0.6318264903988215
Ni 7.078606838535077 0.4741738583928067 1.9776357272811882 -0.11226773375818083 0.7963372406221189 0.6392628920722087
Ni 6.935814487977709 7.85369010842874 5.239347898600501 1.2783116112510822 0.7240915557828304 -1.5690061910930204
Ni 3.9918686325145543 8.672651940996102 2.250266508798758 -0.18272135969405306 -0.17800184273119668 -0.7669186782506856
Ni 6.4309108586768415 6.132534785366134 8.928787855551933 0.34543593724887606 3.56444552521459 0.7105636964997246
Ni 6.047354405753521 3.292803979620935 3.842212348515997 -0.19045986598889134 0.616907407195144 -0.4751838300696913
P 5.305593353103954 8.863063291584114 3.9777103844449306 2.3668688672207305 0.1557512588631124 -1.900990630822681
Ni 5.1506930682874374 6.853487923533729 6.351753968556081 0.2737237563155544 0.37505350300499274 -0.005909937726531757
P 2.488877781663714 5.971926870212352 5.179330964969947 -0.9338220970758757 0.9935663070140437 0.8083918577938078
Ni 2.99844541310102 1.0542769027343089 12.207423427890669 -1.0330132001557566 -0.5083335773487825 0.19903243814925076
P 3.4901235947595515 1.7193174291514166 10.301293780096925 0.5608270192618083 -0.5522392775927973 -1.328495688304641
P 5.188143620095866 5.00668161222114 10.327747446075936 0.4705769274252992 -0.43360317841442747 -0.04304875156035811
P 5.955136462521175 5.289412498167242 2.004656462034806 -0.5940526140841575 -0.014765588344948764 1.7035998420419114
Ni 3.2713403341455245 0.5969331653181977 8.176739214823597 0.5759417634160597 0.2257264025006693 1.470223893415784
Ni 8.87943809512452 6.075689373188357 4.621633602178939 0.9417662916236168 0.8486998133842351 0.20940041164713613
Ni 1.24721882081813 4.268919595066777 6.33600626550095 -0.3557548026763809 0.08666443136777977 -0.03948340280660297
Ni 5.885444264260654 6.8764662152475085 13.413747723837643 -1.5515424870906183 3.1507164600162705 -0.8730820988833415
Ni 7.637502064845088 0.46232082801279734 6.62458701076036 -0.23600747271170322 -1.1807032792772891 1.1724322975177486
Ni 6.59194361362919 5.650406263527556 4.414494646304755 -0.9049169840057512 -0.2162536871235437 -0.7698330236840033
Ni 3.9957568402362185 6.231134561224775 3.5131471411475252 0.280771150080639 2.059672433069027 -0.45384213116912164
Ni 1.5877002124259112 4.940480488827102 8.741045607176655 -1.3339770231341865 -0.2895350123161981 -0.823138419975363
Ni 1.5655993072526506 6.738106975631705 10.7870657649906 1.6668222682022455 -0.009761707372454156 1.3015379287688746
Ni 2.0014572336386434 4.286513504116113 11.10068065716294 -0.8771920072866571 0.6373728741383474 -0.9229435024901589
Ni 8.656277137455696 2.364455134570457 6.789025872619477 2.408983022781961 1.307105395554323 -0.9929307303125737
Ni 8.2621181608638 4.057127719833509 11.596982204107613 1.2833789984716608 -0.1325138856017266 2.24019884199429
Ni 0.5569926828642562 6.668784203282983 7.049193147437793 2.211907451248765 0.1544379393683276 -0.008708069296959197
Ni 0.16141972859495568 0.702824485110934 12.85525332464193 0.9387179917155961 2.16930144365278 -2.133652584100919
Ni 9.179227222547851 4.5072916646538435 1.6585053062457193 -0.023043769193340956 -0.7121750068509025 -0.3363324322857111
Ni 1.9525914211556843 0.6695743059196375 2.9163580519349286 -0.3542342522667964 -0.7919586519384489 3.678142792330446
Ni 8.346014785432917 8.150320644306207 8.155719804007122 -1.1515711377980231 -0.4221540560372213 0.49737990655075637
Ni 1.5030647360331995 5.565530660292176 13.086804868332447 -0.49061893367783893 0.36917416140608034 0.32108373365675674
Ni 4.975382001844133 1.6161275363386967 2.5127861031104417 0.29708737074215935 -0.37635268143239053 -0.06430663249786989
Ni 8.282787540628846 2.615710932831447 13.470669791892115 2.927493026443113 -0.461722819468779 -1.6536715897529002
Ni 4.392991287543826 2.2397369467477617 0.22973581533403115 0.941188821853592 -1.322659284128522 -0.15457780738030155
Ni 0.4559630080707695 8.98810472707963 10.410311366668244 0.31124823562357357 -0.7456757097115094 -0.7867133443791096
Ni 5.7874817480998635 4.727358680311365 7.424324842442581 -1.3860580601001418 -1.9746419377602444 -0.926066878610489
Ni 3.508299349619968 8.453434604935714 4.803617424154079 -1.6190424297148052 -0.017289383208067 -0.5542750770759035
Ni 7.11555866536258 4.127863546294855 9.644501610725467 -0.8383410958577304 -1.896644180928527 -0.09041335688725073
P 5.408367641765903 2.5012350784133264 6.523072464457639 -0.013277433835196488 0.7285187383162486 -0.030748851147082524
Ni 3.382463648414087 5.646610412283841 7.241841371921735 -0.7558421087215499 -1.2581438780539558 -0.30731650466933524
P 1.0420581407016203 2.1829746554001397 4.820567608552108 -0.49607918546146185 -0.24771833339072818 0.5982275713974536
Ni 8.835485647268461 9.039307158454706 3.4490480511916135 -0.07660164781513905 -0.6528095204083918 -0.12132290198191364
P 6.468426060019835 2.943650314733717 12.410574431047005 -0.39618874232171125 -1.4502248245860379 -0.5460166937218532
P 8.779148195719406 6.436590782070722 12.07047908951705 2.5029226476549153 -0.5875898891779494 1.1029595474379068
P 1.9272488036064046 3.3791480508557084 2.0379232653921333 -0.58483572347158 -1.0120216855057538 -1.3152349666399927
Ni 2.074058660954565 2.558366795672745 8.953767512142873 -0.6248222911668465 0.3562674806467413 -0.48781488857014055
