# total energy = -340855.796975831 ev
CRYSTAL
PRIMVEC
9.36894674052068 0.00000000000000 0.00000000000000

0.00000000000000 9.36894674052068 0.00000000000000

0.00000000000000 0.00000000000000 13.71240058240181

PRIMCOORD
 96 1
Ni 0.9927335685288173 1.8496455200043855 4.002951711800154 -0.8776185533011144 0.08041665068585506 -0.9447515995041857
Ni 1.9154530000472925 7.8190510288850845 7.057950608539754 1.2979280999304292 0.21797349802812785 -0.7141061624353444
Ni 0.7508039481689137 0.9258280479589985 1.4276531804399502 -0.38839804263269884 1.1859264753494414 -0.6865832744247272
Ni 2.254262211435624 6.465791031038059 2.8763265291920113 0.5266542300348414 -2.32152900563335 1.1580760287960765
Ni 5.257552955683082 6.4068135129756865 2.0169842730007352 -0.4781760799287959 -1.4206034021751792 0.47008250428738396
Ni 6.754907350321097 2.9188952743974426 12.514018423510583 1.1750633073826924 -1.6925890927537044 2.0447515500931366
Ni 8.57261413179099 6.482271007888211 4.217509018137655 -1.3813285158349564 1.2532346136777965 -0.003982124576199594
Ni 4.955479383424625 4.672911957727861 3.8019550185910846 0.31501284487232845 0.019922192845223754 0.6290784953400392
Ni 7.442559914772868 3.737872361594291 9.078623435767836 0.45494976241100354 0.698977277213706 0.3036274858535222
Ni 5.846513037963443 6.786471330996574 5.373135774560265 -1.8416809373187701 -2.3213765392158856 -0.05350697077920462
Ni 3.7468478123176827 1.779668858779945 9.830186268601254 1.02599048898102 0.6833303147050683 -2.1568305648792787
Ni 1.7248230461132057 3.9069912144209584 0.513939180273588 0.4177443570052998 -0.6754560541633141 1.5269881947900217
Ni 3.332168872371911 0.07432291549435877 6.12936059515982 1.4004032730782205 -1.5081386661836866 -1.5853578929781664
Ni 8.396431093321905 8.38489792021074 -0.0741083666200731 0.44458050336153754 -0.4506002271930562 0.02466407840558333
Ni 4.506285244663638 3.9087994210907024 12.70837815503651 -0.8501959383137873 -0.16944649696201783 2.1353266293692323
Ni 2.7695261607408277 5.700085773500089 13.530998825517624 2.728889191190849 -0.05867977322939571 2.037204590983814
Ni 7.65906689887189 3.4347400983841183 2.219022793057864 -1.0550835496922344 0.8814024458235789 1.9938038554006763
Ni 8.004265731756416 5.488160204227516 7.038177447003513 -0.2061255975506063 -1.061854806977797 -1.573956078899128
Ni 6.3431327837826865 4.456020846823348 0.8466997998174293 -0.5463396242789108 0.7403854078468475 -1.2556450228915021
Ni 8.359245744761214 6.01298984788406 9.933495767595721 -1.2277536957978725 0.18771084248884445 -1.1272027362559878
Ni 6.0013161405757645 1.357241800099053 7.950600406345571 0.7041037998069939 1.0183589405776914 0.008156567668863371
Ni 4.621813723651264 4.639708411419195 6.346153332126341 -1.1515071173293072 1.3426606669511136 0.20867330367312448
Ni 0.01592814590275427 4.258607775641103 5.010716818054034 -0.4144960252713313 -0.254292129953504 0.15968067582450565
Ni 5.972928232755433 5.795236793903815 7.840572435833627 -0.6480568362147549 0.9804811916953113 2.0699172507254864
P 1.9453867840360577 7.259649972734475 1.0322958188103069 -1.069336974287455 0.3801219186668357 -1.9483596070249476
P 5.637341938954625 3.558841163396696 8.003228589381592 -0.3745338830560969 -0.26537229902706555 -0.10543451288643133
P 5.303957347575524 2.05674608184215 0.2536642258202881 -1.4593699814204157 1.2695948002033748 0.27647843624255614
P 0.9601390037410507 6.660459000903024 5.0962271925346165 3.353056622382516 0.4049112097963736 1.082719052021316
P 7.026353836551613 5.904478709806475 3.001905077063752 -0.7209272991222359 -0.6110697174674444 -2.1510769502249536
P 4.016073858233539 3.8575606528169755 10.687321201002938 -0.4720673959278966 0.05031443198383593 -1.335167958118494
P 4.68142833007396 7.659263646747873 11.816428217532401 0.7295165834531436 1.0788922220760582 -1.0217008604667308
P 3.3217412349448385 3.208058438412858 5.514524419609171 -0.9552614978965742 0.3417559172941276 -1.8096596472171673
Ni 1.7930477143467545 4.365048376547633 11.933065042888062 -0.15607727474396346 0.4019526413886819 -1.65525487507962
Ni 1.413923926274962 8.52981678429156 12.852180240697468 -0.4650156312874378 1.193059743960113 0.16170516245370214
Ni 0.035943026258059216 -0.12175789149909075 7.4534025965287976 -0.6140542540170651 0.378417020160587 -0.839568283396612
Ni 6.141269463024646 3.0061014281900644 5.927980712039909 0.43004708563205285 -0.7078262429639035 -0.645391630677766
Ni 0.5375948332292168 6.358591545467024 7.9201044855682845 0.31447599853225194 -1.3494134122939148 1.1529754743447176
Ni 2.8725845719697536 9.246269490208578 1.8901858882979024 0.020045605796965477 0.44823738338783453 1.2341320885203906
Ni 3.6742946908125194 8.015414778062091 13.714731361056554 -0.27104775214528803 1.2330229146166118 0.03028502413678655
Ni 7.512030652887639 7.81274572790717 6.254335782878549 1.9915397419568477 1.2924156547526322 1.4908253717162196
Ni 4.5603159589870215 0.7631896954093356 3.6806271617352126 -0.22484631388856116 -0.7693583980404298 0.34524104762925056
Ni 8.003900342843876 0.7658757723638204 10.012740190673584 1.7470933944491718 -3.7205922197439087 -2.015028311997091
Ni 6.160044831761261 4.438800723201642 11.139748563192569 -0.8063622289582888 2.02988286051142 -2.193291121699158
Ni 0.5161970963741491 8.300024634090482 9.478449784866227 -0.06098039633811434 -2.1207929545294313 -0.9283610739613044
Ni 1.2803414874293235 2.21346981848192 6.358385428644567 0.09798654124881834 0.2636841126913652 -0.16725026064164744
Ni 5.99410205178974 8.407561401734629 -0.028618383903625193 -0.004403271274018223 1.091636409115604 -1.2713434074633654
Ni 5.948428437722375 6.753614435707498 10.337668370964026 0.07960469630752096 -0.5175607523740053 -0.28004764165105317
Ni 3.4201994934543647 7.285854916026048 4.663888725377444 -0.15372188713790944 0.48098501013250067 1.284265514841672
Ni 1.3949799165017904 1.863202385554227 8.750211881177856 0.04941351743612135 -1.0784661902822332 0.09888334203147485
Ni 6.426104173768446 2.0155227173505796 10.40324162734505 -3.325926084714311 3.398282326989534 -0.20056173030958363
Ni 8.475514370520392 8.027051009584483 11.341622189791732 -0.4118519027802649 -0.06932208343459029 0.20773716501210032
Ni 6.77191198817387 1.8564754819849207 3.873478492878607 1.5997915519049932 -1.574457958236211 0.5380071931538153
Ni 0.8761632626931316 0.637851929462011 10.707958179404205 -0.2324590932388126 2.428928612665952 2.8462700778058787
Ni 3.7380222647378964 1.9564327719305037 7.120424617426729 1.3997527839784152 3.232899715684245 1.1913216782230838
Ni 6.504700265750215 8.481032679994378 3.908582998427122 -0.8541053006705226 0.22875181959055443 1.9711298108419282
Ni 3.84600874181286 4.3606262338112645 1.6083548617941015 0.05232966264165181 -0.362321400150305 -0.14463715122782186
P 3.1716319745166706 0.3275514853035427 8.230416172462522 -1.0436981906734284 -1.6888879897530331 2.4850344545205845
P 0.28374978674195417 4.073758461682311 7.324697631218231 0.18917688551140968 -0.5716768174921186 -0.060195181432657625
P 7.7924057451091695 6.063338566242628 13.415650230302324 -0.17156277197407227 0.8551568818634886 0.9050632797756285
P 4.842386830520591 8.368286778109933 2.055406322496174 0.25125514289939305 2.4492896928208077 0.2733337199659873
P 6.3178085214597965 0.2526458213384168 5.754613978881315 -0.28560508113417266 0.776638733751927 0.6298721948859282
P 8.858010979323312 2.4759408539890435 10.839378265403331 0.13885859687283184 1.7863759940988784 0.005799123180280336
P 1.0722290793722207 6.22342575466705 10.287645691942801 0.9605859954332812 -0.11447811114593832 0.2101601726312961
P 7.4197746369448 7.915513701795359 9.076608175380988 -0.0011284571774883793 0.31548489941274055 -0.1467050895004441
Ni 2.2421387946965123 3.881310932132005 3.6296310491751975 0.2996289062170904 0.33637639814976905 0.11058134719469342
Ni 2.3466587615755934 3.9404289843915072 8.10465961460775 1.2294408536923085 0.33012964590910887 0.3795583328538818
Ni 5.5636645438724175 8.505860388154073 7.849018541081161 -0.5311261497632659 -1.4070901981800927 -0.5880076934416583
Ni 2.143502526203955 5.0131077731945455 6.040806249969394 -0.18308182835726533 1.1700504275491335 -0.4996195945145524
Ni 5.147598999848293 6.1989915422593205 13.407847771677647 1.1361578885667465 -1.381553487361569 -1.1667625008264808
Ni 0.5652716380120686 4.034624372254745 9.621689733738663 -0.6737418996856849 0.3669725257690712 0.6307425133060233
Ni 5.618294870770224 9.213047206006962 10.284478051139482 -0.6008048452063266 -0.9892013451771284 -0.062492976327898825
Ni 2.722390991023307 2.2977715988671816 11.758863536598513 -5.198775734326401 1.8144511550685396 -2.0086604607975342
Ni 9.204971174145205 5.954611942396111 1.8152746029648912 -0.8269827334221177 -1.141055840088996 -0.8292015954503074
Ni 9.085058028207111 9.014865881213739 4.6121936894103674 0.7836773857662632 -1.1368343458084809 2.418936277339931
Ni 0.6902805539381082 8.102545980282908 2.447087309528887 -1.7768073765738368 1.0538656181247334 1.0788546839699031
Ni 8.090422563543797 1.621886431188459 5.799166130055579 0.01506512186323857 -1.9089433100108544 -4.802233722430329
Ni 5.414857567004324 2.6508216088980556 2.447814339775375 -2.1449327850004285 0.6302290640047146 -2.0930461234334663
Ni 0.7149677279006736 6.168654893572114 12.972574950484395 -2.557678917460189 1.0415253513918257 0.09908671629153258
Ni 7.149077666432313 1.554261375529333 0.9432158757226136 1.69498356112781 -1.903121561122755 0.2708235519496239
Ni 2.737765432189368 6.861507223317708 11.632764075302742 -1.0113714535162646 -0.3417893416352243 -1.6057002040799444
Ni 2.90176884024049 9.110438504208854 10.754265134253304 1.5774319532628702 -0.7089557285826564 -0.5163672462865365
Ni 8.386396951646798 4.684791781858613 11.926949931523598 0.7561056467955817 -0.7429269433217786 -0.9248625738897427
Ni 9.058572016521278 3.2319117761391167 0.007635691377415875 -1.3338867774132255 -1.3655280584675902 -0.297718576568255
Ni 7.1350055088263264 8.342213000069014 1.8980979635963415 1.4091056859482247 -0.13893264464387683 -0.4504431327899016
Ni 3.554831254305243 6.389752661444062 9.11529068158844 -0.4699179536850616 -0.2804664743560267 0.8849284566989664
Ni 2.8750486048927724 1.7684167540630413 0.19135417349663195 2.464531963691859 0.05904949786398862 3.4899089874585965
Ni 4.396715415634339 1.3193256737132835 12.09510471975795 5.319397496476232 -2.9822382405047927 0.942438635100293
Ni 8.447950929989892 2.120820306787116 7.615551890072448 1.538705740337266 1.7781399793423311 5.5804811954302735
P 0.23871045035097094 3.341640877258497 2.1855644114050694 3.483273998640582 0.36880006589611325 0.3693572239511639
P 4.001392719106654 6.72715653086109 7.10268076969705 0.3634231178549161 0.15077848823886936 -1.9027808899538843
P 2.0454002876604926 9.391431946897757 4.498613014394968 0.09761347418011575 -1.1854425937344875 -0.8168253332731416
P 1.1034183021886839 1.4680014853307222 13.03100344828331 -2.486610026537821 -0.4417168086604973 -1.5212245528333672
P 3.104522210913689 2.114711753685183 2.6589163786527643 0.577819954275379 0.06957302310313179 -0.8082627884151112
P 6.680396119002584 0.634167122813253 12.069394456840275 0.8815955356709912 -0.9225154138138048 0.8878901104304514
P 7.141769888181535 4.721593003613815 4.87599230463305 -0.3181323643379166 -0.4472014859241524 1.4208458572032885
P 8.647443907289666 0.6878099627525566 2.962687604012556 -2.2088555517963187 0.6102618768541683 -1.840536796411998
