# total energy = -340861.053945529 ev
CRYSTAL
PRIMVEC
9.33497048710669 0.00000000000000 0.00000000000000

0.00000000000000 9.33497048710669 0.00000000000000

0.00000000000000 0.00000000000000 13.66267290115855

PRIMCOORD
 96 1
Ni 9.75224384087001 2.117451393150708 0.10903805820586411 -0.8228550844069893 0.35313664832724345 0.005902738637680157
Ni 6.535945047278668 3.6310235347786044 4.579522831384006 1.774928157273253 -0.5349028431968788 0.22441102612335545
Ni 1.972675333298068 2.788337064018561 1.5137971144206266 1.4604837833098847 2.580294597977175 1.1624574456932237
Ni 7.744132958974314 4.659597276145755 1.6883377281993832 1.3911722413982557 1.3627134718369305 0.8992273898201416
Ni 7.008033183126737 3.904734209286262 -0.2770693969484968 -0.5163394783723946 -1.042422152174482 -0.907107821009483
Ni 4.262552969374696 3.9117354372757824 4.4426226862710445 -2.9478829029533746 0.2738024320722897 1.0982166334362828
Ni 7.0094614336365995 8.612070525349896 7.020660597928637 -0.7166890926711721 0.464927956669638 0.5206514754841872
Ni 1.9731980916546188 8.52852253800828 2.2854099191222494 2.492595040476662 -0.9233265968611906 1.8162061900864332
Ni 3.932010993533435 6.936051224423808 3.0102283829360448 -0.2622833756890967 -0.04587619370682421 -0.8669122226272038
Ni 1.45413638348219 5.3436452556339065 3.263753116904316 -0.6146204109331802 0.10246617428672675 0.2167869339191944
Ni 0.7150923578907532 7.905226547527865 13.368747762295413 0.6115659403775725 1.4205154704470633 -1.7457031989698646
Ni 3.0570161893444157 2.2198093463575037 10.241307620850005 -0.7985275634052184 -1.3365581535978015 -1.0357028311727776
Ni 7.127268763273605 1.561787265049064 5.70509531930624 -1.364759812842998 -0.7563015648564716 0.7268884018016772
Ni 9.428507058634562 8.133793303959092 10.347028963982966 -0.02573391443099439 -0.8885555119285924 1.7984768911274704
Ni 4.5776829086683595 5.089435334819729 7.074914513865032 0.7118885859587353 0.03301373592185927 -0.3803016387778096
Ni 7.721075581462158 7.8726101600673495 12.108680751197419 -1.0113511418012906 0.6061668808491882 0.1609538861099744
Ni 8.15371413133194 5.900046846417114 4.056666457641257 0.47165344831892964 -1.4644167998157038 -0.6392868033316086
Ni 0.05869642847001287 3.1100668275636787 2.7998097429507225 -0.9634810575928892 -0.24761446082301225 0.2937313097857328
Ni 1.0327651431902103 5.553374041287996 12.907318295938591 0.3053817495404676 -0.9213213935057037 2.1270469058589434
Ni 7.157243354039407 5.53333185929666 6.218142505887138 -0.029211331456633557 0.10296805362380976 1.0244408851057132
Ni 3.2910719085194264 4.764690375753791 12.543754794910488 0.25343646682142806 1.440141472208107 -1.034915816495108
Ni 1.8927026397164335 4.131116582584758 10.682707040677341 -1.218276866655689 1.866912458192049 -1.402441643664488
Ni 5.697244608987324 8.807106067196644 0.9511410933001143 -1.9600666110492309 -2.097553781495833 0.5511301036890186
Ni 8.9434526485499 0.5577383585806727 12.334320060831958 -1.7110061618083112 -0.03772682512681244 -0.17942134878654262
P 3.2714778051194204 4.543096842400127 2.4409323971902714 1.8040829244603385 -0.3845778975556603 -0.15536610760955177
P 5.5752645474685645 7.242256931773496 6.26481362516235 -1.1394653556734247 0.7519841684280405 0.3611541193150813
P 3.5383646160799582 3.9385641429316265 8.69011554749175 1.1155810928566596 -1.516241240686163 1.0710112766660844
P 6.634195613398278 3.5018182059746588 6.7356294045104566 -0.7668466873621697 -0.4887201739932293 0.43132878055795393
P 0.8578184581880616 6.2188827690598965 11.0372809649669 -0.45283605850211045 0.4584629177705846 -2.611369207894793
P 3.2604532047785884 2.1928686210538273 5.885059551034213 0.18673562305976873 -1.1593795780988483 -0.7720662838898962
P 7.354192564869957 2.0728769082840914 12.132139532447638 0.689696109022096 1.337561398051335 0.6068405098774452
P 3.2015775448720434 8.552849471529202 13.082146426813452 0.49065904288715495 -0.45167494831447375 -0.10745514286088591
Ni 0.42060483920139363 6.9334467676117075 1.6347391272028067 -1.1354613767203543 -2.6206460052110288 1.0712339341998518
Ni 8.70374927213001 7.317711499559227 5.73744846059435 0.7530601751010386 0.12840886229441756 0.8009685687465431
Ni 5.396537199352075 5.956738123190927 4.644078820932715 0.25269033268402286 0.6600284067543342 0.15364192582959346
Ni 1.6527938939421831 7.521129845052094 6.789186931636162 -0.21195814507198335 -0.5353836394880392 0.15875816401023626
Ni 4.300536964960512 2.4167958970706644 1.8930863070102593 0.6581985526344472 -1.0183980213457429 3.9334726195198453
Ni 3.632563804936299 8.274452641753893 5.10542707304486 2.400605597351543 -0.2955413664112781 -1.7126825210694696
Ni 4.793638119747796 1.7836141726690447 4.330165228315098 0.49345100380999535 -2.602654967950247 0.22675638642708043
Ni 9.451657785853245 1.9596623842082117 10.285765418583463 -1.459416775497951 2.06264617098537 0.8991955081409417
Ni 2.794526149561297 1.3681052939469571 13.750523791066925 0.9367158736839029 -2.6072816680889805 0.09734068013470333
Ni 7.98673017629654 8.58391625386137 1.1754697730550174 1.646746837608609 -0.582314756821939 -1.2894084924951923
Ni 8.60640419816371 4.7902215204889105 9.801751857726577 -0.10503084969010942 1.4862387807868018 0.4645998839062579
Ni 1.733914788914099 0.16211110035469378 5.480480989449365 -0.8269804194292725 1.6823136789696251 0.17689729681310826
Ni 5.203321976782603 1.9066957607248225 7.438082212137462 -0.5088740232332849 -0.4069562652508605 -0.6519669699024385
Ni 6.029382864810197 0.4467866313910061 12.341574266526166 1.4472343744991463 -1.4316498897973278 -0.6057148809134342
Ni 5.821035654812707 3.5900990234371912 8.948818389681069 -0.4830822589811615 1.2847442542503036 -1.1852243070760944
Ni 6.119054592899981 1.526081002302507 0.5650905814667349 0.47593279242057385 2.276398174732983 0.04393321104784047
Ni 0.2690609256255501 2.309966492921228 6.277820973269814 1.611454332954902 0.4466337863461405 0.7917532207958623
Ni 9.528857993151028 4.917802564399286 7.161973383669126 -0.04048407615697543 -1.2444992906873278 -1.2502714172844145
Ni 6.81722638298566 4.117907599111194 10.937816852662438 -0.9016221153045633 -1.4394611583116306 1.0206801325117003
Ni 8.583458840299388 0.16189919652087761 8.696783517028969 -0.05778991442527466 0.2868286691286286 -1.09127671178334
Ni 5.162556159942286 2.4943134933706403 11.10112656324894 -0.8480087008544813 -0.23708630759817878 1.215857201470603
Ni 4.829577756760671 7.83128424498787 9.16302236026606 2.532625316925671 0.5096996044583738 0.6240707577128027
Ni 5.6027186961581394 4.655816613031414 2.8382156792100384 -0.3299769223813285 -0.26097879794506024 -3.327381843324231
Ni 2.929677854671009 5.830174591081695 5.199863370155779 1.1267522789821305 0.8431495729899672 0.47379954812765496
P 6.99151962004212 8.761616755206063 9.96619576724738 -0.08864006703691187 -1.079105880748761 0.6320288362176149
P 4.35998205807687 0.779334692425532 9.267773799948207 0.8781376590293781 0.7374489509263429 -1.8373301165492424
P 0.6832423715208247 4.505374225992588 1.1373420189211518 -0.9722418345046545 0.6224980139090441 0.45305588782240036
P 2.9704063316287153 7.563155882930525 8.477141926038785 -1.318525978686439 0.18970396165947329 0.1855806835197191
P 0.7623254423992571 0.4063064646526614 1.31805491529547 -2.2760479904824154 0.9232589768480487 -1.0197092839579989
P 0.2984884871111045 3.4474886767759765 8.786669949443764 2.1624561385961725 -0.9222629314833664 -2.2532183941824098
P 8.964783056491308 0.004795374424289197 6.410212327557524 0.3528376290295859 1.2588717573589157 -0.09376787518178045
P 6.890263193372342 2.7288359610782855 2.0803467518003775 -0.46449009780127104 1.2493375926162356 1.168644291230226
Ni 6.330295643799807 6.44047630241356 10.548293731746258 0.3016099412028612 0.680662538064918 -1.063226747624659
Ni 8.94133361021174 8.280445692912922 3.5677613721623587 0.5662134803847023 0.11784445651500997 -0.37464418338171607
Ni 2.3443005149818386 5.59301966164999 8.351145026648169 -1.6470345440523573 -0.15315238778768464 -0.7021325350132359
Ni 2.806782966028285 7.34069419730616 11.052856363500922 -1.2231730184057257 0.16150898728249605 0.34783683338088484
Ni 4.046616428236566 9.09422175956157 7.132037999780066 0.0849667319503827 -0.05334473416972749 1.066763300023008
Ni 1.7761648660881946 0.29144711874777696 11.825535221851082 0.8728794959542322 0.5948997925758013 -1.0338683490672003
Ni 7.338108410435364 0.7056705720109887 2.65147425878821 -0.713667532236029 1.0525625830425938 1.6470024052628407
Ni 1.9889088472631038 3.9218732154046085 5.781660748599641 0.08744219007406877 -0.46702237730482155 0.3741600446564459
Ni 4.281222910680086 3.1539691945433015 13.65156563417184 1.2381790048962547 0.6985802988856034 -2.5256036341921986
Ni 4.063540730029901 5.703723078620295 10.167146879996737 0.4982527960740129 -1.6306365623103076 -0.30321045292076165
Ni -0.10828005858886532 6.610270083615422 8.546412075767103 -0.20472640321023453 2.1039334597699315 -0.4411272547056145
Ni 9.282900186393833 3.5154285931862876 12.007386051147964 -0.585059923667244 -0.2997438345283999 0.44370427140417135
Ni 5.4002245127598885 5.7539172158198335 0.6256194646758717 0.11817124372680939 0.1698848700510171 1.0740606050153696
Ni 6.669407122700242 6.826057265223109 2.526077598010564 -0.14795361719556455 0.5837700012112269 -0.9238752702758088
Ni 2.3410892850773113 1.6080793845157764 3.403385607927321 0.20021026050743584 -1.1186324780884733 1.0824465150862197
Ni 6.56110279318768 8.264622917656604 4.446626455183985 -0.2632364836309854 0.1446338087937122 0.4739967517401256
Ni -0.42486998729260983 1.3716245778830232 4.447938018560689 0.8755326173063632 -1.2450315090417137 -2.571649520707668
Ni 2.525128231495185 1.6467635029005427 7.886217746787783 0.05406592860646818 0.11931744151611064 -0.10069134177449111
Ni 2.951344321555913 6.607824321304415 0.3142991269055732 0.16163522844771516 0.8197178243295883 1.104589626842162
Ni 5.100338580542076 7.299667001287569 12.462393991192798 -0.7965894658422411 1.1567305705117756 0.1841426655216119
Ni 8.18253118573681 5.591264687167283 11.947475142996034 0.7270902333998381 1.380441485244313 1.4368152360483513
Ni 8.052504379515426 2.3493040592516823 7.846418099410019 -1.2691726250642916 0.138093179461717 1.5647733839585953
Ni 4.305428489582523 -0.10683033764650186 11.149437836867829 -1.448013418757016 0.11461849337854452 0.2041173088713259
Ni 7.019160468144748 1.7001408650926502 10.031844881859518 0.11121538123426652 -0.8958649011058121 -0.9187348637254499
P 7.6441647582546075 6.59557683980808 0.278265206689107 -0.23736784339433958 -0.2034501076009722 0.8766883281773612
P 1.7910261393672844 7.4477476407512615 4.489431029614851 -2.1321567162816826 -0.0063719649646148315 -1.1779974503103519
P 2.4332067754781015 2.738721694999489 12.202639097810918 -0.33863614071822323 -0.015387023979031566 0.8017874651034127
P 5.453956603836799 5.178360265257297 12.266894501304611 -0.4380861538864455 -0.9207758054148788 -1.2416152842713133
P 4.166561466153039 9.240351390158851 2.9342771947115915 0.19231594536102364 0.2548055792548128 0.12546263518190004
P 7.077279995428426 5.934520893037515 8.449093139718633 0.4437397526277971 -0.11271279171539944 0.5911156429430207
P 9.397888354893725 4.0599374313579615 4.767275229127522 -0.39334381667374835 0.4149176861897822 0.3533981295187462
P 1.195949765169964 0.4600572256708767 9.683241604799424 3.1668053951583333 -1.806683595307979 -1.9076130212352052
