# total energy = -381165.5084943742 ev
CRYSTAL
PRIMVEC
9.29792779525220 0.00000000000000 0.00000000000000

0.00000000000000 9.29792779525220 0.00000000000000

0.00000000000000 0.00000000000000 13.60845717729515

PRIMCOORD
 96 1
Ni 4.355521260656791 3.1344894988234038 7.28851257850489 -0.3407038218805294 -0.19622685037965562 0.5558953862881458
Ni 2.8062633524173637 6.301633319795698 7.799060859758708 1.7409937093093373 0.545206539115732 -1.2809922434070389
Ni 1.6855004431049463 6.457857101329205 9.66585601669849 -0.7017286147065979 2.3700611489057826 3.0441023249994412
Ni 1.806261928318443 6.976551297057578 4.317854425674622 -2.156143051893951 0.46454126275418056 0.3123700079328427
Ni 6.85885812799133 9.509455574538325 4.831219979027277 0.7327831700195573 -3.4591195128815655 0.36840437311959134
Ni 4.009229240692865 8.300929525486902 13.46148582348986 1.592628972718283 -0.25247847378353294 -0.5579358137569423
Ni 3.339648273941652 3.629622745712003 13.513878716393272 2.5772396132009354 1.1514400115367978 -0.7088875943488824
Ni 7.06740134879927 8.674529559161334 9.88191754185996 -0.3408254350600582 -0.282772496781384 -0.2875776314795112
Ni 7.168507014814942 2.4940575354710446 8.111878480348933 -0.872425182025633 0.6518139892643419 0.5374310089353711
Ni 8.97306742236082 7.42305638197616 11.151246459436567 -0.5174327114365734 -1.904566006878765 -1.421798708034861
Ni 2.088017031985258 1.0969137247133554 8.434290632552324 0.7857851761378855 0.42560216248682187 0.2282846501461488
Ni 6.7048100615440545 5.823320024150649 10.660143864214126 0.9647051598079773 1.4182806675792734 1.7892702849275377
Ni 7.520768304374423 4.8185673589873526 7.494136250009085 0.1620815719565144 1.204152511439165 1.2774420641619355
Ni 8.792222728227582 6.551143210133255 0.10030976340293254 -1.5824777432168942 0.7201762798888243 0.033360577738316737
Ni 1.038625015843367 1.0336599224414569 4.408868120944166 -1.1976671608251372 -0.015233529120302796 0.2210541938359806
Ni 0.2949897739819435 9.175390329524793 12.217591387188389 0.7386288301670569 1.3567701097693021 0.32139458002895616
Ni 3.8504020393980576 8.869665168198571 4.985485616983175 0.03600187201590574 -0.5293875698056044 0.345271900867186
Ni 0.501824965467915 1.4865433857752262 1.9552630795998818 0.7038060660609169 -0.6838512202055448 1.666209317208595
Ni 3.025917596849428 5.4098132847065585 3.3627452561882523 1.0573828872493725 -1.5089827593515366 -2.765108578534199
Ni 9.003109026820692 0.7059414428888706 9.814650753984568 -0.3015184099303195 -0.29101493929583433 -1.366483480402324
Ni 4.57364134701523 1.7201445217856892 12.611814224543412 0.05684297713097307 -0.45138467076756456 0.1113177111400857
Ni 2.6871476004101185 4.48340495850299 9.23326992957515 1.107083339798293 -2.0425604559790886 -0.08602679778378089
Ni 0.732314085070851 5.255486280427715 8.095371869269512 -1.0721111945984825 -1.1578420584083995 -1.4752118335486788
Ni 8.294541849143995 8.993857588740354 0.6916142660667673 0.03732727569554862 -1.0614264611911268 0.021448913902395318
P 1.6236692237740444 0.12402784722115773 10.289137022580507 0.8797867645970268 -0.532163846999161 1.3532536119756113
Ni 5.109155493987155 5.407423717282794 7.08582798195265 0.08979860612138728 -0.27587191300680874 0.926908657785494
P 3.835060458661819 7.781128876359975 1.8089583273569334 0.27140847791881645 -0.006204071928182864 0.8125022804177555
Ni 2.3792560219253835 8.66584529467185 3.0689521255037353 -0.3029080911889945 1.2954819523827816 -1.4647582423155223
P 6.93237684246493 5.2014188307421225 12.881398340826143 0.9964006911390453 0.6056657728430537 -2.0424301010488115
P 5.5810625174338595 0.6608232486327501 8.888227551096648 0.4511761543011843 0.35233652102345125 0.7636227811082332
P 7.033054803805532 1.0193690075374575 12.379531534683494 -0.04314722481143537 -1.3307626299619468 0.5410673201363778
Ni 4.889110736590895 8.826959786185514 11.089749035710776 -0.19481120097905158 1.1916551503031028 0.04621609354474621
Ni 2.401487367101352 8.469593934308339 6.998788220990178 0.6809250476976854 0.42708980277594194 -0.3572344725457009
Ni 8.82168786116888 4.7073548455412 4.390483328465521 1.492507644514649 -0.13794508391962695 0.5675465973738291
Ni 1.4445446462688076 5.53942639710848 13.072746903903463 2.3172661165919384 0.1346576714176068 -2.033542825861511
Ni 7.8207194525871895 6.343418206964581 2.663311432909863 -1.1064755310109653 0.9903591129306556 -0.3401939721236464
Ni 3.442223012536916 1.0937431313611994 1.2866955869700327 -1.11004756463294 0.09734453678944525 -0.6340772341062112
Ni 1.6549567505482528 7.905767597432266 0.4364038162447333 -0.3318355728566221 0.1079678208312463 0.26454286114723474
Ni 6.941535301268079 5.628732992848827 5.173813283344612 0.5483358287733331 -0.522222676626049 0.7854892421640214
Ni 5.4979669374097595 4.409690987547292 9.52491337937105 -0.6541369809705637 -1.776472104721605 -2.612145681049501
Ni 8.404620015408439 4.25151464119281 2.322569346001367 -0.13600621502570123 -1.136704505098836 -3.527061171028861
Ni 1.0196665412244632 5.1971975715577265 1.5820107884221388 1.0129881631840811 1.1656263303395087 1.9544688052464791
Ni 6.505676343587674 3.6484882410537174 3.6475974995782434 -0.43293083493775114 -0.3524650761815156 0.6880459750131828
Ni 3.7784360788535194 5.667393776304149 0.9551091694863705 -0.1150820632785244 0.8681196126717435 1.3389662488186618
Ni 6.572602827308552 7.834777919298215 12.07983236031191 1.6343505208267852 0.22847414044913555 1.4721825598040517
Ni 0.20060836929260237 6.3890896279199785 5.966301697026851 0.15169122986112585 -3.1227608553436093 0.6920859494105113
Ni 7.672138567638647 0.4079800512079563 7.5585727486868315 -0.7780255867971246 -1.4357402578166176 0.35604739421613524
Ni 7.082575566836567 8.878330836832617 2.662331431328287 0.41939577656579385 -1.0298026636382587 -0.3897535282193288
Ni 8.459886897769774 7.874061663910705 4.229290734359018 1.589647521492456 0.2325714504469607 0.5387769814403043
Ni 5.40988766812831 1.6955422050413933 4.840146919430224 -2.5851048748816248 2.0461679708246887 0.3144528586038004
Ni 6.318936763280632 4.923624644283573 1.1922016773552926 0.7763458851018565 -1.9727971712420216 -0.00944931833835792
Ni 6.7095520046807104 6.887393468160734 8.225183027531845 -0.9376941784367722 -0.24367373100770942 2.7762879921897863
Ni 4.737907836025613 3.0380234987394776 1.9057692805592317 0.2952181787439045 -0.02273935057904471 0.48854482475762956
Ni 4.397175976837609 6.315933532627417 10.251441364022408 -0.09824288023399855 -0.05743150264459142 -1.3375961079440126
Ni 3.7722064672818347 2.5597659906607415 10.317129363771123 0.46402087147433635 -0.6125930960905063 -0.7045187758572253
Ni 4.2711890562460715 3.8231591111815852 4.888362253409522 0.6448694396257086 -0.325557196047078 -0.47314880191753345
P 4.464251227401989 7.321309158947882 6.558691267855485 -0.10541522961272169 1.7657943132927847 -0.4135485737563975
Ni 4.905521579014811 6.086711720572572 12.566511931318457 0.7458772841993541 1.7500499059743344 0.8634759432521452
P 8.526738998068899 2.586423149430921 3.476783409868189 1.5723154579719114 -1.641204053413509 2.374999980968297
Ni 3.2293841491228297 1.6549660484759716 3.7802659110286054 0.27512526464877135 0.6022330930124209 -1.3088935978029974
P 0.36786135268630593 7.433497954804523 2.2099044962455174 0.26595491100341295 0.2261030691137977 -0.050424475199138966
P 0.4701971345391938 8.349260153769913 6.146736352547685 -0.737109565309053 3.0342418872655936 -0.5795274238847891
P 2.8512653225769973 4.859217898974527 11.414692083839261 0.03262858466829865 0.15939939713866097 0.06698160822687174
Ni 2.133930199061347 3.1680736137441885 2.3150975312864333 0.633301018061819 0.49058216690263257 -1.1234345274628073
Ni 2.7961100153482894 1.6468210637941865 5.955768074714071 -0.6300146340010634 0.5951905843433426 1.029443223416311
Ni 9.111764610144139 3.692941633477934 6.4415634127945465 1.0629470116007114 -0.12052586000191502 -0.21245282532021478
Ni 6.07409443265798 2.2666767131045478 10.784498068698218 0.8524551666616093 -1.4038524079690855 -1.1885420585954176
Ni 4.973917135315279 0.38455671169842126 2.995112632523832 -0.31975241643984287 -1.1012034839787486 -0.06327562013019425
Ni 1.9085763249375773 3.5504787849684485 4.565718582805928 -1.1179786465545583 0.45724575753403185 1.0673212294090069
Ni 8.555237146527428 2.243199445614243 11.292406668272632 -0.056819837202521505 -0.1302705980935047 1.8153893506120928
Ni 3.4233296234120454 8.441012104500341 9.476017437082726 -1.115380546810079 -0.2003033344418744 -1.1351898682265225
Ni 0.2488097563803209 8.094915341018512 8.3805913808044 -0.24269156960009813 -0.4101156368154485 0.037291537361606744
Ni 7.5975784852605255 7.622878146583742 6.492649017060678 0.21570835614303496 0.79379621936782 -2.1204108885996638
Ni 4.934968116100671 4.058061957072699 11.760837196545229 -0.013181274576964396 -0.9455843798181264 -0.13613759839724296
Ni 7.26225802000494 1.8364244058386603 1.9978578162730838 -0.39994306715782085 0.27307146744353616 -0.3989233676440549
Ni 1.7196982212551803 2.477851247456945 11.285656372748686 -0.12841580427295302 -1.3129546552462485 0.8724166973852008
Ni 0.654213351817361 4.415725342636879 10.963095453701792 -0.18360659051248376 1.853407481727079 0.2971843013313398
Ni 2.9224967468317407 7.080381255894899 11.759353247281286 -1.6519661770260197 1.0986670907101401 0.4279248970827275
Ni 6.177068982145158 7.235080177282501 0.9019371102401105 -0.49043047181611665 0.938255450256881 0.17102746829589255
Ni 5.787290554239784 7.276558232836658 4.41009265802475 -1.177864010056281 1.176641964723722 -1.0685556160367404
Ni 3.3679976555566773 5.861395038159678 5.432128311231997 0.06535769947020356 0.4080633822721101 1.8667815890411397
Ni 7.507295607109691 2.065627622038068 5.6827279186982125 1.4018536323715018 1.7681694983931804 -0.07383565503422768
Ni 4.670042261605124 0.7219199316738564 6.9218739033136245 0.9997143288933105 -1.0673505399850458 1.3019701312102867
Ni 0.40820599085152637 2.9757924685166617 9.1140054107244 0.7966066922334217 -1.0079323459277285 -1.3300522341584837
Ni 6.394835747250279 2.8490152240690163 -0.1726746050466131 0.9988465815763765 0.9916858021618791 0.29560410132841347
Ni 8.969710870454286 4.124188819009747 13.540905002893894 -1.1656507558195408 -0.35702415630710777 -0.6755460427739591
Ni 2.8361189983228563 0.39218938056289304 12.181134212602455 -2.032893108092654 0.04539822562914117 -1.1918430979441925
Ni 5.761070398072396 0.4675844168501738 0.8217071515389849 0.4490992171674975 -0.2507884876756197 -1.5933517098169205
P 1.6586759216358256 2.7541670634081843 0.1210088100908203 -4.167765680643603 -2.1456082138008985 0.6665276413254327
Ni 7.844689510246598 3.814140121294221 10.02487411033132 -1.9479487447397743 1.7984257261745606 -1.0628061151474728
P 8.508719614149609 5.866592579754561 9.455237498423685 0.2517418527278245 1.0327252366016924 0.1881906103387404
Ni 0.33072914854797664 1.4265066664940784 6.785775486327747 -0.17193841014593614 -1.7634039586837371 -0.16100016596687755
P 6.23550645785865 3.8043308075507465 6.158602367902587 -0.7523325529063946 -1.6080095689394116 -0.6747523432280702
P 1.6849332695140913 3.0255084880297947 7.28833591787823 1.3090733179139713 1.1090954851323156 0.3677579977848441
P 5.401956535784061 5.3841788979854615 2.9006150037380043 -2.195898220304702 1.0858527125542912 2.6448943362354322
Ni 8.90713581690587 1.7853694847340014 13.606156929832592 -0.223552277667486 0.6912290007268547 -1.4310127704339612
