# total energy = -340870.85879435745 ev
CRYSTAL
PRIMVEC
9.25371250083940 0.00000000000000 0.00000000000000

0.00000000000000 9.25371250083940 0.00000000000000

0.00000000000000 0.00000000000000 13.54374362456991

PRIMCOORD
 96 1
Ni 6.098936714078588 7.159393638215231 8.978079391463405 0.12312678795987182 0.3576337648666486 -0.5098363871465542
Ni 0.39378432469236374 1.1674668533737678 10.119153731937034 2.0847370893471386 0.1641119721229819 -0.8201659676106003
Ni 2.6348557766631777 7.477193880327874 3.1352141807425227 -0.049384721080714955 1.3451086142709738 -0.2698935839361868
Ni 3.9168558273880265 0.5066305702880034 12.397225227237294 0.9545619007263884 1.4245389897841594 0.4346025662132193
Ni 5.936904211402864 1.2080999041589822 1.899713109040817 -0.41990871164647037 -0.5663759741044956 -0.9971920766920891
Ni 2.010785417985232 0.2928365023942938 8.23540882887093 0.8646920750474335 0.9145321384980121 1.7783518382428212
Ni 4.722271186347877 6.073590796041534 2.7548782761608743 -0.5978511618946414 -1.8090446393409876 -0.2781331982371597
Ni 7.280256374791337 3.0098161997597126 13.250169503401203 -1.4677314660112335 1.475680802765297 -0.5518525836773399
Ni 7.445490661928843 0.8414909564288 3.4387701834851634 1.5451311842476358 -0.34963634848346886 1.362650479809479
Ni 1.0739580904075663 6.259285041112566 6.293005568796765 -1.353307090921366 -0.28564107657843063 -0.691905457968589
Ni 0.41040399201421407 7.264774914084514 1.7055767022227235 0.562440129385199 -0.5614271147396526 -1.1045086370925816
Ni 3.0764336747318737 6.785284556651885 0.7250551958252841 0.07699142705438998 1.2904114798384099 -0.39761904701033457
Ni 3.3917816830804353 3.698967917165149 5.50748198983416 0.16663319588293882 1.476576575106689 0.17928430898804606
Ni 0.545075118110179 7.017858108322302 12.242961216051935 -1.0728568145152555 0.14515754250766613 1.857620491367162
Ni 2.4444791531595986 2.7198881391467427 1.1081921991253756 -0.31099626751376763 -0.1497168797435744 0.6263896356539664
Ni 7.86904232840346 8.025476335127225 13.46035462349117 0.14909672966107224 0.6907340633683071 0.4186990076090853
Ni 1.6824174364062454 0.8277427160390043 2.821459661654998 -0.7050659066099471 0.7700734218295834 1.8581653081270386
Ni 5.2054630287074195 8.167687386019317 0.5838694562579481 0.0401788862117308 0.39237708188510484 0.5237414272634207
Ni 8.626893606052448 3.480645082463358 6.839983250159379 -0.5687773844571367 -0.6193944352830558 -1.3067940349614913
Ni 7.778466992241841 0.2193333400868385 9.491888991767162 -2.032373488143758 -1.0604648686088058 -1.0047356933673017
Ni 9.402697085596975 1.385808195500193 4.793916203222021 -0.4196492873374967 0.8232937146063046 -0.11434672777439661
Ni 3.485512535142252 7.015970351009575 5.58427484687041 0.4245233276003463 -0.14805620421169985 0.29927949329747167
Ni 1.8095171750842047 3.5011420552461523 9.9832148472536 -2.6622371983892537 -0.09516295575709417 -0.6598664272551732
Ni 1.250611458544606 0.7749743469208976 12.320310221198456 1.4350715138843673 -0.8389478762037939 0.9585278273526718
P 1.9477306222552275 5.455516842945193 11.27687272475577 0.5888875249434503 -0.6867285417533399 0.42921944752443497
P 7.627918346551871 5.278798698821932 5.698895954488506 0.024307466397112978 0.2602792007748743 -1.4651287382810636
P 5.115183811339952 8.037210042345547 2.8733998235207068 -0.05735694065291412 2.608674434671449 0.5002122337932289
P 0.5631476182658436 5.7237171870371695 8.488920755401674 2.050432402527998 -0.20232062198221928 0.8441024238215399
P 3.4365789044084294 4.633888980005453 0.7525646318021197 0.7749585178360267 -0.4281863782742303 0.6454229981363335
P 8.400612578757789 8.181762282453912 11.140500766335887 -0.461474965124031 0.7586831777147707 0.2280884749749427
P 0.9390019499722289 2.9831655082859214 2.763735929590983 -0.6781374576502192 -0.7235608800903409 0.5268720024726022
P 6.033142819502667 2.056850397900695 8.788752138936607 0.47863013674707894 0.3513893266188335 -0.7715137538205358
Ni 1.2784836400442796 5.143833304674278 -0.013481733475057801 1.731533592337702 0.2175875754436188 0.11663938046331525
Ni 3.6994398564933304 0.590838427004098 2.068129747844238 1.7846065609032813 -0.8142241482048687 -0.9155844910219264
Ni 2.7866629272282974 7.798695607367432 12.108688924956844 0.31339844919735704 -0.4253486517151191 0.14831125764529943
Ni -0.030659399649640682 6.211896780335731 3.735770856422237 0.6198780597876937 0.07830243255632967 1.4503754912312892
Ni 1.860088712898187 4.057401210063007 7.34734578909168 0.02951060786460724 1.0668550884058658 1.5735027934117933
Ni 9.061262862225977 4.724945509207574 11.79066844449105 -0.0441088173937563 -0.9492679993173007 0.04801226621322054
Ni 6.239944782369433 6.894163735777104 4.5722860917380315 -0.49316998223446673 -0.8512554899265533 -0.15885278060657157
Ni 7.722509793859196 6.171633878043208 10.417089029818154 0.408570918036148 1.0986742897989916 -0.24677550986148467
Ni -0.028565284552238265 0.2722867834512909 1.4130594529033762 -0.5036626542356745 0.3058481476539248 -0.7230592578635741
Ni 6.316593281493534 6.574392452940878 12.729059649450338 -1.3065047858558465 -1.5200436451513886 -1.9509507647908915
Ni 5.727159568019201 4.411494511884055 4.836660025786808 -0.766675451891628 0.6808098622760598 0.6487985994767859
Ni 6.223602726417101 4.079989521829508 7.857497396916412 -1.111205846607099 -1.5205936041175876 0.43966403989652675
Ni 7.691287768500664 3.3251827155329092 4.150317735440901 0.9809977263204138 -0.5673902743016228 0.14731366961872047
Ni 8.295990107298524 7.734280515926787 5.413678033445036 0.030173181149270617 0.3329159504049944 0.5411673360493519
Ni 6.388031940583002 1.6270432218995903 10.981890286475098 1.6050810824387067 1.1458476050506847 0.9867415707827263
Ni 0.8627300769394408 3.9157361281976346 4.98638601645177 0.5864244081149385 0.5792546298393766 -1.2860652870545723
Ni 3.8677926446817623 7.86832979255503 9.698024687347083 -0.3008288400624625 -1.6319313698623312 0.18762882429799943
Ni 5.303358051312016 6.258822355496702 6.744391476550556 1.2136949037119613 0.4221304018881375 0.4284743418282943
Ni 9.231975347055316 4.665370109308869 1.8855327202858039 -1.089607551611033 0.22035022579042052 -0.2983387266507572
Ni 5.108511884759187 2.0596450190205164 4.246844133993771 5.9192839436333475 0.03912087726086166 -0.6545843529206274
Ni 3.8350437567908777 3.6940541959246684 3.1138010904403166 0.5301496447826095 0.41641843910502485 -1.4960776212540943
Ni 1.884712841374492 2.004918564376071 6.294874818684859 0.5741018819938435 -1.0948153210642178 -0.38600485981017396
Ni 3.690398979559339 2.4120263840628673 8.504969468673549 0.027240323773191796 0.9312908460135898 -0.4479501911647188
Ni 4.722761633100694 2.7106159194048196 0.4413650626853984 0.428637606879036 0.1485305727449571 -0.6603989027198754
P 7.538212859348075 8.043474805584351 7.493021429875364 0.21022213621748312 -1.3241330404605711 -0.09745637977696119
P 6.220234375133608 0.6982407136434768 13.304520257325565 -0.8488368531827317 -0.33545028679107386 -0.32014193856877765
P 2.2108876931342816 5.859515415293379 4.491782496062546 -1.3758116997817855 -1.9651620232942673 -0.4337589872660014
P 0.6509172288528629 2.0647623219319766 8.069470334226079 0.5905677408593507 1.2000266621962494 1.0301459059102904
P 4.1695006810746404 4.6223866155950635 7.351448885133166 -1.3930548031329493 -0.674678038346709 0.802435897320689
P 7.1152626841740805 1.878485092984957 5.71356401388264 -0.36650561343498167 -0.4775101642100227 -0.632767257045536
P 8.731192197580608 2.616154024069937 11.34008113211024 -0.571889447723557 0.9083136683921261 0.6568294402010623
P 3.4531245420317416 8.690864519301865 6.958328051613951 1.1681346985836594 0.19861797631965147 -0.8178946550779205
Ni 6.844091898428255 4.17970752576061 11.068665122988007 -1.8442512691491075 -0.7763127178710759 0.11161030267984004
Ni 0.3085705894473797 7.993523266495627 8.22978812400941 -1.0306058762658443 -0.9935339111142115 -0.30375089880526396
Ni 8.483192707477274 0.7720982931326843 7.077391866515578 -0.22169311297156014 -0.1004540289527044 -0.637593989010218
Ni 2.261264902989601 5.370715823269561 2.3902403691542746 -1.517577185888767 -1.5139179918696248 0.4289849629161257
Ni 4.590720412045302 1.3934425081619561 6.446280358135407 -0.9516712094421546 0.6420882773361458 -0.1750836406431372
Ni 0.4387286800462028 2.950620202066017 13.577602860036144 -0.6359453976632016 -0.7680759317835805 -0.7644429630166835
Ni 8.26613763136295 1.0337044418273607 12.789424391009707 -0.16363760358972465 -0.9663792050762905 -0.6612229412830677
Ni 3.8321010762739802 4.329626919013003 9.997733921879426 1.9988493882443836 0.7705200224486988 0.11567907343257497
Ni 8.0109572605014 2.3504984508652154 1.7507995943173131 1.0988154433625463 0.9225251840058177 0.7274244768108052
Ni 7.12113879149556 5.332488737686841 3.0088778733307393 -0.27069705367408864 0.008262240008792221 -1.046944722635184
Ni 2.6105000058440737 6.7589577451092 7.953658273832748 0.621995877461645 -0.32379701882286166 0.5894120299883526
Ni 5.9102997884906605 4.9682348597414085 0.7936446368922591 -0.0733833979881575 -0.6984933955987519 0.5513105951309408
Ni 8.350411189436498 3.2960242680211325 9.19035122368092 -0.15758728363058663 -0.13228402897910765 0.9465613990194152
Ni 5.815254909279789 9.15452177495961 7.592148121589392 -0.599690014875593 0.34006181742115626 0.45989682200363374
Ni 7.863471593588453 5.608906378316569 7.835705829780429 -0.0648355084181464 1.8243298476348322 0.16383506431251138
Ni 6.0313846141623815 9.129694064812325 5.003410996373118 0.3196930239568172 0.28141958229791536 0.8464048467024713
Ni 1.398828168730618 7.264145661646938 10.208095787874655 0.42217436775219547 0.003967212177864136 -2.384404047891016
Ni 5.951673136261258 8.477908837744101 11.28200575897817 0.7049502069676892 -0.6521747150378704 0.6225522641857473
Ni 1.2749302145144408 8.806091745076742 6.0757774482621105 0.47374452652000354 -0.5740751425209661 -1.0416773035886575
Ni 2.630488024449417 2.773004447847979 12.053769067724968 0.24065448456541133 0.6607375170062169 0.6672310951503606
Ni 4.834204090537799 0.6118017868876837 9.735825176791973 -1.4960935620936946 0.3269430206510111 -0.17699885538797905
Ni 3.6691894709281136 9.06152196617086 4.515741282623239 0.14565916473443302 1.3831257169446953 0.19690176495949313
Ni 4.092556063156386 5.1069665148022 12.302391332667257 -0.17580457796956175 0.043492781076312194 -0.049891485513804394
Ni 7.306194530416697 7.901032411884328 2.421960244235476 0.04209667205973395 -0.19104890572314195 0.1394736047490114
P 0.09265186920562064 8.767355705316572 3.6945844336404488 -0.4518376991445831 -1.192943272986907 -0.6102541635446844
P 2.6354757753884357 0.21896041548045178 10.49052278928323 -0.5154318789564607 0.21055020898086318 0.6487731455554892
P 8.107316166861326 5.804770453224301 0.11495701737521316 1.00233633989719 -0.5074748288929131 0.49229889248342307
P 2.1567627297904606 9.00237223703875 0.7177558675494068 -0.1340812300888465 -0.4890307632551126 -0.7149047470772397
P 3.229712165555442 1.969643413022567 4.272550021439967 -5.337719434713871 -1.6611193042801973 0.11833656566008006
P 6.05268665991678 3.351907436705239 2.4851547710214725 -0.011052658269735803 0.5389001372817299 0.12714516509064552
P 5.246022049794096 6.110818480693987 10.638407291197051 0.8093737620911028 0.22669185173773218 0.5396658118031609
P 4.747580089535661 2.7823692047130755 11.680801894261576 -0.2943838557680672 0.7938155026415297 -0.13344513916674436
