# total energy = -381171.4364037354 ev
CRYSTAL
PRIMVEC
9.17214051948726 0.00000000000000 0.00000000000000
0.00000000000000 9.17214051948726 0.00000000000000
0.00000000000000 0.00000000000000 13.42435478443754
PRIMCOORD
 96 1
Ni 6.075671866328814 7.344912697636821 3.1983924218468784 -0.4309392584290191 -0.10851752268712923 2.5607855814099705
Ni 3.616290745187 8.042316416443763 10.201408988486289 0.08477004255854433 2.4136814566988947 -1.3566292133160636
Ni 5.1499827374161855 8.09882597535176 5.540432512470629 2.20945513305353 -0.4485438588846597 0.1443972673028739
Ni 4.470134495926224 8.239398203857515 13.078731542029557 -0.025214037371782377 0.18409612855439264 -0.42512573707103557
Ni 6.504267657377813 0.9179661864356705 6.368796056320319 -0.13211202217761764 0.647085473440421 -0.9407141962100187
Ni 0.7450988504936121 4.299037383140998 12.753110457506152 0.14785411550322278 0.3050518770048746 0.47652157504450837
Ni 2.7982642039163252 2.536894882273364 8.238539691487155 -0.3763061444651713 -0.13884008493007058 -0.06250120385801494
Ni 4.879835677114734 5.825923646964124 12.888549038857095 0.0713879648246835 -1.1623656573103658 2.5002047345031198
Ni 4.095901982859321 1.1869300405856633 6.637149045899093 -0.7642843259516322 3.6699494578863763 -2.8903498417339124
Ni 8.524853567002245 2.6129961337357326 5.891680558134909 0.7235889051147989 -1.3810981449917052 -0.7285909863150807
Ni 1.6917004602227035 1.5120916008595484 5.381743471636504 -0.3696282182243634 -1.8421416790052725 -0.004273687674689414
Ni 5.858383852933188 2.5675940372263044 2.3850913674694674 0.945983415028758 -2.8089679989213105 -0.26987764309658685
Ni 8.860874941875558 0.008974022469661476 8.853818814028143 1.090213560626148 0.5014877580715428 -0.14872520525426644
Ni 0.22820652969559016 1.2818158362200134 3.4008995304899905 0.9548377800955944 0.32832755970336364 -0.3958190176871183
Ni 1.6538928962203072 1.3512122528241208 1.4829883983899697 1.3109617931859359 1.2739875299544319 -0.8710907794849255
Ni 6.789282757768513 1.2031739017812586 0.3567669227288722 -0.4226163403856205 -0.3356420910869058 -0.3829205644578954
Ni 2.3725668093313614 0.09221486825989632 3.491191918057286 -1.5222586505248366 1.0118483931526834 -0.8865099422534733
Ni 3.0160842014730713 8.602523254525849 5.843796480349633 -1.8849094089901022 -1.7462145913886442 -0.01321109937363531
Ni 7.172540657293048 0.3390527673776281 2.72135855571378 -0.23801833249414495 -0.39838523575239776 -0.29552465424072977
Ni 7.503388944806497 8.089186055466627 7.1465358039549605 -1.2177099384086254 -0.14824800850753178 1.8341332068784995
Ni 6.645004984416331 5.316154410640691 11.213001635636967 -1.3644548800080694 -0.5783205480608814 -0.004615644395140438
Ni 7.16151574416086 7.1737972405701775 9.84088423970895 0.31678639183298346 -1.5076069620499326 -0.6026946060298718
Ni 6.645793788517302 0.10667474808759594 9.533977073874066 -0.5725324806241947 0.8346960429059754 -0.27239989529780834
Ni 8.997402256328655 2.538307391942546 10.09183951279094 0.20717666452293998 -0.006762258424498031 0.40816802617077447
P 0.6118184738514914 1.4228374996205093 7.425158839485576 0.6690007854562736 0.781571395166854 -0.14159245086422712
Ni 1.113782218431585 5.883111944284584 7.022400968813759 -0.30092088555563656 -0.12191476992964165 -0.668091643378443
P 6.673172628533594 5.091803848899155 5.027702509126338 0.7000468561288008 0.07986154951333342 -0.4034680495919439
Ni 5.671574863113487 0.6423717917671592 11.645158051709192 0.12329365255503927 -0.80078216376735 0.3142754524856717
P 2.1367327274221872 3.754074642917228 1.438379692051868 -0.46733656611113067 -0.8335148781136806 -0.44515514491808494
P 5.436878126652225 2.1873537719950225 7.896151933747744 0.6359564534067951 1.205006631909344 1.5639197777090486
P 3.294229368472749 2.829476998748968 4.928415920379822 -0.39770723584876666 0.6803290659848993 0.00817507961162463
Ni 0.9708894383264582 1.9029623771725326 12.588729186148036 -0.20288472201580546 -0.653605533947126 0.16892559146154135
Ni 7.715494698701553 2.0647864557009847 8.089892310301217 -5.9906703657961345e-05 0.74992805722996 0.3755862355800112
Ni 4.952607441499746 6.892313414352433 8.75215572362393 -0.5606177314644797 -1.4228708580531173 1.2592746492242892
Ni 6.2492729735275905 4.867178122936349 2.418947573254437 -0.2057795270650972 1.5686722047923694 0.881227096587979
Ni 7.699186632520994 4.5722112498764105 9.350331555384892 1.287463195843363 -0.04008581227729225 -0.5801856262940782
Ni 7.799685778269237 5.511328392786978 13.131382381341288 -0.21457989896554658 -0.057027582337953395 1.5949671339331564
Ni 2.39325915877081 5.863474391026669 0.8474498514509972 1.7566753817106522 -1.188477266795753 -0.7694620134978296
Ni 0.6829603488325168 7.071527871665102 13.016240830165238 -2.1446137110981134 -1.5005893930815188 0.3518858066392778
Ni 8.995246803262047 4.915093386000036 5.193748524023133 0.060853383841946815 0.2605180562585578 -0.40811171901154236
Ni 4.371112064832126 1.3260989315629466 9.666166882985891 -0.34333586018673773 -0.15476575502139153 -0.0022471441629638715
Ni 2.1649462322429955 2.7215575911671643 10.606206743251782 -0.15194602618440928 0.31613538851254586 -1.342776109483055
Ni 1.6080046762533036 3.5774100407216536 6.263441179280744 0.3384538495040881 0.5587323415163087 0.3774222603474855
Ni 3.037638732139164 4.146284551773722 12.256248257588389 -0.2009268269584862 -0.8991155468326257 3.112906331147032
Ni 2.6842086342002167 0.1192680972810191 8.040477402231613 -1.1737062791341657 0.33617739476508557 0.9723842736197899
Ni 9.109724291450767 8.035125458127926 10.809760393149787 1.1022843757477534 0.7561773805737816 0.7537996243702244
Ni 6.578561997120514 2.325522899635027 10.200442244855564 0.0073577259166518446 1.285552866194528 -0.44603189109608343
Ni 9.003905304091319 5.823593923224044 11.05752009240877 0.6748765275107603 -0.990633449637965 -0.5936008712587196
Ni 7.200983465631581 7.915603292549267 12.296185592663411 -0.5428020434392975 0.017390427562305532 -0.5895920072096427
Ni 5.2888764641721995 3.454503355221384 4.453543010597759 -0.035745533030725536 0.5734346807234899 0.5957384864270128
Ni 0.6022776130860152 8.413668877328046 6.623067058268603 1.6423993592731907 -0.5218683786104238 0.15701495606688445
Ni 4.418513688016111 8.685375201550023 2.0398574944680608 0.26407312059966775 0.8719559556986983 0.3440498555346268
Ni 1.8877641400177605 0.24126215478074567 10.3061860206612 -1.3260508263085742 1.1929766973280034 0.747320444403784
Ni 1.1414362226691457 3.739866996959025 3.581564103248749 1.501593923086633 -1.759078848945822 0.717036448708262
Ni 5.511493491319739 4.547226338585162 8.659447394193892 -0.11299304195997961 -2.315304107769561 1.4613857262988639
Ni 8.490192047263028 0.3007123020000403 5.115511998203714 -1.242714687983079 -0.5158057173561117 -0.01825508955544598
P 6.538186233719604 3.691529815422725 0.6460846743261524 2.9070887517551482 -0.946869160067821 -2.3440778374681437
Ni 4.1798729310499905 4.103102113315867 6.793139642936637 -0.564117517087622 -0.8511459609318824 -0.9224994729742048
P 8.576602784882285 6.46088343182436 8.222927790786407 -0.38877985145214977 -0.10676891542713869 0.6032317094802644
Ni 3.44523032096461 2.284908660575684 2.6791657912384217 -0.276550170020756 -0.0699391481932989 0.6838239665120351
P 1.8331990749400662 4.911727210359842 10.650749410176779 -1.039978832840312 0.31911015487015365 0.2670409449787401
P 8.622830374055521 6.748631830146334 1.3333430882948951 -0.939067404635215 0.8815466847109269 0.41523238921672356
P 6.452234103135796 1.5879910652263194 4.274314795074026 1.702177507773088 -0.3141276140538977 0.7452105971496327
Ni 5.980520078613903 5.887945662438215 7.051142788939404 1.0575492376239077 1.8932523816381588 -1.5810448674251094
Ni 2.9957679098026913 4.957532881060464 8.848233897550449 0.01414646670371112 0.2262133694394169 -1.0840951064332363
Ni 5.041751477050276 8.836000096272816 7.757921352764989 1.0800049955242628 -0.9344612733217712 1.319787876117998
Ni 7.649611211988982 7.1285418983120925 5.153985459621582 -0.5022686021016253 0.4265051339170655 0.569414246710187
Ni 4.531404395862179 0.6278898988017579 4.166262391451942 0.40534084113462454 0.8083633185487176 0.1308382976715166
Ni 2.2925582259269697 8.179751772827048 1.149812221564582 0.6690030994491188 0.4590445013056675 -0.14707507124535316
Ni 3.487789053854256 4.662932893628886 3.0381065113153216 0.12368548867681924 1.254987077592529 0.15520129989691336
Ni 0.8793936658981456 3.95966817690891 8.48313225055933 -1.1826164371396022 -0.0741074206383756 0.6994336480248341
Ni 4.620878628478234 5.910078037968972 5.197574223912847 -0.4818033922687379 -0.7761743925209987 -0.6133955373871436
Ni 2.652454683065744 6.823971793929858 11.856538289274168 -0.17590227988969062 -1.0003267656663288 0.10485190091008395
Ni 7.975524887801003 3.1543817390830022 3.5489562258142704 -1.059205542280408 0.8220899241061906 0.6808651409940274
Ni 6.448904616058438 7.4326258792367526 1.0079769892832 0.46983079328789407 -0.002047883667964215 -0.6398023095154465
Ni 3.382740526314361 1.3531384023730055 11.97759862284972 -1.1844655745331987 -1.0654152706355458 -0.9150746412650435
Ni 7.687923243730372 4.378037031067403 6.973026418163275 0.01109868101632282 0.33324916537469707 1.1746082221231449
Ni 1.704926687125046 7.370961577250312 8.803745346255633 -1.034694187402605 -0.5726497229283491 1.1777141147419783
Ni 8.175826096603606 0.9721551937442968 11.578600412654511 -0.5952507481573167 -1.2567616529944485 0.1751530604284919
Ni 7.775792351722356 3.179935323098207 12.315933211609835 -0.0868858033499665 0.22923055899918587 0.12874079171253958
Ni 4.621346407654392 3.8930234025174952 1.1111039533445644 -4.4159948922324785 0.5011388593725563 -2.0161187168477923
Ni 0.08082490392749074 8.910422845985442 1.4938894876225868 -1.5075159449980229 -0.971180740229992 -0.5211345857681928
Ni 0.017312415588190962 4.665592814434488 1.926153217741106 -1.0913942111978105 -2.421222502270946 -3.8163845815548854
Ni 5.223231453118062 2.874558070333582 12.010287215122435 0.049693767680701516 1.4359364329878237 1.2622620139873875
Ni 4.235272660932202 1.3850207634774039 0.5161181921221845 0.9729743417953048 0.19653204032490024 1.3366558555179302
Ni 8.627728297194112 2.1869135092409917 1.4541126650099736 -0.46412243004920717 0.7724131257063536 -1.0452367388051418
Ni 2.186730066426812 5.393090326907577 4.888089686538742 0.08773760982730051 0.6733359224965177 1.1469670633671085
Ni 3.1327538312912377 7.282349525860901 3.9521571108823306 1.0584077289694611 -0.9654816329626856 -1.533760480516849
P 4.490010524842574 6.53330665486243 1.9790049269343637 -0.5692486676666003 -0.8692732666602127 -0.7167528560295721
Ni 4.347741450305657 4.753553643833563 10.682846399373767 1.2320626075858718 0.7765996529838753 -0.9524481968174952
P 4.931786682090371 6.95017127794465 11.226586493241031 2.343256370008113 -0.17172372303196878 -0.7841697520216495
Ni 1.1591017656746323 6.293446003182015 2.7602080749007154 1.5181405145914046 2.164113471693937 1.4563445643305306
P 0.64483542876159 7.208706408108538 4.666869576421178 0.39411849005624383 -0.17869578347442774 0.7870054216982317
P 3.1493187174116475 6.597374057714622 7.361312485224469 1.013849482743112 0.6883879317336339 -0.9559587810739149
P 1.4793470585285067 8.883475096582472 12.628237265037878 1.061150838932237 2.30469342213325 -0.9744025896013991
Ni 8.062009002545933 5.987958684728882 3.3158692000474344 -0.49309413469120883 0.3640921188974826 -0.1783134604343445
