# total energy = -340890.6729326379 ev
CRYSTAL
PRIMVEC
9.05458686707049 0.00000000000000 0.00000000000000

0.00000000000000 9.05458686707049 0.00000000000000

0.00000000000000 0.00000000000000 13.25230313162794

PRIMCOORD
 96 1
Ni 6.499409452534724 2.2916977689110154 11.5241762487793 -0.009678403630028493 -0.08344978108522402 -0.5827292186515384
Ni 4.771468356880462 0.26449534120069484 6.02144860950792 -0.7945413250639607 0.5060887471786638 -0.22877470240868986
Ni 2.980561665745369 1.4091109909561037 4.622628156265932 0.03655028832020802 0.6106413716807741 0.7431164336247653
Ni 3.4737831090919022 4.276073812740803 4.812030188642826 -0.6434841292424079 0.6166099305593832 -0.2069475792312694
Ni 3.6889925243044956 2.622996039409736 2.559681842343342 0.05597317293151005 0.5717030427443638 0.06935576488600313
Ni 5.240577436009932 4.441827075736501 2.313705847193401 -0.5516198988412435 1.1726847798481868 1.0075165985465486
Ni 5.095704049801523 4.743462520409048 11.149109011931028 0.11699444980988882 -0.1458777085031423 0.2938053575567779
Ni 5.623061284773412 7.9005342980760895 12.243789521836387 0.4210374259342749 1.326815986609373 -0.1746568375183637
Ni 2.022776545761654 6.791528526650708 0.10730681170590577 0.9962099152844778 -0.9392743784396985 -0.07231279063179806
Ni 2.8617383252945583 1.7426638535276924 0.20671349657013416 -0.5028550707327146 -0.43764212437049144 1.0162501217648048
Ni 8.169672831304764 0.19992346205027872 6.745077591738973 0.21601791696365377 -1.040188891968589 -0.16809898179518792
Ni 8.840101589744096 2.6368676661391914 1.353974896541174 1.0669785013576074 -0.11992782140659991 0.701500814966508
Ni 6.8912104709487325 0.9985217052681925 4.595461679975864 1.1075088573714862 -1.0671358528710784 0.641522634640663
Ni 0.9581110851026841 7.50328241850599 2.17563064463282 -0.3899445611842123 -1.4066693085925903 1.0005627929365348
Ni 7.560525515231589 3.9618343834681227 3.474713920598291 1.386084542462703 0.7980436817902643 1.583267071887409
Ni 7.9154019293357285 4.133581782818193 12.626661812366638 -0.6135230641039434 -0.6448308730782895 -0.8780309582481847
Ni 8.121774067989609 7.168126894099472 8.931150891141428 1.0532984327673538 0.8220865816720809 -0.3686964504387134
Ni 7.015584273008653 0.8095905113964769 0.13786513615057852 -1.1018148923105024 -0.02293424019867018 0.3485999367991545
Ni 1.9236831495951012 6.504018237133479 9.185170981060592 -0.7938155026415297 -0.4616518570215275 -1.1525142184375827
Ni 0.07144159403268617 5.2176331134691765 1.2641262333320455 0.5887517706965344 -0.24583937120046045 0.369653415035344
Ni 6.438327211074604 1.7521983332575333 7.019373617516666 -0.7104274280321764 1.5343415498312996 0.3340631766355602
Ni 3.4549133505382565 4.391936303360979 0.19975685765613904 0.4385319831746125 0.36091166428697197 -0.7878333169161658
Ni 6.402117919109139 5.914455991958354 4.524998886758748 -1.1199303709642905 -2.0448461666894717 0.977774848507742
Ni 5.205291711881547 2.9082064639209064 9.436739088918177 1.183404737368852 0.23624349998190927 -0.7204490739342366
P 0.13786151431592333 5.864954566808268 12.40021927697091 1.8212275545604248 0.5304306663581382 -0.06666510542771746
P 4.152080303319679 6.40541378864538 12.250415668338094 -1.3887384351457825 -1.0450328503244517 1.2502413353774275
P 2.666231690606309 8.565068520614068 1.3391054543642082 0.4114073590436786 0.48738654278347027 -1.693985973101231
P 6.590534812459815 8.058301415657048 5.695786819191371 0.16721786474181524 -0.811061948426803 0.1569491358259555
P 4.850370024844217 1.2155510923950292 12.509326140500455 0.5249195067319218 -1.502758632818696 0.13744860389918262
P 4.171846465950489 6.213528988612341 7.864803993743776 -0.832194102419728 -0.5705295912615529 0.30014904038661855
P 4.995180028946161 1.2507009977238448 3.7338498519679386 -1.17368673875014 -1.574735894487946 -1.0002478327992772
P 0.24056769055104826 5.654761392593141 3.490192736455996 0.3462113819623199 -0.3012587285110295 -1.1807343896255407
Ni 0.8035375202289567 8.986450873574507 4.417204938291717 -0.5879614135847551 -0.5661026658384508 1.4238270513187994
Ni 2.0886486635532906 6.507404652536102 4.476481695176216 -0.6340373820072113 -0.739984315753687 0.5949018494583302
Ni 5.973763534437421 5.541280258258765 8.915619558681223 0.3740456305657687 0.20560160672633623 1.7676923016464459
Ni 8.676458045435059 2.398514727479804 10.418191992915027 0.2363741120225026 0.07253056306955896 -0.6074691446003796
Ni 2.301069266081372 5.747480359766523 6.736052885236853 0.9447048054266504 -0.8765816273961679 0.6995909995383048
Ni 0.8745680360282766 -0.04360326741407631 8.82995592541619 -1.5900519560197262 -0.1806811893355727 0.016617039731390736
Ni 1.5461249959627077 1.1742712319122703 11.27694076062801 0.27333269152472284 0.6411922478844376 -0.4801470876122376
Ni 4.53010929545725 7.053604482301722 1.6872171867910783 -0.8559145859651194 -0.01941080042644399 -1.2150105371995914
Ni 5.862093317430651 7.786564216063261 7.855421631069455 -0.47501876524673664 0.9789752965737463 0.37945600294806264
Ni 5.308532108728316 2.925772361998676 4.893253452620571 1.1515366850156619 0.8163206257225811 0.40137774272181836
Ni 0.5669284949560532 7.425847593577594 6.703001833090731 0.8335382751524483 -0.0264723352589157 0.26755619405226183
Ni 5.351115829686949 4.3700060945236805 6.989727995405107 -1.421812849102248 0.4903068017540588 0.23760361355422951
Ni 0.7779791385258017 7.600021622146657 11.150315082871211 0.09132738406108788 -0.593333476529946 -0.2097698791714129
Ni 4.667222900916872 0.6178324755763697 10.240107288377002 -0.3855580020807424 -1.248099092223444 0.28251615779620376
Ni 8.380336844025068 7.100289931007383 4.685139211497534 0.09526811387639077 1.3545098529802155 0.42659769363087174
Ni 7.380049494362461 6.138348755756813 6.980093915222247 0.20448471951307368 -0.1791146161794012 -1.897207252520849
Ni 2.6232495678356007 5.455288848957435 2.1206865074546166 -0.6345456891021976 0.19579156261444988 1.392510500593705
Ni 2.3542740171664107 5.393011402061095 11.381766615595096 0.32273129656250865 -0.056585352594212227 -0.6595442680290641
Ni 1.1762451317993599 3.3787823860857373 3.6895204067054923 -0.6887193469311236 0.13873904057583203 -1.577009263903155
Ni 1.7154910390269773 0.9985579236147446 2.6083185544694962 -0.7851827666671961 2.332377775422396 -2.0529543976189033
Ni 1.2893550280815762 3.644453012632048 8.012236206136093 -0.6767729732025248 -1.3920132492423123 -0.5292482160142626
Ni 3.6099097646079796 2.7784723465712746 6.798815657976991 -0.39321397596410346 0.05708774615192749 0.1658567227282305
Ni 4.572267450843898 6.867532726890295 5.820636892508451 -1.021871324606324 -0.21383222216624462 -0.36031156880912785
Ni 0.925632282832086 8.88990181625324 -0.10601562765132332 -0.5271676793361502 0.7183099161040468 1.0388634882889463
P 0.3925733746542314 5.503395867765265 7.905979726480198 -1.0288467274828925 2.236916828808909 -0.047781124039020934
P 8.737893415774064 1.7894036297531808 8.094108683975785 -0.2708004120211724 0.2600624567783779 0.22705591994537025
P 1.969852486862394 3.3011664694245813 10.351718650570625 -0.9379250635006557 0.6688547467967125 0.9692578121756664
P 4.174454186902241 5.961340641570051 3.615453888006443 0.6527236455628049 0.9662390799540004 0.656748964672114
P 7.129291772008979 4.1558379567744606 10.531817095176947 -1.2764745580423436 0.14599520791761308 -1.467148339814254
P 6.369168278333364 7.986326506471383 10.087162643639456 -0.47126624018283997 0.5203223742795426 -0.30696220665371005
P 2.5131367397305713 8.45444863565731 5.778308510893009 0.12353045115619372 -0.3484266444460838 -0.14666575162207643
P 7.133221462609882 4.060149085183805 1.3644573914920164 -0.6304026134681014 1.0444098720284722 0.02185283420903333
Ni 5.432145325510642 3.112296846742004 0.3622477530861559 -0.03558123953871937 -0.33982784703347924 -0.5371741557295588
Ni 1.6368066811425344 1.1979670851439834 6.7639890013911526 -0.8200674943595232 0.036056636513241126 -0.12200732964344795
Ni 6.92419633007106 0.879427632676905 9.254891298173387 0.2801666837274207 0.17907990628672385 -0.3980967579777015
Ni 2.4775974871763204 1.7672923291831222 8.972140099393107 0.9808737991480396 -0.6003669863379595 0.4310968670528059
Ni 6.6216554267347085 2.1698683056963803 2.4235017647661 0.3024458068405952 -0.9122407713606742 -0.11329000437510812
Ni 4.129534382590996 6.779386325969115 10.024625330106604 0.9437972060107165 1.3752314017982832 0.3420783336305528
Ni 7.798570597945283 7.433317627553967 0.13699861220931947 1.158720604358611 -0.16781693177839485 -0.4907104649503807
Ni 7.707707821032696 4.110392986438209 8.135429290098415 0.9087219595741381 -1.9460427859663127 0.905182321851996
Ni 3.1988315312416153 8.647030638861477 12.097391343238133 0.9122346007130872 -0.40264401102875175 0.7679291217930709
Ni 0.13561235499503774 4.807369792900233 10.31549939855986 0.83053831198386 0.3407578150469164 -0.4934890561367824
Ni 8.549295430690627 2.4123591904493455 5.7051565054444 0.9084465944255645 0.05999952048208376 -0.06869344871165588
Ni 3.8583676219554035 2.6951067673949725 11.448531515629242 -1.0163277690802754 1.2250748634141289 -0.6408256085736382
Ni 1.2113497641949855 3.617334525651161 12.55080520188925 0.11021239389104891 -0.8333930078238356 0.2672240075238237
Ni 3.2097966356602643 8.47035754438032 8.005888035444173 0.7708228984010982 -0.2212915066577673 -0.5123666097675756
Ni 5.610457300173281 7.962132650974579 3.62780434418071 -0.40929596912763055 1.132537775315656 0.7455517825391353
Ni 2.944506301752751 8.318158997581747 3.409088993021873 2.398222184721031 -0.4928586216416351 0.6072449444047155
Ni 3.3608995774756365 4.327585356124531 9.030357469640956 0.7625840554310737 0.8079051479653764 -0.33454885802272705
Ni 7.570014722028239 6.522942323206953 11.071689579799916 -1.0542682528797906 -1.4491760716065494 1.1333906102342546
Ni 8.464490172238879 0.018898733230887133 1.850021370918771 -0.8119865171236016 1.1327210949710556 0.9020468615468077
Ni 4.9728061453636005 0.8948801902333595 1.4111048109337967 -1.3821515259568842 -1.8746846459383002 0.5079821075466349
Ni 5.987236759354804 5.721665733261512 0.09730330438821504 -0.015811513110959866 -0.4982785071056257 0.4136719867081392
Ni 7.984850608849385 0.027422721091924483 11.291081308580614 0.16205483248363703 0.12793757908495385 -0.18385521618818015
Ni 0.17378920863694527 4.836987345793215 5.535699011055085 -0.15359770285521934 0.014278621406201217 0.6928801631770325
Ni 7.310718524475099 6.401846281509998 2.4225609932144088 0.2802978099886463 -0.5076429790396612 -0.3842691080659898
P 8.743932825061627 1.5418150127230072 3.448964487117074 -0.6286249527423883 0.8543706385167673 -0.01786299632334988
P 1.9812431568530302 3.465643035704317 1.5733267851406643 -0.5293356335217464 -0.7038088942743943 -1.3011561199494237
P 4.478389496580848 1.3183568690831726 8.147502675921558 1.149479288266001 -0.4158157725240193 -0.9022849456995429
P 8.802959675354916 1.69107987345086 12.657883838011879 0.6663913728578846 -0.02015616323290077 -1.3983772437871271
P 6.397789826696163 8.168894136853893 1.6017002378295815 0.42464442655924284 0.8035296446055001 -0.7555009233320472
P 1.7219197955399757 3.179038204850891 5.688657237672588 0.7423070503495927 -0.3341284826558568 1.4933573941094538
P 7.049846828846942 3.945635727972695 5.983428400214851 0.7498023302853732 0.3069187550102843 -1.7432642505110685
P 2.4967841562622963 8.401868651050293 10.089203547467665 0.09215810749249934 0.8115244898855185 0.1263838614445888
