# total energy = -340891.7695356251 ev
CRYSTAL
PRIMVEC
9.09260608966895 0.00000000000000 0.00000000000000
0.00000000000000 9.09260608966895 0.00000000000000
0.00000000000000 0.00000000000000 13.30794810693830
PRIMCOORD
 96 1
Ni 6.664771016168388 2.241190966182619 11.490654323625593 -1.2091687337068335 -0.3299913205590317 -0.14766308253833924
Ni 4.65467772163515 0.39876441525370027 5.962159898690099 0.6653557325045186 -0.1849348224056041 -0.6379431448195206
Ni 2.8290279378592165 1.5055445929348714 4.774878334640192 0.5100047944036185 1.5368650875841017 -0.6976004514708374
Ni 3.288386388116011 4.373034253766895 4.585998541462454 0.6536566989000355 -0.32311773336765 1.208327725862777
Ni 3.874623061153551 2.8165437899533856 2.561460733190538 -0.8425805878603747 -0.36538821200108684 0.1143032761309709
Ni 5.386905275063092 4.630000389212408 2.659473569269281 -0.18601237174049898 0.15016502302458656 -0.8370719993373197
Ni 5.083003107942489 4.312513868871622 11.3946109459856 1.3263372472007415 1.3089923281643907 0.4424637141288509
Ni 5.855647294612543 7.911230896482177 12.445539791903066 -0.20585537460835515 0.46393628218033006 0.27890015831017123
Ni 2.1901632618508464 6.629564446109119 0.21985011814645733 0.38699190631379154 0.9894790243185476 -0.8355226525723286
Ni 2.8808194210869025 1.7268949910554454 0.2836802115906912 0.41430422097549935 -0.4179433603899835 0.19864908666790304
Ni 7.848946546041578 -0.05749072860814841 7.012795962697465 0.03589517123471237 -0.13228094365531412 -0.771270270351162
Ni 8.864399680765025 2.512059696054944 1.2458024849069487 -0.0168918906593322 0.6336195777435023 0.3469217777657832
Ni 7.060754003276135 1.0659534679128018 4.893558663938128 -0.10782615304705948 -0.613256440706118 -0.8056968274601479
Ni 0.76920627237785 7.409091735448301 2.1121041494278545 1.0309925701813016 0.2928849026250375 0.2639106268798745
Ni 7.883071095998304 3.94637281433994 3.8278716093783065 -0.17471648711170557 -0.8819444343699779 -1.6281621326278863
Ni 7.994573722195831 3.891771715887999 12.61900852733456 -0.014441372236310611 0.6810877985277948 -0.1390221190338896
Ni 7.96354975085228 7.325476131557536 8.857810269266587 0.4061638512565521 0.5257972813511849 0.5726124419325106
Ni 7.146579110401509 0.8982030723341671 0.36426797771551234 -1.2715832913883134 -0.5551873044775277 -0.1312339904480385
Ni 2.0897263370381673 6.698359102376792 9.250660853640497 -0.21240166036730515 -0.3297038712255999 -0.34025490726856883
Ni 0.5684842692710842 5.213291057937137 1.0240892918108158 -0.9735469264693234 -1.5770599146354325 -0.46928314831454027
Ni 6.428135947523632 2.2175683760447096 7.112818264680933 0.6501913660592544 0.4949291310174186 -1.0004776894218963
Ni 3.5678567231732714 4.6091692290869455 0.3979233492076046 0.14073601640120278 -0.691041824416713 -0.27305732637614905
Ni 6.333236419706329 5.693171519718666 4.521082790873313 0.0989080246218232 1.0686294066974693 0.7294682467137115
Ni 5.205871491519688 2.7924847547320977 9.439141481419062 0.24289288697762684 0.5433355473452642 -0.21711706356510352
P 0.4592184241258765 5.970068647305169 12.118736078292722 0.46106667394201883 -1.2942084849869968 1.0073525621648585
P 4.342501283142147 6.284336385156031 12.550033837469991 -0.18312965087606525 -0.21529877940944214 -0.14907616083578198
P 2.5905470702160023 8.635266011990852 1.425041388044955 -0.02590977788722635 -0.6467679422000023 -0.8977356357659636
P 6.617334891168592 7.811848713954332 5.6019672269406415 0.08166749237382064 0.1618062068079407 0.6659056914707177
P 4.9832844989962055 1.0332019014475409 12.568758240807558 0.38647948545374733 0.3628929563830589 0.7794998573498059
P 3.863284581591591 6.267624175504963 7.994457336840263 0.2536421550743309 -0.4680101951393875 0.4790307146196073
P 4.972473390576662 1.2747378846744108 3.8767252716384952 -1.3004524090141798 -1.283035499089313 -0.28153091106479905
P 0.4002947008272992 5.555718596271873 3.2972835029928174 1.2319343095381237 -0.9564984556274688 0.7579187887449205
Ni 0.9215447009496504 0.0546802041233033 4.377329600795822 -1.5755465633146994 0.28235006453198475 -0.42197742125004095
Ni 1.7621288389324263 6.74830478660602 4.550440087554708 0.8506263409829866 -0.31431581880530385 0.2966099168851085
Ni 5.887189544492606 5.714839199587272 8.801264262411836 -0.5095967603319224 0.41181307912252946 1.262179224465594
Ni 8.687921292779393 2.827073027589913 10.31552229958426 0.31991850970406194 -1.8513791384431406 -0.629252301913742
Ni 1.931905976367004 5.4760946463728475 6.811620238556102 1.607671211763386 -0.3076602611619992 0.15739625066570312
Ni 0.740390895008317 8.882430318272135 8.733300670323764 0.46908645892270184 0.18946716305831884 1.0939537443948708
Ni 1.6580548717582524 1.0249458152869477 11.532188438133273 -1.2804258293806077 1.9000503783965987 -0.7413963656098651
Ni 4.33002622784222 6.832656891574989 1.5599447447963395 0.8211203611040697 0.9902349286479656 0.08445739641413197
Ni 5.64829041697782 8.021178687070165 7.750109919867958 0.9408484077950378 -0.5991367134752843 0.4762150995476831
Ni 5.521721342797801 3.0968142743301756 4.862564698194061 -0.49566960872786897 0.6465738239113251 -0.17689549704089533
Ni 0.6615980092888936 7.603100667616337 6.6922606915971565 -0.03892444497933941 -0.2172638735556129 -0.5663158102905215
Ni 5.1762295962735045 5.0165634366038825 6.5739931666072495 -0.6404057474274003 -1.3757391946726372 0.3647539208511976
Ni 0.612834363827152 7.823005341398217 11.095208709526755 0.4581024491073723 -0.8734713639019601 -0.005040647747700996
Ni 4.582146004341039 0.4981993348957875 10.522141766880187 0.6239370603484158 -0.48568472960101516 -1.3795598539703078
Ni 8.39866731376971 7.228394378323335 4.2932639129128205 -0.5125324459214785 1.4469065588460823 1.1005887332128852
Ni 7.453381818805403 6.013913192972988 6.8007609393252695 -1.8104001249276174 2.7545076630899015 0.21328303453099395
Ni 2.604967943179329 5.417683746047241 2.465523739039618 -0.7276347930493985 -0.34452216718535505 0.6150546702571213
Ni 2.8526868984207403 5.159690146134607 11.253120905517548 -1.1269489683739689 0.30734195859063196 -0.057435873519965604
Ni 1.3125631252339571 3.37794855626782 3.6943130490400846 -0.7564139220646198 0.09268235542708556 -0.16151207260628958
Ni 1.674912563103781 1.3281842221765774 2.262257624800987 -0.6199690768396032 -0.4952808579298825 1.56284711347016
Ni 1.0356841828592611 3.393005911644409 8.014724755399692 -0.685019015261401 -0.30187245083562847 0.7159997799136314
Ni 3.885525095632132 2.662533231155888 6.788277700680029 1.1665272448872233 0.1346173050979746 0.7065306640809316
Ni 4.1246788161122225 7.022565058480439 5.920945843910229 -0.4730135618912498 0.6366804760570132 -0.8655379679874964
Ni 0.7123647558312284 0.040112030944335846 0.21784428928409294 0.6897308189147735 0.24802609443913412 0.6023259098365433
P 0.16539904769192817 5.835425339082632 7.978035181317524 1.1589558602978687 -0.5728811222128649 0.5852869520763856
P 8.737239587201262 1.5703930582403238 8.127230296028403 0.22187926084043724 1.5102364292529797 -0.26418650624908047
P 1.8533913243882347 3.1539249320115474 10.290277588553124 -0.21282049307227865 1.0396386758920741 0.3146719165931419
P 4.229189228369776 6.173861223425627 3.8842175789031748 -0.13063055253608472 0.6169786267527116 -1.1992789853969474
P 6.930920683576675 4.216923303005635 10.154216743070194 -0.7673061434970915 -0.2649624651831566 2.051678102009641
P 6.469325452267562 7.850274066503525 10.236526648753182 -1.2207091302462652 0.3183005144846648 -0.036793514679265664
P 2.490628423939836 8.654024057970261 5.777739119447552 0.2797915597761891 -1.1026271037991526 -0.0427787857284231
P 7.022283187697424 3.885443262178998 1.3342680847867676 0.4702372846976934 0.4538310754255281 0.207170750985669
Ni 5.228784858397105 2.9610252977637668 0.32891228891942137 0.6776006113101428 -0.5059766470808318 -0.0509392100520284
Ni 1.39987032712164 1.0840295684494308 6.774211439346948 0.03788777618470894 0.7805925761933524 0.7894029753961308
Ni 6.934412244243709 1.0050057305400524 9.080997373779715 -0.6517016320561937 -0.9403143896684386 1.1462746652857743
Ni 2.8973679638317043 1.8398797120152817 9.03368763600198 -0.002637951843479328 -2.2746043160573537 -0.35582422246173556
Ni 6.362741925863956 2.1986739409767444 2.5581601172474815 1.4115214944785692 -0.4177250737315903 -0.3857842591589356
Ni 4.350420942884302 7.030439255193076 10.405950083818105 0.21615032877646 0.2980273660579254 -0.38368135388331986
Ni 8.26170539104172 7.474603960984726 -0.10089519215022742 -0.2249113627985417 -0.3200203253892489 0.3446332388419226
Ni 7.643808264247368 4.213495390579926 8.216966132952972 1.36092501247794 -1.6378341085000117 -0.6465388569083317
Ni 3.23655853446471 8.490293503461668 12.29457434682273 0.7560907343972462 -0.34278615833085485 0.9738695999160648
Ni 0.3802191362524382 4.994477496863706 10.104391990499485 0.3229611531851277 0.9272632129114353 0.02507056981538263
Ni 8.858935024616878 2.6372557867434994 5.777885510402603 0.24127334909633286 -0.4433273476807269 0.26933488321923943
Ni 3.6160929974925966 2.534563895666693 11.558005983336344 0.09383009587828356 0.5909883733365371 -0.8410093867185129
Ni 1.3558621145475527 3.5319500224594145 12.39902838492368 -0.32384407001071325 0.05173753758360767 0.5325117172568828
Ni 3.328775743540411 8.516507486282142 7.91033709332184 -1.0830895479868572 0.16326273674880915 0.7273141764851861
Ni 5.697308655404866 8.099993395043757 3.662892640079131 0.14708664120957896 0.11792724603680337 -0.5908798727831308
Ni 3.1959691417104277 8.512497647078595 3.5618856088762874 1.0467140946816167 -0.43330750155087955 -0.3967674976433167
Ni 3.2348127541311924 4.196273994998248 8.897734083268716 0.6282529141149502 1.437131995957822 -0.42363706834065107
Ni 7.447098828125921 6.151329745996167 11.345544516747262 -0.35949318667289054 -0.894935447313007 -0.8934465214723065
Ni 8.2249167075552 9.021547188599312 2.503490824251262 0.15456675163670802 0.4369661813493894 0.4650107461914314
Ni 4.662742863071764 0.4044854828883315 1.4479447530558782 0.7006060710663805 -0.3642114180841663 0.2215337045755604
Ni 6.454622708521218 5.6360335842195814 0.31430047123211596 -1.3198449546081785 0.8966791694769912 -0.7222470463749239
Ni 7.9668049037658175 0.18933896977587739 11.06626421715339 -0.11544793125837537 0.04860979058790338 0.2802870113553689
Ni -0.06062949616611843 5.216009747102355 5.509557254619781 1.8853105010832627 -0.8118908720860017 -0.9307408870473907
Ni 7.7131757546869775 6.125379448746901 2.3595257764562136 -1.9071854467794829 -0.30728436587981917 -1.0825442170063484
P 8.592076133948101 1.8077100723278599 3.3583139830792907 0.7650870243585856 0.6497504218670939 1.6730631069056348
P 1.961602427248609 3.360017937425651 1.4281155981010085 0.12135966875712002 0.5403844351367403 -0.0009387097641854801
P 4.898104966889997 1.0366389064791535 8.098432194610085 -0.37132463209017985 0.4306505235440067 0.44433573434058315
P 8.760862177339172 1.6724939299333867 12.452472903904665 0.16794008761982043 1.124729849235463 -0.6053438707272607
P 6.7645169029323835 8.019141943347728 1.4101367884475493 -1.9511158296138462 -1.1300425196976278 -0.3608011068510367
P 2.0499280009975105 3.2533525775689123 6.093749000589572 -1.5670871196934366 0.3590671548790655 -1.309174619378526
P 7.15755388572732 4.0257330786677565 5.939363826428839 -0.6472834483838401 -0.08817752557819653 0.2547654700454967
P 2.4203062098803336 8.676155460739958 10.23182940854331 1.0426327255233916 -0.7635209654230464 -1.6156951105091273
