# total energy = -381169.08166377543 ev
CRYSTAL
PRIMVEC
9.25253758396715 0.00000000000000 0.00000000000000

0.00000000000000 9.25253758396715 0.00000000000000

0.00000000000000 0.00000000000000 13.54202401496415

PRIMCOORD
 96 1
Ni 6.831768388666534 5.315212717460798 8.188252384601778 -1.130816164638859 0.8865685634055505 -0.7359533402174229
Ni 3.553233487903484 4.146441427454652 10.13258895135779 0.12810418656980518 0.5602032696348803 -0.07441955256215571
Ni 3.428361241211197 2.1690261137254945 4.209213417913639 -0.49932648875416585 0.04556920398936668 0.12425164559293442
Ni 1.6707677144496853 7.840054414973976 2.3775866372484766 0.32589709588500004 -0.32641645872357977 0.1705916663100546
Ni 8.744277151525331 2.515626170119467 10.103894056672935 0.7744026453325566 -0.4978938700726973 3.1516579979939334
Ni 0.10517359426135309 1.5994306499863236 8.300312642557046 0.20992285980950942 -2.171280164645706 -1.1536850988172325
Ni 7.231441000412238 8.168436224944037 13.573983316953303 -0.14043673999322911 0.21305574901153632 -1.075588868734438
Ni 1.0857575231624002 3.2222609674211347 2.499789526859352 0.44291134318923076 1.2390140992030403 -1.578886683431526
Ni 4.932537017183214 6.147432206845632 11.785203187146369 1.3503207545995326 1.0669594751942142 -2.844157659448566
Ni 8.007044212566031 1.6975815682518671 2.269764966742063 -0.16642570785782307 0.6770642791906984 2.431647297148696
Ni 8.580701540286968 6.628536401515076 7.508727522303696 2.333149363481098 0.08912369154154974 0.15040259295668937
Ni 4.116925832689656 7.903406539536964 6.870816872862997 1.0465073779874494 0.2825835206990295 -0.6832212999310298
Ni 3.4188033699283635 6.956464837145487 0.9160937422201609 -0.34361276799720825 0.04387664677829218 1.444332627471319
Ni 3.2263505890155324 3.234150478165029 0.48281498886130914 -1.1087918378489678 1.156598930029918 -0.812271138243556
Ni 5.06738349934781 5.355831357278458 4.387616220566078 -0.20178249009056218 -0.9093935317198661 -1.3122889966377915
Ni 0.3601374440744324 6.427108659184677 3.9982148507478428 0.35560182203828433 -0.01592618431195322 -1.0086620250049017
Ni 8.20363287776098 4.663621266007708 10.214830131316619 0.914316165832464 1.436088642294972 0.4746629245692148
Ni 3.986539073621213 1.4540455275592417 12.936925751474151 0.9975947114471466 -1.0417017290686899 -0.18849040096734634
Ni 5.772584153330175 2.9052320210174227 0.5490085677040245 -0.10743251715306659 -0.6293623451290452 1.4198760370908512
Ni 5.0942621209127985 1.9891937940225248 6.005955356277087 -0.27911278854160965 -0.8002949397182862 0.2802600147721754
Ni 5.8412934971310735 7.770530847869216 1.977920502279054 -0.1671795553047121 0.32252509408897356 0.06171881716603564
Ni 6.202919674496317 0.6317900958554188 1.2513159531964169 -0.8754215456497956 0.8317153630110967 -0.2583765844355227
Ni 7.225584144146958 1.2892855915152621 6.7173589114288745 -0.12344303364870997 -1.953550664307584 -0.43929997168888857
Ni 7.218644740989043 3.0343789400549843 8.352991039809407 -1.2460962028608022 -1.2382219423190481 0.1385096981738453
P 3.322752777685282 0.5972300176214956 6.139981138361541 -0.6171953707492082 0.11183501709613643 0.11288839806131526
Ni 4.958832728882937 5.670380623620409 6.777335710295852 -0.5724368355865947 0.41828685977233115 0.14460784065178323
P 0.4278040268941344 5.31769239752256 1.9970149640083716 -0.9128542365749569 -0.10245768964629451 0.5475961223938312
Ni 2.5079743215706736 4.788539775387715 7.6742924291139945 1.8837596116563753 1.8290254533382888 -1.2380103405288745
P 6.35892671002378 0.8557866277628657 12.377383169776413 -0.19261265066583605 -0.5351848932136719 2.1458596676900723
P 9.171513072614271 3.7266260414759094 12.13385638162133 0.9659086931977753 0.006834763533646293 0.04144206919487056
P 4.097828595199075 3.832215999926737 5.563944057984316 -0.03271291685198882 0.47085589211829876 1.682005403700587
Ni 0.7994386741205995 7.349743945448364 11.24444325666272 -1.1889233531942363 -1.399472790844151 0.669621449759408
Ni 0.8682562726107611 0.8245278549246011 2.0747325783619974 1.0587314308574671 0.07987337658787534 0.49019470165622664
Ni 4.575657391577984 3.537097062426947 7.957266485833679 0.646393589579719 -0.5789993192954609 -0.0728987450422551
Ni 6.8411782193486665 9.229332179726015 3.6001068431008107 -0.5083397479963697 0.3496093519002753 -0.03270520354250497
Ni 5.4323405902288515 7.488948372796131 8.762434331201453 -0.9916942868023114 -1.3063348359368856 1.6808442935129506
Ni 1.294901881804401 4.863142985604068 13.448638265592525 0.39746169549686383 -0.20534835306494958 0.1503640264092701
Ni 0.8210785089282403 1.9348258834146501 4.251992525247796 -0.5293885982468689 0.6356836593613826 0.7996279955582486
Ni 8.83734842667928 2.6736410062939537 6.409006994733817 1.1974735567570924 3.161121200289362 -1.6552052527886074
Ni 3.7919119463855697 3.7448072777496453 2.4745338003795605 1.8144791800929978 -0.012392717237398012 1.2461244849955766
Ni 6.419965700200796 3.9944037305335165 5.745392795996202 0.5271226850308276 -1.482268226174828 0.8393224859343932
Ni 2.307259024631153 0.1086738292142052 4.034480171651104 0.04856608183416152 -0.9624297335102393 0.7773792114623773
Ni 8.287146281632095 3.770621857497088 4.043052647685514 0.7486332496779365 -0.2671535592972044 -0.16018332649253705
Ni 6.733580460250815 1.2690502919067832 10.370847344635381 0.3050482774604488 0.6655809611414473 -0.017730841620859784
Ni 6.862320267636446 7.91511099952998 7.055773247857771 -1.2370667456686824 -0.12954811810518335 -2.3424223041425916
Ni 2.201400742591552 2.8513637474369173 11.788995802285609 -0.8461747329695364 0.3112603198084317 -0.674246093015613
Ni 2.5795889621603516 6.692360405492803 5.022046065382768 -0.31834807989314856 1.1167285761975412 1.1010484464581232
Ni 2.5581785902837995 4.5087430400606 4.2922530918625075 -1.3095816250089576 -1.087158061629276 2.0821271625281175
Ni 6.280317151050924 3.4426656642540454 2.8616192600505608 -0.7958800984800422 -0.059303265746007555 0.4380061925781295
Ni 8.634523551179754 9.218145861835456 11.499575502659097 -0.302355304009318 0.23061329827932542 -0.1155597742458913
Ni 1.0226089544253774 0.7411726694454858 6.252108939840878 2.1799635513523166 1.3333177922836326 -0.7091200220746626
Ni 8.645552575932067 8.344077145139627 2.1448399805857763 -1.7402007810943965 -0.7636047833861043 -0.43791183309211035
Ni 7.451614383806551 9.0714376265396 8.918004646956845 1.2100454798848321 0.6772337148890272 -0.7047632877678636
Ni 5.427371977567786 0.45097978293406027 7.909990645253194 -1.7575840095678505 1.007592960310439 0.8671891304376743
Ni 7.462097508843773 6.141029450865263 2.637620877635605 0.5061183148650187 -0.7274175348322698 0.49275089241917724
Ni 2.571678042560329 5.589587465787196 2.42070438745674 -1.893622620493384 0.1188081059798599 -0.9820315669015668
P 2.6440143810784305 9.118505285025348 0.7441806694010031 -0.025780965618845922 0.8338005276748995 0.0256629519837429
Ni 1.9497132163227628 8.018082489855887 7.194010785032201 -2.1167815193771933 -1.0846409516343771 -0.45058737167724977
P 8.803437876580938 4.413377135595765 8.034564034982813 1.9292293139534002 0.08674722088957318 -0.6744270986781675
Ni 2.60265553825726 1.3085863848318084 8.277670757933402 0.512281249142621 0.022687928515818988 -0.7842545984259719
P 6.856889028098185 2.019209025814891 4.59624428761313 0.5896570561196233 0.0645971671550952 -0.4016716198131534
P 1.3523416348768458 1.112885963241074 10.198078412093414 0.052057125706555504 1.0787227863777293 0.6602690620102306
P 7.647740422124303 6.734191127728712 11.928193752857094 -0.3445638190565679 0.18354154160250327 -0.7054562000698302
Ni 7.7624811402060345 7.057743113100863 9.73221962353503 0.013920466735834091 -0.906102262563104 1.5065435537824248
Ni 1.4248260139956492 5.002504706090081 10.880284659771714 -0.41411421645188035 -1.051379618478086 2.1877478232834258
Ni 2.2594326580668054 9.106736057269524 11.980086609671977 -0.5191283539714415 0.986690662940133 0.09664236851609807
Ni 1.441499086649732 6.234692888422021 9.149126558026838 -0.7837707168110178 1.3930278065497557 -1.9524677156560502
Ni 1.6115514741688144 3.372420399220862 8.979120433195476 -1.7051874982440054 -0.6112568937775861 1.0237312606331983
Ni 4.889679263279933 3.775137095818504 12.187577539854887 -1.7160252122894575 -1.4954153050797472 -1.4526869129732853
Ni 4.547159575942815 8.379329313181833 13.28663466048287 1.631002430290159 1.5576491142089883 -0.8903532272589633
Ni 4.677472314710907 9.217405658831945 4.5650160481487605 0.24712260878825826 -0.6524588219371925 -0.09246921097501494
Ni 8.23503599018493 1.2520348753635766 0.12094917077367885 0.04584688313078556 -0.10576824207676623 -1.135345162857464
Ni 3.984087151172083 7.131411817025285 3.4331873647940885 0.5746960639344166 1.5660764190407352 -1.1468953295889088
Ni 7.72065967050767 5.794355374170939 5.24051975763027 -0.42590426710827295 1.4435301861746817 0.4634467441384212
Ni 6.323054621966134 5.204506105748201 13.32598847841828 1.801433659762949 0.4527920926380525 0.4035860632270468
Ni 0.9509943138356992 5.598220083315642 6.183735463152824 -0.7621299986127907 -1.0792038397792059 -0.026726617361566878
Ni 3.511069674315995 1.1847966850321565 10.60271408497766 1.1930941967424742 0.7894209731182598 -0.6951656167770996
Ni 5.231764081352489 5.62602395863502 1.8040958552033293 -0.7525636950805942 -1.7063699485878807 0.17466300816595082
Ni 4.034124874209419 1.5113187349558963 2.001985427176947 -0.23046366007533858 -1.5726093350632464 -0.46257436883579683
Ni 2.98370279192712 8.498770320335858 9.186597484572069 1.658239411629241 -1.824229574611542 1.197636564697518
Ni 8.00091903271198 3.849286931695207 1.1636796185957454 0.9332189162742379 0.501780349611297 -0.4536302722686317
Ni 5.9724297117405705 4.454180826164303 10.169518604456702 -0.8524502815656028 -0.22058239640588462 0.22623188138217812
Ni 2.243888394993077 2.7839682639672514 6.439828122546256 0.4091185630095019 0.49562898529792065 -0.7661033814382419
Ni 1.3384813336361046 1.625365512721836 0.011447239449295859 0.360411841832418 -0.08059714212777733 -0.1301636402019952
Ni 0.7010592181777221 8.14494403212011 0.06798116909619421 0.19948675207785 0.9982408296715776 -0.18566218748993185
Ni 0.6868908074367693 8.596921238601402 9.366720333953916 -1.4646834232135293 -0.2456596510894866 -1.5189591538379583
Ni 5.7566142735294275 8.345807369660333 11.132058234639661 0.7443636757683052 0.04626057362943646 -0.19861180567206438
Ni 8.952903368064876 9.038526350495996 4.379896828493214 1.2271744262556348 -0.280843140969155 0.6640902355285337
P 5.119095931680588 2.4350088104995877 9.85331220864064 -0.9990363289896795 1.3863894752976316 -1.223443755568609
Ni 7.11151886130593 3.0616461681968166 12.181456986269605 1.2254281329884895 -0.20710621629632076 -0.46170610729823064
P 8.903698373406488 8.668693172329325 6.651639062508406 -2.0617123463171914 -1.8572515380635175 0.6382753313479588
Ni 2.8698873275997774 6.944103446986855 12.222597469204743 -1.3143646482198976 -0.9968331506907736 -1.0229619865673416
P 6.0917874460567 7.18437334192649 4.382036015173361 0.7425551618046567 1.5308937004920151 -0.360329823641573
P 3.4536576788561817 6.409473322626029 9.827961181024147 1.253893587418034 0.029182535101227165 0.7084556490177863
P 3.8789413145233618 5.235187520243727 13.285064504861671 -1.0981490134231409 -0.6256964662416837 2.0653458293047207
Ni 8.577574182597136 6.307056984552754 0.3534783928040975 0.010995065558923 -1.0157482424277215 0.3015037546423001
