# total energy = -340893.98729007726 ev
CRYSTAL
PRIMVEC
9.06341231665872 0.00000000000000 0.00000000000000
0.00000000000000 9.06341231665872 0.00000000000000
0.00000000000000 0.00000000000000 13.26522006918975
PRIMCOORD
 96 1
Ni 6.498366889663399 1.9020476959406083 11.247964698768865 -0.4464805485977278 0.3465173432385129 0.5381496322689505
Ni 4.6612313522967295 0.5861580608003762 5.92319912256405 -0.3349556065428425 -1.427549237365393 -0.7632296594348726
Ni 2.7881050048634415 1.683420065513279 4.7761427309193945 -0.20507710168143392 -0.4923084055651199 1.1914782584056063
Ni 3.4869303434120202 4.358477129313787 4.9930283735112155 -0.1456077426712073 0.4850249845298292 -0.5104711925170756
Ni 4.888768316971221 4.6298900727171866 2.64732664766356 0.6875525803165321 0.3696750123018988 -0.2673078254868816
Ni 7.180406788714779 6.292554924165356 2.7854974611575325 0.13747200093795034 -1.1796144170884846 -1.2909701805553573
Ni 5.170622311292964 4.448676208080589 11.906768727820804 0.48541193555560275 -0.5825019331320808 -1.1263231618645118
Ni 5.445207448985792 7.901881594489868 12.293502716080818 0.6081510011587526 0.48553277740418316 0.8225159559000158
Ni 1.8690840655673309 6.421300695254826 0.4272755376201206 0.07432005086981396 0.42403816043381165 -1.346531205650113
Ni 2.613416797050808 1.7043656112357546 0.47124849486016185 1.2088925972273117 -0.7498776636079989 -0.566171057182541
Ni 0.6217944914478025 0.09119877313858374 4.641420545788643 -0.38213020734611614 -0.11747190366693962 0.10221214929439172
Ni 8.420734755880853 2.143651076435647 1.4161155668853005 0.7488240255325039 0.9668052368701158 -0.38019905176167423
Ni 7.041655010495229 0.6395914077527153 4.849565433601253 -0.5502250753762459 -0.30561109194245434 -0.3954266673447061
Ni 1.0770596587953785 7.520620094549729 2.513122889713823 -0.773265703514636 0.5054621693382585 -0.45530894552263523
Ni 7.9404917306983265 3.9078986524435333 3.6951858048541477 -0.5910719341892787 -0.1403827468268421 0.6440430870696715
Ni 7.586764877190417 3.6449056190255 12.793203981034692 -0.21307837471935562 1.0581549895287068 0.10002542605571806
Ni 7.989669805596706 8.53439900897716 6.951731459460995 -1.0807727269282226 0.8887745699179339 0.5447864208591779
Ni 6.804012341155848 0.7122754423357502 0.24833024507107557 -0.3045325141662949 -0.7868192738293546 0.20660999338619257
Ni 2.0741528312604225 6.35291724978703 9.311587516228075 -0.4995149506158882 0.8016026027861162 -0.7847112263474164
Ni 0.02319961635042016 4.668463955276623 1.5543915159614365 -0.2384255952348926 0.4005745300942327 -0.8401971752298627
Ni 6.3422496135622985 2.0046002056116654 6.881120227260794 1.1989226304987932 0.2780509229359986 0.6761942178809193
Ni 3.619192718456627 4.185075926041436 0.5945752517620653 -1.0474278329191895 0.5498766908978917 -0.7842414857998493
Ni 5.876317716331217 5.411074638431553 4.802977681925499 0.06577858905770607 1.3104262323974398 0.14432733329688693
Ni 5.210238486261783 2.7479722153960586 9.238721307058704 0.4259960554911309 0.28879916259143806 0.5069261554782947
P 0.28023798791658644 5.307670168008479 12.386558582390554 -0.1662866111767975 0.9947482431372868 1.2746249064281143
P 3.7862767233868913 5.998737225666344 12.590869646819087 0.8840704795740452 1.1178256659164618 0.32479717795260193
P 2.6600208628686226 8.661422731738085 1.2867154174309823 -1.7863767654298268 -0.31972027765032685 -0.1112997134179567
P 6.376735897194501 7.654885483702803 5.851169466345863 -0.7078123590068325 -0.10849129743488412 -0.6430969211063182
P 4.745693291105795 1.3401433263359677 12.504154543723303 -0.3021071925542539 -1.310993931975452 -0.5103812039064307
P 4.117870724166854 6.081676511216484 8.135068690364443 -1.095637559855197 0.05315550097705684 0.3128834572341515
P 4.8593122271408244 0.8620537679053496 3.685502455200364 -0.022734979703670524 1.388507550081899 0.8669363909969198
P 0.1987388785738458 5.7517139246425115 3.4405999926443216 0.9824835668373209 0.03655131676147253 0.4345809689466645
Ni 1.5598495028217025 1.0576095760950615 2.579846824397637 -0.9665051891311934 1.4336962308033954 0.0623407670207507
Ni 1.9323376196985114 6.730662145772032 4.699536051512176 -0.1080765784949687 -1.1362234516973593 0.06241404346084734
Ni 5.999226649928141 5.675472500749191 9.416555425265225 0.8087690386275684 -0.6881339067412988 -0.510767640711572
Ni 8.575519710380394 2.170904757087955 9.936207073275918 0.07492091767860647 0.3331236955404263 0.4097281715690428
Ni 2.2054726114304573 5.359105032558479 6.833975982072551 0.6383095270200039 -0.196337664925907 1.5602814096255129
Ni 0.585838122347757 0.036201081230944336 9.031200888350499 0.4428936025774179 0.43157560646143744 0.19556196310214707
Ni 1.3366357857930866 1.0851442225272905 11.48060980259056 -0.08328703025511464 0.21820643997454034 -0.5617842409687551
Ni 4.142296620195444 7.0163952805391325 1.584397754915742 -0.0786040229571485 -0.3410146682527288 -0.6033566650939028
Ni 5.477699781921782 7.897948073570979 8.033005604955184 -0.12012528212938667 -0.3887212303000725 -0.14260983638514796
Ni 5.323884612533581 2.9383582532352293 4.871585900017231 0.3052099998492937 -0.7200263845745212 -0.22743001545533734
Ni 0.815043661218488 7.3860465493799685 6.8710788728229195 0.6746196743049478 -0.6500275867878805 0.33059321580908874
Ni 5.3089571725487605 4.503863325304367 7.162873617706502 -0.14484541058388603 -0.03965412405651235 -0.11573435215054262
Ni 8.36815790138666 7.287527258162611 9.322610438213223 -0.79008508906482 -0.8604875500477825 -0.3565618719587085
Ni 4.415241280270025 0.2173560336878819 10.314716921255286 1.1567915056566982 0.09731779731656788 0.648563086427212
Ni 8.276336471826124 7.150107801544621 4.7556077577720925 -0.426248280711253 0.5787067277557066 0.7855496630883116
Ni 7.235149798738039 5.997042367574564 7.134194262306402 0.6369712678245546 0.22346794548379575 -0.48004192949294094
Ni 2.3532243580197254 5.27932887788551 2.321573109741045 -0.19812509584363297 -0.18022558985539283 2.4762227697662262
Ni 2.293822754097135 4.96301579016833 11.330726341438798 -0.5996031115887416 0.7840895336030173 0.7316521417389077
Ni 1.2499079939201443 3.425281013250064 3.920177763367294 0.1604286097341237 -0.055011066128556864 -1.2818167961908633
Ni 3.7193343604677196 2.5929878658268963 2.841503004507984 -0.3229025320330503 0.20452354317080906 -1.0169031819677712
Ni 0.9780871969652468 3.250910024866373 8.226917310161747 -0.004351849210792505 0.9161521905999384 -0.6024050998139109
Ni 3.7706514006583975 2.8067303170485074 7.289728760999474 -1.365447840048958 -0.053327764888863 -1.5917694529314652
Ni 4.127296672912581 7.038636894214146 5.907161414577931 0.39997751994018216 -0.06475683266141105 0.3645659732101076
Ni 0.909350278419485 7.294352007591008 11.568823994073409 -0.39272315237061395 0.19314384057895767 -0.2997204374896322
P 0.13846899975717825 5.561871691538673 8.114321633370364 0.945229824692185 0.3491465533312439 -1.5690658406863625
P 8.476683199734095 1.4048560898402846 7.712703709504357 -2.0075592573135554 1.169597913392747 1.946926217012531
P 1.5622150534203896 3.06200132322485 10.33763919719069 0.5355646451505938 -0.043827024487279355 0.16481414039632908
P 3.9649528325919476 6.297385722897541 3.745620975032365 -0.8958188783592249 -0.7475356457383836 0.19775459987809169
P 6.9422384414645775 3.9993031650403172 10.580405413478108 -0.08610058844450978 -0.0995644272588995 -0.8433961417831347
P 6.434188867482157 7.714187390090583 10.272812234691951 -0.7650769970562565 0.5608732991187114 -0.07699219838533837
P 2.40886464585628 8.638147889065944 5.759638972318728 0.27392584502403144 0.13206959897545642 0.522946442165951
P 6.911522537330666 4.1526561004034885 1.8313693944897171 -1.0452341677019805 0.2421200133673443 -1.663882211737315
Ni 5.392213677527844 2.7855672494319 0.6853453255009635 0.4646703321328772 0.4043507093072133 -0.4064654416573709
Ni 1.3428714134248751 1.2160652125580826 6.9767627914282535 2.6770022725135703 -1.0747319200507812 -0.2996823851628452
Ni 6.724743737569186 0.6475717422436887 9.182291596014695 0.40351792899327277 -0.37522705246837956 -0.738990841492166
Ni 2.8444250486191596 1.5083240041491477 9.191404857037606 -1.3137372990485439 1.03087712764936 0.36935182463452515
Ni 6.35749427297606 2.1083944027617263 2.7037572650487953 0.5623336857143219 -0.1898155475366731 0.7796389540308315
Ni 4.274386790407197 6.83502733789419 10.505643138464887 -1.2694778150095363 -0.46517555390406984 -0.12447018936164368
Ni 8.303544835417153 7.137962829122242 0.6051939455606167 0.11637404261707054 -0.09940399042163525 -0.21546127312923538
Ni 7.4931670188277995 3.7585336184727853 8.262627154448444 0.32644988306467654 0.25311250782310607 0.1755587805073428
Ni 3.0447445862903657 8.531489653643144 12.3669652977766 0.24199942862908003 -0.016060653007288466 0.29957414171975505
Ni -0.008097252509069569 5.039066882404287 10.134721179225828 -0.32266393365968304 -1.5401136764283863 0.9420663393625388
Ni 8.815237901126288 2.284369615114642 5.769813558916759 -1.2806556860032265 1.7754855724386196 -1.3524845950200708
Ni 3.4120393679447694 2.8135460030646486 11.608367661744182 0.01455115834129752 -0.7122557394901669 -0.5913727532591493
Ni 1.0582349515406915 3.261251378249906 12.76538655614009 -0.6686290039391517 0.21201753755500907 -0.5150868369122161
Ni 2.836974923745133 8.485211870666527 7.991220555433623 0.9081501462310683 -0.7916035825918755 -0.45011865957094743
Ni 5.561173808794998 7.8449180484640095 3.5523600228257473 0.09063807130354713 0.44145841279278814 0.983809741847912
Ni 3.0375844906085154 8.541522851009988 3.537224124359051 1.5678643641790935 -0.21015991552097998 0.1344527544956523
Ni 3.24869855227603 4.21243836764081 9.264429675921448 0.6917257378576152 0.019679480706798366 -0.3824451674833736
Ni 7.428118909070029 6.258594318443972 11.699804802625085 0.03483921916637226 -0.6477724722051166 -0.9227023330136304
Ni 0.5007036783493326 9.227369383208682 0.4632237496491363 0.4062152733197778 -0.728671718954345 -0.28405779125171077
Ni 4.698046932878595 0.5064951987806013 1.4536825043431496 -0.442096046376787 -0.5436193971342703 0.006958947816336402
Ni 6.094138703067806 5.848701499188689 0.3459912311478355 -0.34089562617636127 -0.3504192493960803 1.5024339024894253
Ni 8.094152822078184 8.862820815467696 11.251559248069398 -0.06909685479766164 -0.05766084504657812 0.26068877750846714
Ni 9.240783233346832 4.978505161712992 5.595535017338075 -0.6038734568293213 -0.09440602298641161 0.4785198364214598
Ni 7.9040024329576575 8.786461567215055 2.6682595046088786 0.12928200892799024 0.16578164651592095 -0.6391165963023315
P 8.6072960337482 1.747616214519032 3.491830024077347 -0.16551785133157298 -1.1156271156032465 1.4045795159430974
P 1.7379999341159398 3.281045870615933 1.6010327417694987 0.8745597118701325 -0.3496792859062623 0.8231253073492405
P 4.642642293760685 0.9429302208261369 8.02236697164967 0.7678723004132065 0.2065876247886894 1.618076723367426
P 8.413556533374491 1.622640822927852 12.436541488297223 1.001050788316547 -0.0580249132542162 -0.44429948178600903
P 6.22733460957473 7.895963186287023 1.353158386334875 1.2764110517942597 -0.6765927388709186 -0.33068551841257887
P 1.7967489723561332 3.325075927353184 6.034971841522633 0.6337645879617988 -0.2945520059148153 0.4560337395038017
P 7.136014195487308 4.025423919160687 5.850678229401614 -0.27501419299220375 -0.7541510941723721 0.8939149764682928
P 2.313000934429787 8.446465783274236 10.229341390490864 0.29514053142843366 -0.1953246502803604 0.13775559361664017
