# total energy = -340877.29988456756 ev
CRYSTAL
PRIMVEC
9.16214799839113 0.00000000000000 0.00000000000000

0.00000000000000 9.16214799839113 0.00000000000000

0.00000000000000 0.00000000000000 13.40972971975701

PRIMCOORD
 96 1
Ni 7.71301663139941 7.560723411888317 3.103842461035613 -0.7743167704869697 1.6239416667886355 -0.456158180896808
Ni 6.648173498321666 4.2432929630508385 5.299269885773578 -0.668553670616526 -1.3955120064241902 -0.8679095535434664
Ni 4.583520156729393 0.2321569125993101 5.01216757325801 0.7372108667736078 2.062617888850596 -1.0687847013284109
Ni 5.847942353735071 5.3560358044431045 2.8860417177090696 1.584481146800168 0.1546431134005982 -0.2390532015165625
Ni 8.964410254337901 3.4272846000790858 9.522610439720257 0.3490113133049602 0.5341171140707898 -0.4233794438038902
Ni 8.366864141758551 0.07495553055109205 12.948153315516523 1.2345457790190415 0.4315604369527858 -0.1912599932926835
Ni 8.130654811219777 0.8377281503723664 2.0930303455310146 -1.1538025982317033 0.6666893637142777 0.30008707680043156
Ni 0.3741106484009657 4.771252563646869 12.445851393413987 -0.4895848359863698 -0.15396382794538646 -0.9828288659918817
Ni 7.301819441430822 5.922650506297545 6.692393688109196 0.3286630886659114 0.7853558019099507 0.15386946845936725
Ni 1.1972728163176265 0.9683382310737523 1.0439671794827474 0.04733246653737654 0.7675542549521556 -0.5635559881571971
Ni 5.342860636012293 1.1029393433248331 2.8803291186015514 -0.24142915794790681 -0.09301839861026562 -0.17300798906103107
Ni 5.507266214817915 0.5651111934125108 8.57061381533162 0.07267403062595872 1.2646027463054221 -1.6140938274602783
Ni 6.3314563757094975 8.263588412584623 12.36218815766356 0.03722160335561977 -1.670406128898762 -0.7920416985705585
Ni 0.9981610219237467 8.85149594575562 7.157764825155464 -0.4567783309793101 0.3374153809372447 0.6815855640998196
Ni 7.984637662901386 6.123585568089013 0.9537365162419131 -0.617251163687808 0.43195972927373344 0.3625504854419756
Ni 0.2791330764229941 1.5791602957089075 5.529045556178751 -1.3073362806182067 -1.6480254472107165 -0.7731569458509135
Ni 6.704264166703745 4.914612689124554 12.680990585098296 -0.5209623218563866 0.02636383470550943 -0.2469891685341875
Ni 8.005683116229324 1.3107918266498635 8.887043246505176 0.16431251816956216 -0.8930264032157523 -0.0669417561278718
Ni 4.0279458428854715 3.082155657366815 6.23887653779157 2.044840510262517 -0.9196337213906355 0.23385545936570692
Ni 6.031716712834668 3.2297853436850823 9.769041062262797 1.347932199762698 0.17307920861859868 0.9565023122822108
Ni 7.332512636314842 2.602095765085307 0.3290301329419095 -3.277600915246362 -0.6118575034760624 -1.5338509833481262
Ni 2.977862929795237 5.839146691917562 7.652355883731317 0.6203035773608866 -0.2910365365623891 -1.1208117451279795
Ni 1.494089754067679 7.888068625863309 11.484655056493098 -0.2955089705114459 0.5093766739013162 -0.1628009666210422
Ni 4.637164531668476 5.714513996392991 5.334269290089085 0.5476976809687019 -0.8790802254483053 1.5581430231262714
P 0.28214375816594595 6.856209224601227 7.343127900670849 -0.5097024326718513 0.5622102727625802 0.3200650625842552
P 3.070877053515404 0.2987538157794498 11.489925123865422 -0.914905976897663 1.5774736051340834 -1.899355666322419
P 4.5276035691541185 7.377956889038643 8.130815148804993 0.32224561517534184 -0.37950999611444963 -0.530598302284254
P 2.1988421571956587 4.264833172356012 10.922881633497378 -1.603334017840613 1.7467375537716499 1.195113026944716
P 0.8205198045123173 2.1100701078728945 3.3394251006698883 -1.1822351425407833 0.6704953677239291 -0.005743073131364303
P 2.0741453266370025 9.045247883729454 5.391100260007472 -1.104645419780762 2.386413365011561 -1.221584333762367
P 7.565047945615259 8.874886908901559 10.477008463028032 -0.45411595365579854 0.2742279496454826 0.5914318886318588
P 7.47417776446311 4.252959028902373 1.985551939194907 -1.149619156277975 0.7475220188916287 -0.6259859724576445
Ni 5.309748634128459 7.661781901312414 3.198045831530689 0.5635906980498745 1.6590727061638137 0.38666434777104375
Ni 3.293828756293826 0.9667073687784222 9.34930383439827 -0.9879571883573823 0.4638990011844914 1.1493617888515304
Ni 0.405251872308814 9.08918038207837 3.812734322506458 0.8409250545348227 -0.5575241801408205 0.6102176538797942
Ni 3.0411825327335813 8.755833961342471 3.3087566435847315 -0.5769131261903935 0.23125324585616946 0.7556780723398598
Ni 5.4017915701896095 4.632143674714315 7.558970693028223 -0.20961715564363254 1.2661014423381354 0.645801721631991
Ni 2.0553354373543486 3.5382290469001556 0.3532337785911969 -0.02922830073749805 0.1344273005743556 -1.0301315077325872
Ni 1.1144928116080415 6.19620475096983 5.308884643597843 0.5969114236891914 0.21360107999204506 -0.004194497697321809
Ni 5.707010197404929 1.0247404124785344 10.974267539021861 -1.1311846037218714 0.7115407157010132 0.82242468173779
Ni 2.626778591060694 6.171247060562646 12.71109557009827 -0.3983425554399204 -0.13977545226014637 -0.5628103682404242
Ni 1.1337699704247506 5.879166953187232 9.653623654921613 1.0724248691841596 -1.3505022744827193 1.2955729694346914
Ni 2.312223735311997 3.4939667112330826 8.906165565025306 0.5690730613206845 -0.5104948466661594 0.5246017183811869
Ni 2.48983196899161 7.630145005212559 9.072915737434158 1.029341407731124 1.4522117731090796 0.1123402388673291
Ni 5.5998039068563 0.7591572363283687 0.4814708630314004 0.41353314713742967 1.632816600680762 -1.14973305614802
Ni 1.2683894069712847 5.39061374996319 1.3861504917009249 0.026487247657251158 1.5490960824326547 1.2371973577092756
Ni 7.733869679625089 2.016955200527735 11.278869553695182 1.4565461388183754 0.5939045185420674 0.3769982854361894
Ni 5.750915209310665 7.942491783359152 6.341313930448518 -0.13482582156435488 -0.6194186036527719 0.17412359072271302
Ni 2.6496931225248526 1.8854234077650562 4.560997765187931 0.3586220969218469 -0.04669431873274539 0.6638115279458503
Ni 4.85904426316289 8.222587801508208 10.09347637811983 -0.9436923050017361 -2.069540584112359 1.6725712548708809
Ni 9.031852823753203 3.857099274228069 5.233495743459284 0.4395339420765656 -0.2055386146988847 0.9789884091998687
Ni 6.334159209288837 2.5233562675231402 7.250385892738161 0.7198952583132956 -0.8791720138311633 -0.9112460115475726
Ni 6.955325338707292 0.5153204178072236 4.5796775519728685 0.9298528280154825 -0.053668950278365636 0.4669809825439247
Ni 8.128034436969978 5.863591302052058 8.853787398902035 1.3795570257568304 -1.0945785224630633 0.10485164379976782
Ni 7.496313513370509 2.7351118257796907 3.4684263082304883 0.06324116734783301 -0.1764697223573864 0.34124606753724457
Ni 4.09224579563056 4.892202075785358 9.859717922097914 -0.7455324992654258 0.44195206459975506 0.11301103968210859
P 2.5744077546556037 4.417263824083003 5.764654766041434 -1.6863785930676185 2.174068011803488 -0.8241768885422065
P 5.5875083046072405 2.8846838874159917 12.3805729232917 0.19486802235891598 -0.8955846508612318 0.04906436162681873
P 1.6239448737963953 6.9641026762293485 3.1929773314083487 -1.8145048911246104 -0.15251681108621476 -0.15781662603257335
P 4.494601513043004 2.817012264307525 8.441303843392637 -1.8648126382402272 -0.7132214458375459 0.07893466682368985
P 7.649953568597409 4.639381771418307 10.768160444838742 0.12597145649751854 0.2218283529978438 -0.5248462302918251
P 6.942296764640107 8.474986647079836 1.1399864876572303 0.507870521669435 -1.8817035004582945 0.5088830220943494
P 0.15313338845761976 2.3033547763126743 12.881735074217053 0.9758930581039968 -1.2371891301791595 -1.784379789604456
P 3.710614856375623 4.8152033862912385 1.4813461227947888 -0.5765863389785941 -0.02489907723452486 1.991217068510106
Ni 7.092519338764993 7.944599077336263 8.24208943294422 0.7631507265678212 -0.3817327147973813 1.5610743378404535
Ni 4.169766727545092 4.484706393498305 12.898389110139643 1.5879032851078394 -0.07735755214455708 -1.322674967857806
Ni 3.4728387985756055 7.673060505163826 5.668668441598767 -0.4245058440988496 -3.0935091575673432 1.123929979041987
Ni 2.723036115076068 2.2452484354307494 2.249415380216795 1.2349499564359958 0.43522245918540525 0.03329450038707169
Ni 8.491066216339972 5.524866700600662 3.7012328171036124 -0.2924557855074189 -0.7486718162253558 -0.7611717484645794
Ni 4.022054581897285 8.248177680108526 12.828753122558599 0.19717198790174428 -0.09137983456557812 0.12197159130950608
Ni 0.293328908110546 8.16000117038799 1.654049858796368 -0.04169249464277981 -2.4913840508876963 -0.6528964236952434
Ni 3.606065588667701 6.236609822444016 3.3892552735104 -1.440909460722383 -1.0849926785468411 -1.4119038175186525
Ni 5.219473992578537 6.550111031204158 0.854721185760841 -0.11336379503583702 -0.0019062158837773622 -0.47950302627033553
Ni 6.100835955283934 6.025935397619201 9.530696951303732 -1.7335542223121563 0.9287313128165295 1.3721836161108947
Ni 0.7853948787729552 4.818391813700086 7.422968688389749 0.22644168340013904 -0.8873316668238203 -0.4083716575411483
Ni 3.2032792503121077 1.6906086606549389 13.324644289896852 1.233444832645379 -0.8894556551453584 -1.4287715398082685
Ni 4.482324235089396 3.80199811780046 3.7420785878834466 -1.5406566934160497 -1.168992418598264 0.25499918332285765
Ni 1.6567087140666197 4.373120596336375 3.5814707193104884 0.4323191694956812 -0.5200662924046785 0.33642653466141414
Ni 2.5806655015528532 7.747722846987667 1.2401589973961686 -0.25158218722150866 -1.5296541716579592 -0.3901697898211409
Ni 8.166194782251154 7.960119755585079 5.724344980903604 1.0945253006276248 0.4174569076718681 0.03246969049293118
Ni 1.7717852895123738 2.6433254298548845 6.780334730633161 0.164681985693839 0.1192055985285947 -0.0674829733433225
Ni 3.4608547093492485 0.7332466825576209 7.012899358806303 -0.5679680011819638 -0.026965472845250332 -0.03566197217798374
Ni 0.17045900980856887 8.076534004598912 9.352133105616236 -0.6771959196725563 0.8170235653268768 0.3235028846212106
Ni -0.07495278190677408 3.103989055399238 1.3678866664227747 3.8682249632649444 1.0451493212976581 4.00259981333481
Ni 5.146140162175048 3.0146397907697002 1.4500207397176363 -0.14156776827387876 1.1114269614789698 -0.49358932916007253
Ni 3.6668930874244174 2.8330826714199335 11.161548252056416 0.6685022485533002 -1.8396623642268446 -0.3162004374225264
Ni 8.083680479825638 6.761472617108466 11.306547485762387 0.9179272802224901 0.1776593717901134 0.3262524223418897
Ni 1.0486444558971628 1.430797637572514 10.65319839623957 0.52051315013411 -0.3603329089653665 0.47561963205552926
P 4.914905877851805 6.501469188923783 11.76868713330549 -0.01167872188950892 -0.9469563204649886 0.08373080266075258
P 3.783078282745087 0.2887991422745284 1.4099656622866055 -0.48083640036977837 0.8108639734833841 0.6686616569493
P 7.945726021506632 3.941766681369328 7.381720699324719 -0.12957768579153814 -0.1446986005933766 -0.2603730460402613
P 1.1697222381038224 1.448966176514308 8.432198500981968 -0.3341593358937922 0.31120581242141243 1.3211297348578732
P 0.5772821904524902 6.892372221678011 13.298709914542014 0.4153318909090653 0.5632009188106236 -1.3822710822538837
P 6.649556982628378 6.564312360180345 4.71023449221744 -0.4078453527240331 -0.3003624419490053 0.08770984191315861
P 5.510546263704028 2.1985672927638613 4.822513863962271 0.6565134516225404 0.7346312789718896 -0.09421524713184419
P 7.110321391797725 0.48515221398793734 6.97858436692597 0.7265955531516067 0.17706698962175313 -1.5248179266115804
