# total energy = -340855.3877196109 ev
CRYSTAL
PRIMVEC
9.41023093971648 0.00000000000000 0.00000000000000
0.00000000000000 9.41023093971648 0.00000000000000
0.00000000000000 0.00000000000000 13.77282418099145
PRIMCOORD
 96 1
Ni 0.852631837850884 1.323313701249911 4.658478278553322 -0.41042416919480285 0.943246218603253 -0.032143931722396255
Ni 0.6233223935598408 5.334245770209561 6.297224797073543 -1.2691350869581368 1.6631617886315226 0.10972696961419813
Ni 0.7370535015558322 3.000612053165905 6.76868206348756 0.9885045762204202 0.11605753981791625 -0.4218570936220928
Ni 1.6053665479525854 4.787351388872381 3.7745527182952805 0.09200486974408671 1.2654087871464852 0.5424204917301625
Ni 0.9895704569581468 8.758289977083145 1.277149932188779 0.6979388086468624 0.21534891592108718 -0.25375836893722103
Ni 7.374854311479202 5.42682362047016 4.197902061972232 -1.0944245133837023 1.0934518650577878 0.9205294937320275
Ni 5.6446328217439765 3.845867211120541 10.235618102185478 -2.6071312585540456 0.6585531077603883 -2.61089123981711
Ni 8.402150383572003 9.075819393767771 -0.20962606460105612 0.3852582114521365 -0.5697456619076768 0.1641417969196528
Ni 5.623149264908751 4.71486438129387 7.762997158797139 -2.2687414295186734 -0.033040475394736646 0.8995027549687155
Ni 3.524018498515034 0.016589295814637996 0.9527312855615022 0.9268603210460619 -0.4301525008616656 0.2761678469806727
Ni 5.369477674191639 4.921428356804175 12.142507264292371 0.6381886851714236 0.7529434470175161 1.5004965762573963
Ni 6.631144953703679 8.027792583300899 4.3182899672109905 0.08819115242495133 -0.5284766279555608 -0.15389929325603816
Ni 1.190704729317369 3.3715257089772224 0.8099065671110797 -1.3660808456472666 1.5714191714098873 1.9592317738527614
Ni 7.3903623717790055 8.980531397047013 9.377998842029438 -1.0875131309758497 -1.0535550288628501 -0.27198311947536385
Ni 1.95171009123794 7.656634261489708 6.728823149038605 -0.5563784965721514 -0.7778144992275831 -0.6724589192082031
Ni 9.015424532721571 7.476804751581186 5.025441519489726 -1.117719736466217 -1.231884944357427 1.1668859137782226
Ni 2.809527907263109 7.3902682694713615 11.543637355373937 0.9094989469494789 -1.366337698853079 0.05434977839547414
Ni 0.6617613041864409 1.9095052062594093 9.054819522793839 0.45205701424424083 -1.076162996070353 -0.2880625415357297
Ni 4.330089455566526 1.7452025771122206 7.452544235647373 -1.3415234680228767 0.9420719957894937 -2.4891873003466936
Ni 0.17398763864995453 2.1198803252293152 11.791066199001918 -0.9403807241299998 -1.7384457460765028 -1.0860185487081944
Ni 6.294164590028946 1.6000779982629678 1.6053326711218334 2.4733027679059534 0.5741892995013272 -0.7547478472161065
Ni 5.114159293090749 0.3723713005567296 3.0751824858356636 -1.146753918915038 -0.13110569240029032 0.6277883157737059
Ni 7.19021617365005 1.4156186548183405 12.510489633220566 -0.7421928933692314 0.8375335123547705 -1.2737867267975354
Ni 5.63068685975107 4.470245432572153 2.2453836319116256 0.9970789481529925 0.4862629707019884 -1.7287305756712679
P -0.621389532160824 0.46642655704734554 10.409541751266234 2.573670407792439 1.2127891040682404 1.985292218385239
P 5.393953684409957 2.6040931594445356 3.423620746489183 1.4616654623228118 -1.940094538802678 0.7484334749623046
P 2.650109187882666 0.5044090714818701 2.861111028221484 0.6890402206056521 1.2372603497367272 -0.9726149015733571
P 8.595577676935147 9.630147857408863 3.7469656857862366 -0.5295289804794752 -0.8719245882401306 -1.3312154012286495
P 8.205702406133476 3.9471118839151926 6.439043561855247 -1.3582958023852092 -0.038122003682702084 0.19992383961526858
P 0.7481810994347871 0.848223144737742 6.728713049338661 1.1644042850069494 -1.5110314143504493 1.6520764773516385
P 4.020276428108743 9.02003554579615 6.159028030113073 -0.4112029563423563 -0.1485825090288151 1.2131896819407688
P 3.105300870420342 -0.30244575779230054 10.161010969615738 0.7351676110913339 1.35722185259474 1.1587959376812365
Ni 2.072847991868625 4.386409686691723 10.15065406963639 0.19971352337667542 0.09584378387420268 0.3119735438253724
Ni 4.830459656004297 1.3352835147822835 9.547542028689346 0.03631966036664067 -0.4344889234534904 0.9812034145733165
Ni 3.1625527143912184 4.915010579422825 12.305852872970815 -1.4259338132491572 0.5160535717008595 0.31145238121457974
Ni 4.260039697756007 6.837313699521878 7.223240437494789 1.6535669458542361 0.906268355827323 -0.020759086924222313
Ni 4.414536866446645 6.56548036342939 0.4269826337751028 -0.2705983233126953 0.49578890791455266 -0.21146397904438421
Ni 7.747640603212643 4.716849939985167 11.956560163363886 0.8123971222984591 -0.29103833633460197 0.856009716782087
Ni 1.0160414360985273 8.805087054674724 9.346100982807204 -1.3589702027444144 -0.6809008793279693 0.35508503030286587
Ni 3.2947946873239475 1.1864607152426048 4.751761896121254 0.7669688147623307 0.36618396842950485 1.0465472300864491
Ni 3.020599383309584 6.269876784425916 2.819393593196552 1.9656099094649633 0.9453635220565719 -0.3814596636416527
Ni 7.99412277762572 -0.14384855155759388 5.7466416052767 -0.756804215524503 -1.87034128136794 -1.4123663589773676
Ni 1.4085892124373007 8.544621277345684 3.7886831208111693 -0.2327524561095153 0.6183171430584771 -0.2628760149677731
Ni 7.039454866572895 6.642841870543882 1.8313720602222325 -0.7269598784695609 -3.416358210654639 -1.5108375531720883
Ni 8.906990443622885 7.397156558390933 2.7154359508725117 0.3842644800802995 0.8257588883173456 1.180151520538877
Ni 7.980393250940397 4.3002025626586535 0.8998486117345573 -0.49098120211326407 -1.2844033259711172 -2.3350532653720304
Ni 0.9819952211927695 6.101659499280718 1.8681867650188895 0.36428469452426293 -1.2084190000250028 -1.4722332105363292
Ni 0.7877219480839034 8.597120954780515 11.986351071917962 -1.9993872630257246 -0.36308398934794245 -0.3622823193822535
Ni 9.432533011355543 4.1036134317586574 8.920533647739072 -1.0729779134741522 1.2372266682853144 -0.2520082190153337
Ni 8.135295059553906 1.426252215582162 6.94556617116681 0.13442344391961367 4.2911032990627005 3.3485991008317946
Ni 7.3362629551142176 8.734199786326169 1.9838930804523378 -0.7711082908520009 3.908961007531726 -0.03844339157786283
Ni 5.758317819609222 0.7008749283588515 5.509005988805277 -0.831364150319265 0.27632648404572413 -1.7185094121638922
Ni 5.135144107695459 7.442193922829562 2.6094127628956763 -0.9546621737496785 -0.20928908288025244 0.2421362113172604
Ni 7.2660720438422315 5.3875076763363134 9.266080144478678 0.9625729439563229 0.01603905574073367 -0.8129563372360388
Ni 6.33470386416217 2.559375742851899 7.996997603124258 1.357841745566926 0.5732271926983741 0.49776711468684587
Ni 9.207261497085524 3.961349563061796 4.489541110754645 -1.661842812709783 -2.2719679068757714 -0.133856258562234
P 5.270999609241735 5.69751831864015 4.352570496862783 -0.001704127175300291 1.8540122051906134 0.015786573410295393
P 7.452479305055099 3.1887790275317234 10.461506927593646 3.1931332344195846 -1.0286708640266606 -0.9091819299296923
P 6.382300811368727 3.3331978390736428 13.463266087889737 -0.29202358306600673 0.018862898342773965 -0.08851305454074433
P 2.8743173460763045 2.7797068859705862 8.839440043103401 -0.13458233809498113 0.22675227266202239 -1.007023203849898
P 0.6912736699098896 6.540580892826671 8.588292276277313 0.7564167502780973 -0.5098901232026251 -0.8548486065944503
P 1.4370081093459213 6.672964019220867 4.632916327704787 1.376880507365932 -0.7243700062551977 0.4694219878852496
P 1.355609613233482 1.1789042999387562 -0.06631671926626488 -1.2020395788612201 -0.23352275861663652 0.6079751377025207
P 5.6482839912805805 0.3510910047060164 -0.18668956813580076 -0.6403959772353873 -0.6821895162324058 1.3414429924939284
Ni 7.392197366778072 2.1252065158419904 4.678642521035372 0.4748686128221176 0.09588337886288648 -0.35410261178493857
Ni 2.719199102155213 9.543856041298914 7.949040244079423 -0.1432724096698113 0.9424106100758352 -0.43139897167425695
Ni 3.9917634288924786 4.106173014526586 3.723716769659602 -1.2225834644508429 0.14654439555286375 1.2126991154575955
Ni 0.7121399156069672 5.954634053817048 13.191211611374284 0.10121764659160633 -0.16524480017584445 -0.44876497375653035
Ni 8.739046055169856 1.9429962175500648 0.36685314123645973 0.22687671405502863 0.0658930031483833 0.29679452209208884
Ni 8.679347551200225 2.190080646732066 2.777965052256088 0.7316639688134495 0.16459996750299394 -0.9780980361751155
Ni 6.005392838560458 3.724447003566923 5.504446731999903 -0.49399582056987185 0.5396532133976706 0.39247658357744664
Ni 6.126191970883624 0.1508572914309516 7.591897519968793 -0.36011462230697333 -1.3017438741320937 0.7387987800860178
Ni -0.19435231904728736 6.195884139925094 10.603559066098308 1.969764555063285 -0.8772184896492183 -2.480656380057547
Ni 2.804653407727127 9.610009963572955 12.450715847404817 1.3615472194429712 0.5758957406694727 0.028018082479480774
Ni 5.313778518296896 8.086757089270904 9.98511870025906 -3.633997979492432 -0.25453175676813583 -2.844013163450902
Ni 2.1717965683567515 2.8644083730813454 3.1661653019816884 -0.25959862976808196 -3.7574579824220065 -1.307730944953464
Ni 2.95517945903517 7.3229286581210005 9.066209666111122 -0.7200726644314244 -1.6550569001362012 -0.2993586832748393
Ni 4.571584207674448 2.4810355717379045 11.66427369070488 0.9605710830349456 -0.25337296057334424 2.0096945584890036
Ni 2.480743854584207 5.062233639732549 7.496905945517114 0.7452859304722584 -0.9518902674314962 2.0873094780600057
Ni 6.536986184674653 7.740808775677657 13.16471240154161 -0.8626796726030949 -0.21355762834861933 0.613496324631066
Ni 5.2275808044945915 9.428863021357412 11.536682253815938 -0.36715096032846445 2.1371816803001 2.202747896236684
Ni 6.912285008022202 5.886880392313053 6.457264591684439 1.1076348414263892 1.2128430972346274 -0.19396916469373046
Ni 3.288536883865592 5.861303385095295 5.450291794973606 0.3643942235189337 -0.743753552988132 -1.3107057113110716
Ni 2.614905514592882 1.8035083669287142 10.708811556175535 -1.1311959165757808 0.11509877544907274 -0.1318492554345342
Ni 8.489467914835277 7.697154715161402 7.586223150817833 -0.2206944965037167 -0.40890156190268934 -0.010230162368440444
Ni 6.582955161958962 6.764459692943554 10.942632265095053 1.1917094005798057 -1.5200973812074596 1.159100613405849
Ni 2.8636367341586606 2.742009501528224 13.35494303951407 -2.747862389859242 -0.3188800411372186 -4.121015054751624
Ni 4.4634230152679315 2.532236637327243 0.6770679855478852 3.575385569165862 0.4810467166083715 2.3682174108288248
P 4.017952101109925 5.751984734304751 10.201806202025756 -0.17858548314880857 -0.6546625144567305 0.7985525031058828
P 1.0764551176062565 3.815669780597441 12.40351601193652 0.9208902195055559 3.0247455177393845 -0.3227089279650055
P 8.530515341429782 5.1037233471729815 2.5950753353029694 2.508512997258499 0.07138230839772867 0.5856947290377654
P 6.18488358016146 7.183158500576717 8.33887975600419 1.5978246579866096 -0.9196188089923001 -1.5321496843863034
P 8.32635097476441 6.932065313089063 12.188329441976755 -0.36757493523976054 2.0847928822857384 3.22810306562655
P 3.4806185142294193 4.72272192398218 0.9835930783765721 -0.26251991717993495 -0.9772050920472011 0.3310110200727977
P 2.7694120935142847 3.341347098915651 5.450939218850199 -0.9966863407002643 0.34407659500750426 0.3553493397078461
P 2.4127831680033935 7.62790482696586 -0.04814932775242965 -0.03427254802962485 -0.4724528042917734 -0.25979017695359774
