# total energy = -381175.7202580192 ev
CRYSTAL
PRIMVEC
9.10731329087892 0.00000000000000 0.00000000000000
0.00000000000000 9.10731329087892 0.00000000000000
0.00000000000000 0.00000000000000 13.32947358253637
PRIMCOORD
 96 1
Ni 0.5936939162073663 4.227569309310945 0.023239131413670414 0.07912415712667663 0.03311349472451716 0.435935683202346
Ni 0.44364000038735746 7.404245733947582 3.390351299157308 -0.3001775796317088 0.9801338356582217 0.32423179236743516
Ni 6.292588854762946 1.5273875178848082 2.2126390764199995 -1.16630895822883 0.0232420012470761 -0.0947495223687594
Ni 4.592854539499018 7.77638877107005 10.12937336730466 0.7447413708226981 0.06481313982064321 -0.02041867286566806
Ni 4.321884646113849 6.25031270630417 1.6876580177937992 0.7089318173232565 -2.0475581663039963 1.0895764412627813
Ni 0.5606316366403922 6.93736842360922 5.836630302370991 0.6537387170908806 -0.03674646349141413 -0.12754317186001257
Ni 8.042604646899106 2.9610334597062433 3.078082472033231 -0.7196468897479155 0.26959970684485185 3.11793463759956
Ni 8.710507684279811 8.930458408413351 7.338008244128393 -0.3392105251644545 -0.8906795002501305 -1.0868104484818704
Ni 5.9077775448041665 4.77122127098655 6.765587190387638 2.9310385777025263 1.1894738263810676 0.14197940189000063
Ni 5.015952994679833 2.8954972330131477 9.642287839427485 1.3858711409003166 1.576457762275059 -0.32683194899444357
Ni 5.266823047554766 2.8201615371813955 4.13924112028848 0.5385314410884016 -0.973336096010098 -0.12442236684284377
Ni 1.5766489756645405 2.123561355510814 8.87199127832381 1.3563957571490188 -0.9222822147570761 -0.40649860888815154
Ni 6.138593293735492 0.034556789683752406 6.85494814874126 -1.206178026509626 -0.23317026037322425 -0.8797826508319687
Ni 6.096171428263503 3.3737404703822196 11.73084341470758 0.5510812527289541 -1.004274180349851 -0.30618393372678876
Ni 7.028878707907751 1.742702619535471 13.295363270484701 0.3699053831451501 -0.9000375444262628 -1.3125520204911911
Ni 8.842572834818524 6.5500799244258 1.1044539050751916 0.5288334970743473 -1.1774307791736045 -0.3737615236664466
Ni 7.452560031141422 3.7139988035507505 1.0702951049837803 0.21291356700671718 1.0241135836732815 -0.31536174357131497
Ni 4.432329034816902 7.205405762103452 13.049621545743577 0.15656835544776906 0.40279544900495146 -1.6513491122673107
Ni 5.236213367466453 5.005397618535128 12.778300110064027 -0.32319075269743053 3.907900941698328 1.1746563017522609
Ni 8.845760394482586 2.1522402851740376 7.34234059307752 2.2944948843336936 -1.2316424893293174 -1.212022401105545
Ni 2.9758601658007904 4.203817436157027 9.872954228420266 -1.0674176457775553 -0.6913693829594609 1.1760012458159295
Ni 7.2651406302079575 7.7560066038467115 5.482799340152889 1.1066994740963132 -0.31951227540457877 -0.4412236710741627
Ni 0.29529006289062243 3.994057795635156 9.140420231291056 0.39069583752794 0.919394608796636 -1.3738170379492598
Ni 1.1907356807933294 3.3392783967570563 2.4136347493283674 0.40027911034100094 -0.4723301626709801 0.25771015449611745
P 3.723051472996684 2.0543275596074073 7.751369159901168 -1.5825721027029132 -1.5752424018107194 1.1426679217711226
Ni 7.05772156921084 6.89448208515761 3.032068682185511 0.4671162225702084 1.700722520494116 -0.7280266291711786
P 4.429806309025631 8.042841437045578 5.3231117082967545 1.0104774809470856 -0.0130383212411969 0.6355245080756989
Ni 4.0918248041885725 4.27722238156369 5.662799923651084 -0.7297706084454787 -0.41715994525673966 -3.2760217436846997
P 6.555098054068364 5.86984558480184 1.0750063181672627 0.164372167762904 0.22251329488001031 0.4647312672777997
P 0.38337326518462106 0.03414149619609188 4.9066187874712055 -0.5549865013206313 -0.2437999721729285 0.5969795579229654
P -0.036311768961651184 2.132732420029984 12.739537563086381 0.8531866455109951 0.2514006673383219 -0.90128761478328
Ni 1.103788160471069 0.7818164017295902 11.133615860929769 -1.0209526694467965 -0.19845291149669694 -0.3621676481812601
Ni 7.416786504397332 4.882275849682438 9.909597503586978 0.8674583249386608 -1.7050378600400184 1.5048257997603696
Ni 0.6734575877781654 8.708786402061218 1.1274398531784022 0.5191396668253511 -0.732840248509738 -0.37609197157183616
Ni 7.035909553795337 8.159979701043161 8.88935892483628 -0.1920539499488886 -1.5222920748659332 0.153233120426949
Ni 2.7403177212533283 2.6265309485596737 4.267417448037039 0.44397655122895147 0.35345469378829447 -0.550083407592059
Ni 3.665074316364076 8.796890551175867 7.768790539562262 1.1782280782639194 0.8570201603244724 0.7833598545258444
Ni 3.209608469623052 2.0797916076665928 1.7760326541142262 0.8229054780289506 -0.6728929214218282 1.2959617202326779
Ni 1.0711748714510614 4.522008749136929 4.831427897921335 0.574684751080507 1.6771976978992986 -0.945971587954216
Ni 7.6247793261339805 1.2046698701819392 5.363660199417608 -0.2613996875325627 0.7560699084616398 0.6251292808843041
Ni 5.514532862705615 2.420423340681485 6.678013086908558 2.0731614686943973 0.05981722926794859 -0.3165873884482999
Ni 4.966208849293829 5.30626682156919 10.390910816278208 -0.278797571294036 0.10020411772542742 -0.3713655126304443
Ni 7.683011487539713 5.182981121076634 12.526799831106946 0.30212339050417 0.0010400112287401442 -0.23945506494067148
Ni 7.3111963136969775 8.132393648979043 0.6782717136022303 1.7408677252544342 0.8805665801858449 -0.3720401700999657
Ni 2.939002868770918 6.060534511219299 6.4975717094453875 -1.0930754555549758 0.5324731507094637 -0.4855340629557638
Ni 5.769328167624006 1.002250724200735 8.846545444891277 0.23005768288617154 -0.11391606799488123 -0.19235271213623
Ni 2.3637303152278273 1.9326265316335558 12.960873509576789 -0.8695188070121154 -0.11542170600613025 -0.5344120196033892
Ni 5.417512653844922 8.27504149760244 1.7147969007736152 -1.6547056874443695 1.0782386476524592 1.2832113625455448
Ni 7.94530211132531 6.377632946600095 7.256992316975285 -0.6925155807487623 0.7888568730846737 2.1177042883017787
Ni 4.07171585636501 4.065623063749991 7.891927790847606 -0.4014571898095021 2.0958331992603 0.6620228114765436
Ni 0.3160210402143431 7.517795716494764 9.97291245655989 -0.22352193865018283 -0.5410632063713198 -0.24475616543861076
Ni 4.850035960508792 1.000766232128615 0.0032385606186860526 -1.8799911457528782 -0.6343430861730882 1.4273322362585805
Ni 3.8013925822259793 1.2011908764914496 5.730101147666737 0.6764986364952156 -0.6118670165577592 -0.377703281923014
Ni 2.585839472619603 6.297178940679194 11.265231110190182 -0.5103534359922889 -0.12083876325664351 -0.18829628267866927
Ni 7.837835814079821 9.029910269932056 11.083750588276528 0.08168651853721415 0.17298639179447628 0.5031522902581592
Ni 0.2557980201155709 7.366377525138537 12.260889961005638 -0.4909014979152643 -0.12721098533157446 -0.17234875821047738
P 6.258400000537559 6.000071058048724 8.726072993485088 -1.0905136083650702 1.2610803349744604 -0.8120407674003047
Ni 3.302922001960108 1.909093233999459 10.59978431521347 -1.1053398747446255 -0.9516552686025546 0.9713895138066884
P 3.9508344865904883 3.5239291744394516 12.001511856021661 -1.0747825707830587 -0.8920732952738636 -1.554351674404639
Ni 7.816734169103738 2.4457507790407815 10.656633986456331 1.3232907470649338 -0.649858665310184 -0.21960023499827339
P 2.84321214720922 8.968791090202018 9.789871851873512 -1.45079715214974 -0.28215748890520437 -0.10843679004786486
P 8.127630524109604 0.9554209190790148 9.06746791935669 -0.3614865629538355 0.3208695607634216 0.5153694011496414
P 7.148967741422919 3.433457123860072 5.328190856938602 -0.5849023150434571 -0.5575794588587881 -0.8919218572976638
Ni 3.076687231631705 8.742647393006873 11.951725816994358 -0.20275179598236695 0.138083152159388 0.48366821339161864
Ni 2.6529148352647742 7.6091876057200585 2.5025949858956493 -0.09644233669015002 1.1555632896765518 -1.1721245364693427
Ni 5.404680449368744 6.125205543146436 4.52109073195368 -1.8512714092206828 1.5098433075796192 2.1260804281806163
Ni 5.634649218160762 1.0545449173179884 11.18409496650117 -0.14289934260110873 -0.04180562318187639 -0.7025374837611384
Ni 5.159010672402895 3.274279501550188 0.865577273119122 0.07463038302138116 -0.921692146581561 1.1532665232225752
Ni 1.564745717147604 7.810878166635191 8.072688835008513 -0.6591555172310778 -0.23233799427991597 -0.34914681044156
Ni 7.767654857590522 5.579677474925697 4.9432884738465654 -0.616059457372552 -0.4373760151932984 -1.1365358407314556
Ni 2.982681543481881 4.116223296588629 0.4541808048307412 -0.6034664511988898 1.3173188457522151 0.3407788980928389
Ni 6.77091405795195 6.723510492090699 11.091681236720712 -0.40198169485440444 2.1541062239695803 0.25279009148668075
Ni 8.044881475230577 0.29475728506105797 3.084106959798307 0.7241954283505463 -1.5754673733373317 0.7466355025216174
Ni 2.1374044717661653 3.406299115522272 6.528430019187496 -0.6745142590753351 -0.7375014014308331 1.6115990860628826
Ni 0.56181285517876 2.3310805969545156 4.9784518105978215 -0.28159158909940535 -1.024220541564791 0.031427365271345875
Ni 4.000305412576716 0.37601910967396585 3.557129885168979 -1.2376904952956105 0.6439775239390587 -1.8110660406463908
Ni 2.974011381195635 6.28196972742496 8.876203410737034 0.7150723830033556 -0.467773139427917 0.23624735663665117
Ni 3.7065034846835436 4.220383639096818 2.768891916813305 0.2747102885985398 -0.4456693655503421 0.293303735330011
Ni 4.917712405833471 6.966238606852287 7.348579102705752 1.2093430545011687 -0.36395302221645703 -0.2503143762526786
Ni 2.371917789907801 8.155316756620305 4.760954596674275 0.11686486621056003 0.40727353938096317 0.8429117459475484
Ni 2.819141518088896 5.950035478636291 4.035404998134692 0.24067685316291457 -0.5959174352070382 0.3931188451471359
Ni 8.91389220547356 5.2786261256251175 2.950852394139232 -0.5679374050543445 -2.02256421536282 0.08523284112757579
Ni 6.062902412684031 0.06488414305896206 4.1714318299701665 -0.9125248782599962 -0.4773114179356554 -0.2279000131132204
Ni 1.8546952515039252 0.49415007082406925 6.708990702455235 -2.2168951342713434 1.7033134211497438 -0.7871717720727668
Ni 1.1674027440524022 3.3558081704435447 11.1452395249276 0.060869067571230645 -0.8079339443207828 1.0981844946467667
Ni 7.257882101487224 3.133079715745608 8.28229547266651 -2.346498531094494 0.7618037256216235 1.2263118211450235
Ni 2.097687478351964 6.855657608449346 0.19822522819463237 0.3246421404319764 -0.7918897463737266 1.2819453513489276
Ni 8.645581647579549 4.35679297809198 6.582774268534408 0.8359345432987668 -1.4684976547532966 1.6022073604353375
P 2.788194867407526 0.08492114310724998 1.0025394260331657 0.6207843736520471 -0.02973403672932298 -0.5894259139454237
Ni 8.871279086421726 1.5878965076220135 1.521026059526675 0.48847283386911355 1.3453487553062378 -1.7980133212274907
P 0.28756888265293395 5.359744965418809 11.026887256063677 0.285703811495566 1.1673137453442606 0.40032333331537506
Ni 6.165305043720323 4.782905953983665 3.03257504880643 0.5742952289515723 -2.0654957246190238 -1.8007559169696343
P 1.7546331999923852 5.3435612696387045 1.9923031129327744 0.8829829029368214 1.5208846529954452 -0.46494646861239924
P 6.020289293632198 8.448189738554236 12.409432973544883 0.0909535456614369 0.299631991540884 -1.3274608192822235
P 1.1407638525741777 5.456874462039413 7.643106883470998 0.6098157904556852 0.8232777737667047 0.062493233438214967
Ni 1.4703210925847892 0.8520255908901995 3.1311070716792204 0.1691837302189344 -0.36287341599903317 0.022434931964748456
