# total energy = -340887.8366522738 ev
CRYSTAL
PRIMVEC
9.09139777353244 0.00000000000000 0.00000000000000

0.00000000000000 9.09139777353244 0.00000000000000

0.00000000000000 0.00000000000000 13.30617961413601

PRIMCOORD
 96 1
Ni 6.497949292384663 2.211882534448292 11.54574517831648 0.5235341963486209 -0.2985210178648923 -1.306944958717059
Ni 4.680242492011501 0.23306889207963738 5.6444415945374775 -0.22687517139313185 1.034698044057347 0.275324525143771
Ni 3.14608729737834 2.0293090839859267 4.609779613423285 -1.2135537501484068 -0.7722971689537796 0.30106589577393317
Ni 3.68097059508289 4.650613626606818 5.141135448784473 -1.1216311557054812 -1.9337161460801602 0.2445345363461079
Ni 3.7336097882995563 3.038226953972031 2.4760803725683203 -0.2823294957066944 -1.0550961480977248 0.010163570796563142
Ni 5.091819161460844 4.829514152361146 2.245843450900944 0.5496748592997308 1.2426480964112019 0.756584129093897
Ni 5.256991676548996 5.060081091768378 11.25074750275614 -0.7630738505832987 -1.0364304533674216 0.16126550381312227
Ni 5.7645371410924895 7.65432963455977 11.873889181087298 0.8893636096521845 1.182768389336434 0.3161744692805974
Ni 1.7589400050445732 6.587972313322734 0.4157087097458851 1.092566377129041 0.09095380277175304 -0.9258095111840443
Ni 2.4612141188985635 1.7307839460822214 0.019508321382439124 1.7579897296467015 0.607423893184741 0.5049260943291305
Ni 8.095153330706525 8.822419697091192 6.983974509214311 -1.1081516331618075 0.402366588997649 -0.2299998330650426
Ni 8.754761514721862 2.4538591780846972 1.3464387404397655 0.2782008182503015 0.6383005281589395 -0.6983347585337005
Ni 6.787046650777888 0.5897971586488174 4.422149527508915 2.0277994956198304 1.1148120759011189 0.8048061973250785
Ni 1.0029084560454793 7.603126882194267 2.5196045303585564 -1.6508042955074345 0.23757276031629404 -0.40590288428568155
Ni 7.335694324739784 3.848343228436746 3.76167038758509 1.502940666922515 -0.6253195425182392 -0.1988033528575802
Ni 7.674157973144493 3.974204539471552 12.547820862324198 -0.0750993522379997 0.6839864602318284 0.4495687006047484
Ni 8.550450532138417 7.39549753941668 9.241700417029621 -0.45395860214232786 -0.8156156292357566 -0.1638116672737437
Ni 6.90061639199768 0.5748218082055544 13.39932299781843 0.09656394986967885 -0.069659412169351 -1.3942326254911344
Ni 2.0252452291728265 6.793274258265525 8.908979804610224 -0.5018564542648712 0.3127037371231776 0.4202424408368053
Ni 0.08162438765766379 4.98682260835907 1.272929334451393 -0.26552605099611043 -0.7975328035921168 0.39633375254000774
Ni 6.593036221892973 1.7939055209532602 6.736106639808578 -0.49307176609370573 0.40375627025632405 -0.47696097657477216
Ni 3.498024397311046 4.634430938536754 0.47064893574374966 -1.2851553736457932 0.3224315059339028 -0.3887492553245305
Ni 5.774919517371147 5.432264734584248 4.613266164476582 1.3646155739556498 1.0514516093666022 0.7841838930890366
Ni 5.320767832061071 3.003806921930874 9.06631189824241 0.06245723799395695 1.3004788913767409 1.0943401812000122
P 0.29016377935424637 5.571108561666273 12.216137578392889 -0.1385004422024647 0.5343806521448216 1.1967860437717648
P 4.016725006945532 6.538696937289171 12.69312412753756 -0.9216756915213288 -1.7303179747630457 -1.179695663948381
P 2.426475887934681 8.54401382250156 1.3060456600491526 0.7953689631715786 0.9722310358713772 -0.7073621588432915
P 6.459474496928198 7.74342533292304 5.794588756494508 0.2741490167784311 0.13612937086712687 -1.8170821649334836
P 4.813804216976275 1.4314678565705974 12.762010557748614 -0.2809066472172388 -1.012807671742159 -0.20184316812516853
P 4.0071244908770005 6.483330324734853 8.10362287688971 0.7311286651352699 -0.7935583923254012 0.48806402846646907
P 5.0478258875445325 1.382628867631058 3.4076059005690156 -1.2221970276457015 -0.9217016596632577 0.6592403636354002
P 0.27174369828753003 5.5435070779692435 3.439274875638262 -0.3378236721192569 0.9832767521625777 -1.0441059676348083
Ni 0.6553406818916901 0.03550190837842519 4.859683046794684 -0.20518225980073052 1.3403204488537113 -0.4816979770391253
Ni 1.8052879509890574 6.874205881411425 4.48583295076351 1.0098835561168285 -0.5611831170496464 1.2924372520191871
Ni 6.10124614972331 6.115901482964289 9.237242904692119 -0.2962563902004317 0.24886890205540366 -0.6211764668841431
Ni 9.173220372299877 2.1531702875064553 9.89667107903117 -0.8925165534588694 -0.07492091767860647 0.3374991989003026
Ni 2.5002434896203507 5.143431026726995 7.116037971822935 -0.8032044000555973 0.6763145455088675 -0.20456930880707994
Ni 0.7534795936388314 0.020857484814797204 8.654418848149898 1.2827148825251005 1.2588817846612448 0.3870309870818431
Ni 1.5439193558619522 0.7613554715461887 11.323665058748242 -0.6686745124651065 1.0279183021313523 -0.5573645146345046
Ni 4.264492870975551 7.190586524578953 1.3739165811268212 -0.736179597295616 -0.5841291843228585 1.1627268973045266
Ni 5.588945884134512 7.993366041025387 7.696892831603374 0.6301370185115406 0.9124963390149059 1.4542306033113213
Ni 5.2830021656323956 2.8657722292523515 4.812885076659487 1.1160994272539746 1.0018540009441328 0.6974230453527085
Ni 0.7344067502106373 7.363441270801487 6.764222696620644 1.4716158886673043 0.510601804557669 -1.1346018569335363
Ni 5.5658991907313595 4.787502803163527 7.241090148454239 -1.064302240077025 0.30513286675445517 0.21839361628468196
Ni 1.3625186957147772 7.225961153388288 11.261924467201833 -0.21146012238964224 0.906388426344955 -0.05208540784132965
Ni 4.9457476731340435 0.5290584391391066 10.498376150508172 -1.179379675369859 -0.050736607122919074 0.040776667696729774
Ni 8.242388517950724 7.496202952760552 4.4289089817673934 -0.3194197156907725 -0.4914337162696504 0.834877562789162
Ni 7.58647144143901 5.996249596621535 6.676322517067045 -1.2872153414986154 0.5031299216606561 -0.5051880897412655
Ni 2.379300624791109 5.35733343398118 2.6072392410966243 -0.37004216583333044 -0.5544442556639161 -0.6109319063379994
Ni 2.451322678100682 5.003578054490039 11.555352967503248 0.6096671806929629 0.9792182658224878 0.28316870377853814
Ni 1.1360883423029828 3.389409467887987 3.7727809848269014 -0.14523184738902728 -0.4596584807405826 -1.009482464023668
Ni 1.4664333724792844 1.2634315511779128 2.2259241983382987 0.2021370452165035 -0.38323372482294 1.6401833254584783
Ni 1.419867232987788 3.4636407308610577 8.440349159176337 -0.9719631269219713 0.7561969209578073 -1.734251762599813
Ni 4.048790366958517 3.021271497089633 7.058395782401238 -1.309422987943906 -0.6978719599646691 -0.5344392732968989
Ni 4.120039651455757 7.023022971871462 5.951827208729432 -0.035542415880983946 -0.7038510603662393 -0.5414434725288739
Ni 0.6372251626510116 0.11972734494442891 0.20952944491614994 -0.5438680228099666 -0.4459318751831094 -0.7617679872876817
P 0.13482633839766542 5.761300603478476 7.872614095549779 1.6588510770713107 -2.0613917297529794 1.9274704222807642
P 8.518512451694521 1.765285800703508 7.76229271076113 1.4673054342174083 -0.8750878164594608 0.4642193606383876
P 1.9095481008696669 3.182171055215464 10.585305368777567 0.29237788108163193 -0.24889949818302295 -0.4110746582946082
P 3.891845566872281 6.203142536177956 3.841573773640696 0.8706179536135652 1.8019946744727418 -1.7958088573770041
P 7.010595031089565 4.1504049200816056 10.37659778622183 -0.015864220725766227 -0.11081043248636399 -0.47999976340109596
P 6.663330909622034 8.29883700684231 9.90715618810488 -0.32614160779563833 -1.311056409782271 0.24652457019294316
P 2.511516822882642 8.579861203996087 5.60548131843891 1.0595935217474461 0.7365922593530024 0.2469950820714585
P 6.94330050463192 4.027707415478474 1.5186607253759652 1.2706240127988375 0.7083499766778575 -0.5001011621366613
Ni 5.356069729688068 3.3780634034433583 13.492067074115699 0.3814033564824206 -0.6113893055903922 -0.1490458218184788
Ni 1.876464504303959 1.2535037447888626 6.789557694848085 -1.1814578980551267 1.7172673122266746 -0.4406482581866669
Ni 6.762754435877209 1.2098741267842372 9.087348483593711 1.3342356761122118 -0.9429140320748148 0.03828295474059858
Ni 2.880573024858005 1.8082062896803441 9.063091725144423 0.8160604300826592 -1.5490397752734224 0.8921982508875022
Ni 6.664721893484235 1.9209305309054643 2.137904012333843 -0.005812492916719022 0.8332904208077004 0.7005207104414258
Ni 4.001833297361958 6.9729657356277714 10.492561292480302 -0.9373547928194823 -0.2123476672009182 -0.7270786634356123
Ni 8.36388595804529 7.114927912152511 0.3613103310564338 -0.31599166384583 0.17167590051316883 -0.6571392581319973
Ni 7.785591235883126 3.8261693092216422 8.326741234085818 -0.022973063856405598 0.3092998536479512 -0.40335466394253117
Ni 3.3825454625548983 8.702276875267662 12.497243598126797 0.4638192969864915 -0.313046465174577 0.2625443426599672
Ni 0.3914110400065306 5.079418494872325 10.001869461163931 -0.10907390941123152 -0.45702284288994843 0.04238772093759151
Ni 8.919106712610924 2.5840025374796163 5.700899174826855 -0.562167849560419 -0.7129350249453786 0.40490272515594133
Ni 3.9524306417593045 2.8464893745351585 11.22191322551849 0.026104410396535688 0.15783256687217337 0.5680129954872862
Ni 0.8756252503959776 3.474932246918933 12.669678321771332 0.7154387652038389 -0.5768082251814131 -0.21077723739000476
Ni 3.1733978563460195 8.750834030875643 7.750317521589284 0.7595599238927694 -1.1000338891506796 0.8815819088242365
Ni 5.562035346669687 7.92053485331231 3.675872139201041 -0.6693103462768926 -1.785835805324692 -0.7300200054521233
Ni 3.3428069628053216 9.069405700911085 3.22722802267346 -0.47107443588700804 -0.7904882380405096 1.0474463448619509
Ni 3.477714214643337 4.6365946912112905 9.352980035145567 0.47318016937610125 0.03597153299860257 -0.26292049505246334
Ni 7.566224898555847 6.2345624069476955 11.125349853008732 0.3560895603079803 -0.5415278047125641 1.0255896539981757
Ni 8.122127507955895 -0.04306049650283562 1.9799327934368705 0.1742626874037386 -0.5481674215162688 1.6925407560142722
Ni 5.048207726251803 0.3446303435271389 1.5660841836792634 -1.1700733103672687 -0.0669731235864395 -1.49508106166878
Ni 6.082445139089102 5.830549780461438 -0.009477782198337585 0.5543781783126711 -0.16658820157761633 1.9787248495803664
Ni 8.196567873078186 8.612790246799328 11.44520431927265 0.45595069287169215 0.6178047221984327 0.11842269761598315
Ni 0.3812268561997414 4.996195839482797 5.4020831121938 0.05686611705942464 -0.10262069758672003 2.142180676176588
Ni 7.367532399807964 6.168640681556669 2.786846168459404 -0.608525610889352 -0.43543277542399844 -1.794313760888716
P 8.709750004252825 1.488934582014906 3.5685972818125475 -0.34863644646404474 0.7971126853355627 -0.615589716824985
P 1.8346895314489364 3.336915737035995 1.5355998177423371 -0.39551614173471883 0.47070702524526026 -0.8499722523387554
P 4.804158243918783 1.1611169604248277 7.9843201002221775 -0.07677185484441616 -0.052364629644645305 -0.24933941393391895
P 8.726950928875612 1.6393790326797408 12.043103731633847 -1.4938901266844724 -0.02422981908164214 1.4647029635975548
P 6.404080610180505 7.705741489074493 1.240720330353292 0.9556327651930637 -0.03673335086529157 0.42369697504430903
P 2.0087079765888687 3.329106226332521 5.9513089990552785 -0.3575589457646552 0.02512019210639545 0.07460467198976829
P 6.972565714124916 3.8442884650214375 5.968300821528845 0.38105162956995664 0.5344783540649505 -0.8024811487363276
P 2.811787509162444 8.729105590152356 10.159534299955308 -0.34176594459645654 -0.09347734052455514 -1.392516671241292
