# total energy = -340870.4282397872 ev
CRYSTAL
PRIMVEC
9.25327702249768 0.00000000000000 0.00000000000000
0.00000000000000 9.25327702249768 0.00000000000000
0.00000000000000 0.00000000000000 13.54310625800364
PRIMCOORD
 96 1
Ni 4.977152527575496 2.040143963290679 12.415330612581183 0.49379244630981406 -0.11886184203593078 1.1863177972505892
Ni 6.605951323801325 7.31250378075842 13.045775793149387 -1.2473673562637422 -0.07788051452756264 0.12046775307046995
Ni 7.885050283033526 4.642174653977741 10.954002246600622 1.3450448509125739 0.3576263086674809 0.31581580038959806
Ni 2.496709894098856 0.9855572591647552 1.47300229999705 -0.1993330001088051 -1.3513391685617178 -1.82566887816123
Ni 3.1935649169648914 7.2910269252953 11.514484326578092 -1.1341187466495306 -1.3048806199888625 0.3667357271679168
Ni 2.187483889847875 7.650692541407318 0.43140719650456893 0.47795187973313175 1.0158356599352054 0.7152924694339616
Ni 0.3282747998806143 1.4472402520457914 0.25934621563661453 0.05304802886491509 -0.824136008001942 0.2758734556687055
Ni 1.9057678775365117 9.026367950647524 3.5081115553784294 -0.7072189483972078 -0.3464803193529904 -0.9406496615206703
Ni 4.13453063520902 5.393475957561137 2.9940688956994346 0.1725387627340964 0.10862808012306452 1.1356994608730893
Ni 4.656369180595762 7.148683768212506 5.074113913898566 -1.1915793027598447 -1.000093052388968 0.16067080765191682
Ni 6.691294295768732 2.6957386248856885 8.783435197406636 1.1571761426896263 -0.9688911728648669 -0.4179870691437253
Ni 7.643539758437481 2.117714182742351 1.5828229650952583 -1.1328385943855266 0.4165019999577666 -0.9951557629883506
Ni 0.3248140743557515 5.076643759776902 9.158606529459863 0.9753947783113396 -1.5691725414675555 -1.2528445773282295
Ni 0.9056228274895471 3.611813028525858 11.184668856109536 0.47673111995215306 -0.5416846420054026 -0.882868488846144
Ni 5.415989180026354 4.777476067412353 0.9456867400697576 0.0711179989927485 -0.07123524129690313 0.13553698869876657
Ni 0.5969399905869867 3.5860704124558884 5.039539045118753 0.12776788627630897 0.23353458569117846 1.3797732555326947
Ni 3.5038457947715798 3.0708016936003046 10.509775560411173 -0.31900653941275386 1.6127188014896223 1.1490599413403952
Ni 7.306609443433988 5.134735831555214 8.372550843526648 0.8340967187590798 -0.37878468791265085 0.2026522942900252
Ni 0.6817222139800441 1.3054430382944588 4.8422564076649195 0.8032560792291392 0.0533565612442694 0.7533923616294768
Ni 3.466388530267182 3.1576436964100316 1.5384969932189199 1.4557041025330544 -0.4150076748004272 0.43089786366812244
Ni 3.9932516049587368 8.25788331203827 2.7292475161776295 -0.27284752435818815 -3.3054253936577975 -1.106729041782668
Ni 7.48559557666239 2.065081544278661 11.241549673954147 -0.29218350568263873 -0.5073172202691263 1.1751029023713762
Ni 8.666582041937048 3.475095863740166 13.16249014946691 -0.2998435933310578 1.0831779939356054 -0.1289102274108683
Ni 7.913106218304607 2.500327925329395 4.052571586569 -0.628898261008433 2.445411440812324 1.17519829029866
P 0.6343139756001447 8.922222320213482 1.5713387232532603 1.3451577223413544 0.7897840128846333 0.8854395920074299
P 4.120622960171938 8.27852737258899 7.05836901061807 0.42498098396305517 0.30165622105976436 -0.38317098990580456
P 1.4840682937274872 8.152155371270668 9.941019200315168 -0.9263080480870176 0.18521327287797135 -1.5842518043981813
P 6.9012233866312025 0.43918272500334504 13.231289187835646 -0.18690865830252326 0.5488729322237258 0.22611335352644288
P 1.58326342107115 4.476874117143115 7.233819466779494 -0.1353567543671604 0.6919044295273244 -0.8303552494387764
P 3.0705796149569977 2.33709086922216 4.663121296679965 -0.5031566611335334 0.18827057164705638 -0.5915553015836006
P 5.569232697184788 2.847603403800259 2.197720789976634 0.5705059371124691 -0.6058220959152599 0.626456741446476
P 0.5381964881216407 0.6580430786374664 6.94107169786187 0.1127881250380251 -1.210294876891477 0.5737421846615797
Ni 7.6939701170217125 5.561931861786079 1.0086543633963332 -0.03901006271461023 0.2441046478975409 -0.570577928000985
Ni 4.1726448823665345 1.0765817430900921 3.0758697133060995 0.40723060195816957 4.964101892824457 0.46005108819331086
Ni 7.817094218181674 4.72947932062769 5.374148638299691 -0.6230600570601011 0.4403037303630546 0.4186511850902854
Ni 5.858499383368579 3.7756330410717722 10.599376890363986 -2.4794793290303105 0.9612542251448992 -0.2213634975462833
Ni 6.57730317881476 4.760524064306607 3.0581145257737283 0.8069253005506103 -2.0068444906347183 0.6225229536097086
Ni 7.027586134672719 7.165080574709985 4.684302972613024 -0.3366679612482589 -1.9109436282703347 -0.12880609773283624
Ni 8.75851334698922 7.317842921474586 3.178241490576729 1.0553411742289953 -1.0888899567187182 -0.8079033481931636
Ni 2.917845028022809 0.36448749865481433 10.774407247758488 -0.31623874685962955 0.5752748192560221 -0.40448234978907116
Ni 5.921597477898097 0.8127208537005881 7.3301923446977995 -1.6662198587315562 0.0658022432067899 0.975767845380042
Ni 0.7513864337299974 6.148052921133307 5.033065452666362 1.1554244501058424 -1.6914205263668998 -0.1569265101181362
Ni 5.195927751063016 6.323865180417784 11.263801028685798 -0.3938567517544249 -2.8888814847185023 1.6801326121579065
Ni 6.605063009228099 6.906914151865937 9.831942498672039 1.9386472648331905 1.8026677892803664 -1.2043975375704354
Ni 7.993757778932159 8.21663220404405 1.257114098872517 -1.7257702074913635 0.2831496776151446 -1.3064723899560144
Ni 5.604441415425705 3.842238127510176 7.080755463191067 0.3387628961040747 0.4773219594586166 -1.7325944295020481
Ni 1.6160107676820847 2.7190938955401105 8.614905266967257 -1.8453360175728544 0.2903420815985258 -0.21773952764045082
Ni 2.3782679510019453 9.230541503337628 8.262242530740844 -0.027114339718288787 0.1206209908188826 -0.9069445559587412
Ni 3.6607165964373554 1.9309182838909964 6.735582329210173 -0.01609176335554003 0.3084246501318495 0.8819850577999263
Ni 4.463604918205539 7.7125229370146275 9.415533013212116 -0.2950901378064724 0.669767488418969 -1.560089862439997
Ni 3.1275057738579504 4.603227611907827 5.29435208044887 1.0439041360366474 -0.3275269181789392 1.4985695344380128
Ni 1.1160469686610548 8.033796707664997 11.904024146853262 -1.484724143914488 1.0036031224247555 2.070620704550415
Ni 5.072470531938096 0.6884909859624964 0.9499978417329491 0.4918132110962563 0.058649691322408666 -0.6441305045771551
Ni 2.2157248906550446 8.293508427735388 5.712414201146066 0.619760560373223 0.616433552882519 0.6392407805850218
Ni 3.5887908758363958 4.173995860779984 8.161279102199853 -0.8261288700622547 -0.2946628204610667 0.4244292252246432
Ni 7.00675700858591 9.204650834838787 5.454256106251142 -0.1700753887952684 2.3501502689144687 -0.460433154123078
P 4.419725879598856 6.805109600463421 0.7440781957098457 0.9579092199320665 0.9869050929437841 -0.05767498611396518
P 6.486732105452841 4.165556872334329 12.616757792715726 0.30042646241772136 -0.16357589711385376 0.8677956536734216
P 1.614104592660369 3.56324257857932 0.6850302604376336 -2.317611929967131 0.04444511768725249 -1.0239575177113913
P 8.730466664994944 5.011435918135969 3.2791790099426685 0.8050355397270652 -0.21050984266123102 0.26699415090120465
P 6.892358747452542 9.482295405356195 9.707752420024207 0.8162424641864782 -1.1265962130202405 -1.361334589211533
P 8.247630681338944 6.788176103911284 6.503737777564052 0.0525651756912256 -1.1349607829348518 0.8647998042698913
P 7.182310176119863 2.206388334359358 6.2649458656931545 -0.3482322690470906 0.7341324849586002 -0.6185408290335089
P 8.729245232456757 7.030297344776422 12.913175411213993 -0.5758600023355308 -0.3319900961566153 0.10965497872568213
Ni 0.4878197985428749 1.1590376926945116 11.48164167121607 0.7194077771539159 0.5893711494480882 -0.1545279279789726
Ni 9.087161979252736 0.6900723709683763 9.260030771185718 0.4313933152473022 -0.69958534311135 -1.20597388091862
Ni 4.972868260415038 8.605871292823077 11.719959815314581 1.8613642746803105 1.3204931297151385 1.2023640520801744
Ni 7.956827951205615 8.789493317730507 11.503270280418782 -0.4480180682881768 -0.1841624630159538 0.11424722608205487
Ni 2.8149300834037594 5.429249125687126 1.0623131902576362 0.7140405993047315 -0.5642715261669831 -0.8571443446071625
Ni 4.1330871240275275 4.269989354349308 12.626617159150864 -0.019949703649049515 0.20738209566552668 -0.3455272114111017
Ni 6.139086495909799 6.8630906329200805 7.291134263306232 -1.7480403317434734 0.36129141622389394 -1.0903894240823802
Ni 2.445955670826469 6.382392156205907 9.384085751992204 0.14584017039698755 -1.5645859505381376 -0.48062865523434645
Ni 2.9046498552996693 6.412557838588401 6.919701255082001 -0.366402255087898 -0.7874353101467987 0.629690160782109
Ni 8.347778896193466 0.6384585182808561 3.195915249273221 0.24269079826914977 -3.6272290361997146 -0.627442502398513
Ni 8.825433044838976 6.754882813968886 10.357090015844047 0.8798237884825493 1.2501963410721049 0.8439041917678047
Ni 0.5470407700913302 7.575278335451083 7.935285397477183 0.4481803048976539 -0.4264197732921108 -0.19707685708477674
Ni 8.710618386249408 3.477122331360339 7.312166961482739 0.4539498603915795 -0.9692963787230855 0.310912963771342
Ni 5.533404009397972 2.961807346120733 4.768622532165859 -0.8324296154693019 0.054156945658377705 -0.391757446023235
Ni 7.621350400660419 8.56604518945674 7.761323793553596 0.9334641995158246 0.5711512840059518 0.632485464139059
Ni 1.96969876697843 4.133290696117225 3.430184159442106 0.8765008947569034 1.3000598015614513 -2.0977484140051423
Ni 2.4610847784017387 2.2229424465625125 12.518001270692595 -0.6423060497739067 1.313379401488493 0.9067293546241416
Ni 0.6790859554184573 5.7098639980587595 1.5625360810291906 -0.34964380468263656 -0.23219992604015494 0.5557292930239268
Ni 9.204567555347547 8.214272618458915 5.213297076952642 -0.3291963354615621 2.6564856406174577 1.0272708983553405
Ni 5.976608208500529 6.884484208891959 2.5018991317307897 0.34566013744454016 1.1843534744353668 -1.377932088558898
Ni 4.431634846846178 0.18332592004968717 5.075468593622737 0.247791866941141 0.5975130618289323 1.9747810344412697
Ni 5.293623847564358 1.2966801851606482 10.349573579095797 -1.512858183146543 0.45756046056097327 -2.0737065425645897
Ni 0.8915967105093676 2.426384990385065 2.457179895590262 -1.1147495980942994 -0.7724614624457857 0.35473278916976975
Ni 0.92275712014834 5.5218466666692185 12.52558525636152 0.37001876879456275 0.2163984402315241 0.8102877892649399
P 6.024660474946018 8.908018540318658 3.4407347456545354 0.5583639024332965 0.16246878009260407 0.20167373242683975
P 2.405074693904426 6.688934710183599 3.4513112410420175 -0.29057270955209313 0.06491778371930756 0.4549464199768939
P 2.7044644649122813 5.089228216230948 11.247386640962391 -0.36411423038466967 -0.06601744454138954 -0.407245514356505
P 5.754085407907209 5.315989017600705 4.969534304782396 -1.7924060023430421 -0.8352177197374003 0.519305502979254
P 5.2081975961057125 5.429221365856713 8.782135112015611 -0.0792470558577861 0.27746985362154797 0.8921208606823475
P 3.353517059806548 0.4185904828027306 12.903519616868554 0.6832146150628104 -1.578494333089114 1.2189872624591522
P 8.737304836553431 2.796442036348476 9.632575097954163 0.7358543527457133 1.5596008386187206 -0.2435544318210257
P 3.3678226257462214 1.722219878843518 9.031951377871327 2.2188656277341527 -1.0927106160163889 -1.546451445720956
