# total energy = -340856.6747818766 ev
CRYSTAL
PRIMVEC
9.38679329643092 0.00000000000000 0.00000000000000

0.00000000000000 9.38679329643092 0.00000000000000

0.00000000000000 0.00000000000000 13.73852082093579

PRIMCOORD
 96 1
Ni 7.9457235800687345 0.8659392103527728 0.027671328576000846 -1.7321264887266943 0.29912471288716225 -0.1993062606359277
Ni 9.149523526437557 6.54098993191292 2.923021214711032 0.44492348852325314 -0.10180128700921821 0.6098700407323884
Ni 0.843964726755494 4.0558175776426335 10.098719840470133 -1.6044015398731786 0.5510902515900187 0.9324506706496458
Ni 0.9337212462587745 1.8931566746475725 0.6512838938188767 1.6033227049867032 0.7886987502402546 -0.5294510760536881
Ni 0.309970695151362 5.687786722988933 13.628915467636537 -0.32160258227470423 -1.2275804034448021 -0.9886673270505295
Ni 6.803200621706335 3.356980187922939 0.16212682007495893 1.3420849969533013 -2.3641201008309993 0.6679787719496625
Ni 6.631365979787589 6.252881078836765 9.561969846292675 1.4144723495767768 -0.9583162255624978 -2.7276527476805867
Ni 7.016975457009378 2.917424808422823 4.767651921650577 1.3602004756070898 0.41051904290145425 0.0828784819627863
Ni 4.535370084271329 5.371489329014604 10.569648699904974 0.6577210987773964 -0.2839714021854916 -0.06951954415737706
Ni 8.621159693578255 1.6164903228550935 2.073389680716035 -1.5505371857545553 0.9671927021165214 2.981310843594517
Ni 8.184054267183177 9.12829998632075 4.691897682020027 -1.2724394687410214 -0.7389106230735338 -0.9917750194415759
Ni 9.124216731145689 4.322580862286403 1.5512849617664577 0.6647690067631132 -0.7645434931502897 0.7033579227799047
Ni 6.83054435118898 8.747534094547996 9.2154563640229 -0.3776914548484721 -0.7135204651352034 -0.5153316059331705
Ni 5.0531174536754735 1.0554979957693327 0.421085924597935 0.9391841327187374 2.2913434831889057 0.5836517304658078
Ni 1.3418515184598858 2.5013176391004097 12.142874352812088 0.19681794699643526 0.4934540891337889 -0.93205523498344
Ni 1.9467177183921571 0.6159491870246707 7.591727884695417 1.4827099416979368 -1.7011143566158962 -1.123098484279627
Ni 5.935551137576788 8.429396889046513 0.44944342777921603 1.597287811646533 -1.1074057561347186 0.8397431184115796
Ni 8.053831280876022 2.5195937260563697 11.660130336391394 0.14684778572589546 -1.3884101052720863 -0.7871530030196896
Ni 5.058524246734864 4.185758960144611 1.350943566649687 -1.267211901793495 -0.2728099862520334 1.4069536726022287
Ni 2.5133515083749556 8.512714068204756 3.364083174568843 -0.9155382111650232 1.9197275451105518 1.2973269760113206
Ni 6.161688379927085 0.4859805828215261 6.687843500274451 0.2124602815193825 1.699730588894492 0.24301732837063308
Ni 7.833232246694198 3.613999980907599 9.484222790400825 -0.682186173798296 0.46372262350762716 1.187465280591471
Ni 8.37599542079153 7.45293569459674 0.498372088928646 -1.1760254141856457 0.3957781371468539 0.6754069460929336
Ni 1.6308051829515695 2.0938275462164 3.18026159734308 0.08127565625204067 0.25568849608039834 -0.2498186675631827
P 7.899747065476906 1.4786358734276541 5.90617610597947 0.3260894144014642 -0.2596209983655851 1.9148517050754892
P 3.5198316684565523 4.690918639457363 8.458780368757989 0.1329298900932227 -0.380104692275655 -0.2534045851422281
P 8.446527787194755 0.937897430689543 9.764777152063441 -1.674779061155477 -0.723984855001637 0.8768256250861739
P 8.82327613134699 3.4017176457719907 13.34428066683691 2.7369544846974865 0.42577494061926024 0.3364411899494335
P 2.6167939728098175 0.035688588909377934 5.557190142300245 -0.20328941365339182 -0.34194540759711434 -1.0006116438965993
P 7.510486125581327 5.663672050472312 7.392684683120511 -0.8970869464383712 -0.19425584269621382 0.49110204396184454
P -0.04609197215195121 6.183747344665917 10.395897274752326 2.225512957847341 -1.6673552578875799 -1.2398921309326194
P 6.973899461610869 9.024932616233935 12.285315189546504 0.04566099237222459 -1.0560307440968524 0.2225140662109587
Ni 2.864624094952215 3.2766667826865796 1.6617431156676183 0.007902542676528325 0.6339209110340049 -1.1181010310650357
Ni 6.577401303922251 6.478539594718261 3.340425638895959 -2.1370369271921197 -1.081161734836525 -3.132359554775638
Ni 6.561734745560927 1.6652359415311586 8.723273926732034 0.30267129258784 0.3048752422176943 -1.1648236319325553
Ni 5.856392307941654 0.7239142085706683 4.267679384429178 0.5450623002283839 0.18448873600712098 -1.0589497175158602
Ni 7.105877778303623 4.012197148220782 2.6360791400676598 -0.9456746255390873 0.8187762863519252 0.1310439859244195
Ni 5.782189705277626 3.7415758914460935 7.967888615574183 -1.0347024149327213 1.6005996496285853 0.08630344848393523
Ni 0.9225068440572927 1.7749393972344465 9.38541552459917 1.105718855350599 1.1839791218150837 1.5607670910126799
Ni 3.0842656761964378 6.3946873683301835 3.079613581334921 -0.28907041397495375 -1.3747835156275874 -0.7728784953785464
Ni 0.8386902874845368 7.9012301788508355 5.441498851019552 0.5043185426521186 -0.23884288527796932 0.31762457146356265
Ni 4.035166631929685 4.500423052048916 6.265205000030643 0.6308235030556039 -1.298609956488802 0.36098082696201056
Ni 2.6679989313844246 2.2521264318996588 5.744528951052662 1.1672677225976735 -1.3643463794546633 0.1886950607789847
Ni 3.878510435109956 1.261819717028703 2.608024830316619 0.2018850771066975 -0.7035291582504465 -0.09822411118092116
Ni 0.15114333299372193 5.2340103513274 8.221447497793223 -0.580335007387749 0.3827593562896827 -0.20178686096593632
Ni 8.910254159972528 5.007600891965433 5.665463989352585 -2.443701657210069 3.210548087461922 -0.26262301841670255
Ni 4.098471167333378 1.807689919776482 10.65923813448385 0.3763537098736551 -0.12840294875714658 0.3826755383266248
Ni 2.960472643440815 3.703747113617373 10.302778405815237 0.3864643159450957 0.653285688713862 1.718924902434756
Ni 2.162135242558731 5.862399855785421 12.227297296245323 -0.4736851340369777 -0.816806049999432 -0.3111993846635092
Ni 4.864273941924062 2.870218623881723 4.160175254444319 -0.9423581595713447 0.6717896610553205 0.05905258318778217
Ni 5.508207976427831 4.761047373739836 12.862209683510587 0.4853029207815642 -0.10915438494017975 -1.7038060445154464
Ni 7.991287075746304 3.417881704189126 7.2512463559325235 0.9266685167502299 -1.058273517384442 -1.6649962707371002
Ni 6.7107688660538765 6.738769671081934 11.69988903896492 -1.5337517387661004 1.1742624087479516 2.641932682503947
Ni 2.5384330206226826 7.896095602803117 11.172618767549055 1.1396054807957148 1.2628482255081603 0.40064163588674223
Ni 0.7398811443241803 7.781670589966368 12.858321673640448 1.6669359109619741 -1.4389111993454315 -0.843229020077651
Ni 2.890606739376507 4.094181402701189 4.063428389817205 -1.1221988552834932 0.3098140742802084 -0.6603634214962498
P 7.56726683949843 7.103099287425882 4.88343989690438 1.6437661577137304 -0.25754868921758867 1.8378031995309188
P 4.73322491778839 8.494813452989032 7.093500352386761 -2.0365613009728603 -0.010094922342156809 0.7430282447863332
P 0.9694023257333477 3.181428375775862 7.529451203180617 -0.13369350773212457 -0.17296916540329565 0.22255880340596507
P 0.2244128883832644 9.324896989508023 1.1325757732842128 0.3379267733560245 -2.270432701178167 -0.026204426309509705
P 6.990767529540945 5.7110471972965176 0.7162742973362279 -0.3844668258990927 -0.0972244662718132 0.5324194146533927
P 1.1271849377737826 7.873764421052614 7.709563119612853 0.1559842008095249 -1.5123244221302599 -3.024069574718282
P 4.5684960785536 2.3362227149188897 6.7993586071243755 1.150187112966303 -0.40992666073309403 -0.291806067738562
P 8.939700531200492 3.352023960951831 3.549923851077721 1.047224458659132 -0.44849166549048564 0.49337798448021486
Ni 3.0513180309907786 2.3966736650967944 8.497398575920553 0.8605400005522729 0.6379228331045464 -1.4042642986955236
Ni 4.432500214240326 6.643897349117946 7.952570307251928 0.08115044352808605 -0.9392635798064211 0.9217348268940384
Ni 8.125996949349272 4.954706310559767 11.532513123961472 -0.1295123797712415 -0.7780258439074408 1.2156276019582999
Ni 7.671657370077385 8.634554647911154 2.5988473623059143 -0.047838202529201485 -0.038699473452726896 -1.3055907586820097
Ni 2.3515607355075074 6.120959082905046 9.73414053541893 -1.2686486342400214 -0.16516072510247037 -1.2606242212736485
Ni 0.23383722906317378 0.3534597094641311 12.365094486232378 0.38970030638389014 2.0139317364988027 -1.9418387751872945
Ni 7.952942024274761 8.23051889503731 6.712888404027506 0.048151877114878366 -1.6178795197549556 1.8153546407194154
Ni 3.7661223564639847 2.769094697442815 13.042266217861139 0.017282441229531525 -1.6663651260601686 -0.7656727216587265
Ni 1.6386807027030077 7.19119434447862 1.1610299604386045 0.2924485864185673 0.8883637076327604 0.9517370296830836
Ni 2.149003118443997 5.751429182958838 6.8298581765837 -1.842266891729227 0.729327607370789 1.0394782390548098
Ni 0.8051231139074891 8.605220918205262 9.498511367475485 0.7286709476233968 1.299663337453981 1.6988137335071773
Ni 6.204097912986677 5.000222872269807 5.367599441785765 0.7583083108738553 1.1991231765453736 0.9007970483001067
Ni 8.535936995338318 7.941959475872874 10.863433747014136 -1.3663963200051565 2.0359573488402742 1.3428254746637518
Ni 6.240546832170032 1.0477914383010003 10.832810271880534 0.3751324358720443 0.004187555718786337 1.229522100552205
Ni 4.789996244911989 6.555041961791231 1.2342591526160718 0.353113765509108 -1.0085267849786181 1.015497045648864
Ni 0.24637704650768663 1.2792040586016038 4.734486502835582 2.041259220669162 0.7109694165785755 0.42100554425507486
Ni 0.9608885040235092 3.5266370937483194 5.258075273838439 0.022578142410832083 -0.5128044686359426 -0.242957164556659
Ni 3.944293083999204 0.04101371686526697 8.972229525415788 0.654133638536454 -0.8924946990819983 0.36213036718542146
Ni 2.9975598645825703 9.464046816439273 0.48332693629741214 -1.4127096012493994 -0.3330409060186329 -0.24752755753616082
Ni 4.392418605970193 6.634153857458837 12.750776241764163 -1.5553855149857923 1.2048855329504475 -1.0591754603734211
Ni 5.408989569070617 8.00236349208325 5.217176075853944 2.1498914145572847 -0.40900209203629556 -1.286640442831752
Ni 9.136391402322824 0.7202176892880505 7.6951243538421 -2.4304643325841884 0.17645455284873482 -1.217097244525291
Ni 4.692401752831293 8.854318257470954 12.317009697819126 -0.6120053419078364 1.367793200352683 -1.870994341570907
Ni 3.6788908844137875 6.651847963217431 5.369316286317991 -0.7813713633409058 -0.010381857454956313 -0.4493231602528456
P 6.002432041306226 2.154757222863105 2.3478858058499528 -0.42528797368051274 -0.9722863145893449 -0.3977846260539214
P 3.3759508975983343 4.677758354962111 -0.2293137332726874 -0.521066965755051 1.3983898421926173 1.5156532293931768
P 4.700540102800896 5.133327604183268 3.827140268969645 1.100849957294072 0.5356875438817033 -0.33531941764016443
P 2.4294241876388303 0.6549785357427934 11.288338219210265 -0.6435977720021367 0.25875196549707047 0.5566165807248864
P 4.944099233898116 7.450729798122857 10.15668235168963 -0.6460081812158422 1.3353949865276356 0.3300609974547025
P 4.156303202123142 8.424018256367642 2.0410221393490393 0.005470793306584127 0.5478992554565467 -0.4602557480049493
P 6.056725254944269 3.4351909514139796 11.12379242244884 -0.24111599758286215 -0.028707138126705396 -0.5513985268590569
P 1.3970552510680003 5.747740173111025 4.584064075583112 0.38385104669196474 0.7117793140743807 -0.30820816324566924
