# total energy = -381174.6481543933 ev
CRYSTAL
PRIMVEC
9.20209990557992 0.00000000000000 0.00000000000000

0.00000000000000 9.20209990557992 0.00000000000000

0.00000000000000 0.00000000000000 13.46820337432542

PRIMCOORD
 96 1
Ni 3.000234304783079 8.836288992280155 3.7532918453938215 0.9244961916892595 -0.861767959422103 2.2400129512357294
Ni 0.03666024649527144 4.284700241878881 6.46174780136725 -0.9748563893093662 0.7069597811985502 -0.1307187413745168
Ni 3.6356393150741235 5.3421043595839315 9.324522055415693 -1.51695934979911 -0.8301277068090027 0.7950401190772501
Ni 2.8103857781022024 2.847681889712769 11.946741450731027 -0.5805779766364904 1.0265401908369032 0.8175532125781018
Ni 7.072172790790284 4.363378197534036 9.946254585412888 -1.4748228256403761 0.45254706650678195 -0.4716483061126071
Ni 7.251319275082046 8.425617670060477 0.8988574546448245 0.43528467988190844 -1.301070759324469 0.8270277277274403
Ni 8.518080371630418 3.1369867140218224 13.386761527942134 0.024139830470997135 -0.7172724759784679 1.3990634712208745
Ni -0.08974992246735143 1.5636760576207973 5.725576114397116 -0.9722161234730419 -0.03587974461574466 -1.107596531989286
Ni 3.3157559122104407 5.819362077958077 11.633537852312967 -3.54447062475456 -0.32964859250763234 1.1048935312358261
Ni 4.609736820785475 7.468406017989736 8.817646457734918 0.1122502502566841 0.023307307267372762 0.3667874063414586
Ni 5.406298209718476 3.0158318644129607 3.695365545621467 0.6198073544507584 0.9680707338461005 -1.1290454458916814
Ni 5.960669526734749 0.21845417497907724 8.253395766076379 0.35520895747523984 0.3409519333355935 -0.1280262821440182
Ni 0.6605580306404949 7.099641059519014 1.0251259112662672 0.646827591793344 -0.3685740659282362 0.133500417884712
Ni 5.318335335086005 6.056279346530896 11.103577866379966 1.934545583959991 0.772493858345618 -1.7754452061189874
Ni 9.399025018266084 7.0838594578876 8.33820508101259 -1.7097728036218425 -1.220132431807189 0.24523413351629383
Ni 4.533414602749937 2.3120092400522 0.49927466301748147 0.13281804710570674 0.12797717407363765 -0.684659317929137
Ni 2.855899365081196 0.6710797118681094 12.86255193434702 0.521580672166676 -0.012688651211262017 0.34209221758762376
Ni 8.556112651247116 2.9424175100016363 2.623754305608114 0.6320095529439052 0.8976461613759509 -0.5362380170685346
Ni 8.165833182797241 5.5245728020033535 1.1513363946572273 -1.463697405151176 -0.5249153929668637 -0.5265850673598028
Ni 3.6766806814158772 1.5972821271006366 2.66414508347445 -1.4854908468771837 2.1445607463729903 -0.024120804307603622
Ni 7.691731784749379 3.3644718300161007 4.844809068292933 -0.6800099920825837 0.19069100816309095 -0.17006818970641677
Ni 1.2818433385739643 2.1341878581714733 1.1007809770462502 0.9438224028216972 0.8985234217745816 0.36284024876825255
Ni 2.373267620262301 7.4762093988547145 9.943978906063938 -0.5306569234363312 -0.610055160160001 0.29189399946667793
Ni 7.6919986456516005 0.9610765341029254 12.060937672261943 1.1852109373396555 -0.724136807198469 1.8751075924083318
P 1.0582599130121755 3.4171354487546326 4.4232811084028505 -1.2236448158358217 -0.27236132875038904 -0.41094610313654384
Ni 5.942320539181957 4.839504057598757 5.792351153603155 0.5929305846645724 1.5199233175234403 0.4628080821131578
P 5.888663093635149 8.811305290572117 10.40626112677338 1.5002368948381066 -0.03062363842312791 -0.5192918761324993
Ni 4.82978663991784 9.304243387476832 1.608723098125906 1.7430359365503465 -1.8888213424499987 -0.4135354611302749
P 3.718228163261845 1.7896336250023555 7.006859965286423 -0.4714091935186075 -0.5995095234336708 0.11858442000482805
P 6.481867272974785 2.6916326766133403 12.548015871837864 -0.8161511900242524 1.177928030524997 0.8359196309004313
P 8.808314608047212 6.96616459790755 12.626939523565065 -0.3004866262316954 -0.6456366568090365 -0.03144202055936521
Ni 2.014928641178397 5.1881256190017435 5.386379343892611 1.5156822828588994 -0.5679296917448606 -1.138044049845866
Ni 6.053914406811204 7.372510933091213 6.6234609070638415 0.4529018787430394 -1.5479645399313728 0.5052932478605621
Ni 4.328051335339868 5.681781479712437 4.245635486633588 0.03381489166691596 0.09066481077642449 3.0222821438005565
Ni 3.1014942140262747 0.4452896227079457 8.594774354509052 -0.02851893337529927 1.032588711023828 -0.7228723386637486
Ni 0.38970617761509996 0.11306252280147645 7.595393158627163 0.40289212248381584 1.8302184452051256 2.636381156558098
Ni 5.40235971088568 4.989829564450524 8.100639984594375 1.3078638709869024 0.7918300967803846 0.850799119115425
Ni 8.522350146065973 8.597696941493389 10.438490562081757 0.41775361297668057 0.6434625319758531 -0.2514842281910637
Ni 8.77228838624722 3.495454522506799 11.175578778219522 0.5728114453171942 1.2037794443704624 0.4308536406937483
Ni 3.111892587112862 2.519847872382881 4.954776924838639 -0.3400463908021885 -0.7327677434005896 0.23752596623875868
Ni 5.398853710756486 2.7055646561293525 5.930225298841239 0.4611756887160573 -1.6629147056177234 1.3560386309199162
Ni 9.134731501965298 5.423257680159699 4.395967434955408 -1.1717131599635369 -0.07057883865982684 -1.975092909254734
Ni 4.105056844182983 8.266669795436911 11.314449510895903 -1.6144499252481164 -2.406682656783558 0.8213023952078887
Ni 6.537236309135846 3.5621605459622625 1.2339648118752775 -0.11319564488908894 1.3960884477529505 -0.08865986453125377
Ni 0.7768983414892657 4.9783085351545875 12.861259039286253 0.1531917256660523 0.6785164382561928 -0.5501957648002073
Ni 5.554387606251623 7.77895849137572 4.184382627683533 0.4832596650992903 0.7621680509395777 0.3761331092224168
Ni 2.970051416531745 4.1683672927101725 3.28147348837497 -0.855653876104565 -0.7480550085769633 -0.6506377095680537
Ni 7.122894766412649 6.955931862622341 9.335647394408335 -0.9128951171152213 -0.26433563023243506 -0.1961227207016235
Ni 0.176351806498489 0.41782411460923924 0.37340557753936415 -0.3839886007110935 -0.5882774021632772 -1.7643670939279548
Ni 4.015502006237257 1.1366710077651079 10.456498151721705 0.6073138499694378 1.737544317308156 1.8274161998696399
Ni 0.9957868555919597 4.6136661175181946 1.860214652800087 -0.39225726847778897 -0.2257333444792048 0.5080839232318217
Ni 7.067939824755036 1.3957653375225976 1.132563190290902 -0.2580320566119105 0.23994331743099967 -0.20008530489379736
Ni 2.7700805797665793 5.765216921107208 0.777426542033664 0.0036334829875292267 0.5881961553033804 0.23460493593722173
Ni 2.453436316129869 8.728964899086463 1.534958143701662 -2.290996384262132 1.3813097467818791 0.9509554143220527
Ni 1.9006293561266219 5.284204745901799 7.623461404280889 -1.1700218883040432 0.3273783084162168 2.081790090903673
Ni 4.08144425538636 7.03369881036991 2.555645882100972 0.22472650048124523 1.841264675716958 -2.1799113579581424
P 1.5173250795348308 4.613482075516662 10.79836077061841 0.6575812307654223 -0.5604842912104089 -0.7693139179557396
Ni 4.256633836645172 8.769021640720018 6.518731806091758 0.18799109273342463 0.660353908414553 -0.24906764832977105
P 7.699139475311063 1.3532240288683541 7.511688095700148 0.4304828876178909 -0.009378870111738685 -0.3565752416951472
Ni 7.65348785683092 1.123005889151318 3.595471228029642 0.06070605963080513 -1.1292853298166294 -0.6143951822962516
P 1.328433571261923 0.1669270156000084 9.807074662173928 -0.954837265874962 0.5210628519899929 0.29816003498104776
P 3.5793776752056305 7.7238379119167275 0.229902507684408 1.552123813515385 -0.23905037330308507 -2.298411188668964
P 5.337834585148377 0.8970059921094072 3.8316633711164245 -0.5886525261145088 -0.92007440847248 -1.48064894540385
Ni 4.6698265342858445 4.71945345999909 13.217695024074311 0.13630754831620395 -1.6606482781810497 0.2625805952145413
Ni 5.405322787110353 0.19438976306869185 12.751520315032455 0.3770198827027443 1.8102286323467596 0.7795011429013866
Ni 0.33460584277627714 8.530586025634554 4.354822084882789 -0.07121235847876767 0.5984520287034338 -0.9205955710832726
Ni 4.9668887289594945 4.978372949855125 2.243357892640537 1.3287785096523825 -0.8562506291482995 -1.2519606320613792
Ni 6.431688221256943 1.9202758397902189 10.520255822312619 -0.8033761497467712 0.027686667281991026 -2.0464194247138625
Ni 3.589122699186778 3.935094055767696 6.800701636429733 -0.3459789542365396 -1.550326612405646 0.920356458489273
Ni 9.164353062111958 4.315159193132515 8.851653738778099 0.978093151079109 0.6905993375626559 0.4216393211843319
Ni 2.3205763952235388 2.8855853399283924 9.531151531796304 -0.2050339071483243 0.464510152405929 0.14971945084673569
Ni 0.6490535651246968 7.004463738426469 5.986198912977334 0.548243526169843 -0.9488211415878691 0.4608992951262191
Ni 6.853356053068188 7.6946856588739765 12.2659512598691 0.43077419360606456 -0.6764042770091964 -2.318743472468413
Ni 1.1886352668978166 2.59068563877275 7.368185025845191 1.812380645692756 -0.5761009147017434 1.021461233652099
Ni 1.967767878285687 6.640134192192681 3.1812975865208006 -1.2643795745510225 -0.2297964588049849 0.762474526436403
Ni 4.761691099350805 3.661984927593505 11.091563604519923 0.8982809667464723 0.015945467585662863 -0.34985334959028136
Ni 4.8362741204718604 2.7320390980498064 8.848111850458606 -0.10009613139265341 0.19253628890194582 -1.3439346485675308
Ni 2.1714195550815036 7.834907259841607 7.707193153298127 1.4606627320899102 -1.5578915692370976 -1.2675397174465588
Ni 0.10588672516172327 6.356902753934201 10.546384265270191 0.13487441541410322 -1.349210038033857 1.1431255781338312
Ni 7.0105555286771954 5.060685735040546 12.211485869935565 1.0665483557987243 -0.5919975313273418 1.4020624059481983
Ni 6.448031150993031 0.5739257796791045 5.483524994191547 0.6524709061220505 -0.5399992838831797 2.563284950793056
Ni 2.0240203160541035 0.3567120477903564 5.947249183982998 0.36721549501781275 0.8009649692021173 -0.4570423832739741
Ni 3.9148494355991184 6.050003514278638 6.751287279228258 0.7601641331356714 2.791900759026379 -0.24167238430696444
Ni 0.8594080516163276 1.5077088849547562 11.523206512814232 0.5539133228611106 -1.2186154809420302 0.5623853648878637
Ni 8.851435649006282 2.017311985098243 9.569711091747394 -0.3597068453455934 -1.6649875289863518 -2.3725219517414495
Ni 1.5107823863803493 8.026982694741028 12.20507476681218 -0.1454280225602334 -0.15937034367293842 -0.04347272647165416
Ni 8.109369096727063 8.298555072202422 6.380561353231207 -1.4752635127222204 0.19789138256627206 -0.6322504653101175
Ni 5.51312538950803 6.640483871995593 0.46278005432358926 0.1407738116176737 1.1401988914053394 0.37667509776881575
P -0.06935162722749395 8.706364541298269 2.205256597273266 -0.20293151609334084 0.8178728007010495 1.8391278318796132
Ni 1.4464044942442718 1.36935531030268 3.559309735358524 -1.50707782901934 0.6322154983071241 -0.28288639665142895
P 6.65707525843375 5.542599716053465 3.8955434296383564 -0.36539978196531264 -0.4205460881201531 -0.6911094444298549
Ni 7.095224051482233 3.4978010580263383 7.639070926640869 0.454786754470578 -2.1524406633416997 -0.286949510977209
P 2.8190173479740777 3.5944415130310676 1.1791359389887153 1.4600770347897694 -0.12239145245574405 -0.861723993558045
P 7.49225786138835 5.591646909461883 7.517534189878829 0.7377705959318196 1.2826745162054682 0.0442258025875948
P 2.7561117918502607 7.413506288932584 5.6335606348909 -0.2505789427679749 0.6281030188006473 -2.156775543271628
Ni 7.829606850197471 7.154798447378313 3.0682994784198603 -0.21230164445433114 -0.14373855067295246 0.00520596968097168
