# total energy = -340893.9515645235 ev
CRYSTAL
PRIMVEC
9.04682663631287 0.00000000000000 0.00000000000000

0.00000000000000 9.04682663631287 0.00000000000000

0.00000000000000 0.00000000000000 13.24094524950086

PRIMCOORD
 96 1
Ni 6.569479924371633 2.04636507793431 11.321087760830324 0.15044655882074737 0.26647453095230883 0.27086340404862386
Ni 4.710836502193751 0.254843682393501 5.948905603699978 -0.735133929639921 -0.38654350592246334 -0.012462651243384987
Ni 2.643799425059276 1.7281972267874257 4.7478452611994575 -0.1690914276154443 -1.0631501287504528 1.3981520151501985
Ni 3.3034126126668415 4.420180051295316 5.1960648660890385 0.32252020899296713 -0.009372442353835471 -0.5910925030145691
Ni 5.19674156873244 4.57133443319307 2.515130931131767 -0.1250728559426491 0.8849330846846566 0.5803170096656199
Ni 7.418397962422729 6.404628646723745 2.7263110087376616 -0.3020256885840411 -0.9137870328018715 -1.1293812319645453
Ni 5.255229303887394 4.395898368208556 11.797020510205623 -0.6054788536432282 0.5225044695325259 -0.019143148587354126
Ni 5.72756413025092 7.8585260854372 12.253607525187212 -0.21153622704321637 0.20931993611818786 -0.22776657285914967
Ni 1.8859015112763928 6.501990596567152 0.467976969901941 0.2047102052603184 0.7914709136687531 -0.70535592704654
Ni 2.8727112831607173 1.7226062878352582 0.1705562066175253 -0.2060024417091807 -0.5976297899124546 1.2700959082095093
Ni 0.5919365904886681 9.128610097564671 4.7559756444297365 0.5614155447754265 0.5776032102788826 -0.3078885751227214
Ni 8.57820115606004 2.2251032346947803 1.2991234214196434 -0.28518187755382496 0.7784009678586723 -0.08275815433483813
Ni 6.976035273192748 0.5295306746538044 4.876163642930447 -0.6084600477587391 0.4807556677305139 -1.01161416565469
Ni 0.6851288578675861 7.5458948922817815 2.629889928879733 0.29049634778820294 0.1682578759705554 -0.45708274959360634
Ni 7.71143372876521 3.841373120517457 3.851314678469782 -0.03880128913791382 -0.2543229831914394 -0.7985856703366634
Ni 7.557212472587868 3.9202071691083735 12.690519501280168 0.9035704972801858 -0.32343397905648813 0.016713970320571217
Ni 7.903760219354411 8.731508682732253 6.776066928019573 0.7179954701874214 0.2886613514619932 1.545695798501854
Ni 6.74655346500395 0.7118866574449736 0.26101904635587875 -0.16023500566607887 0.12634555200748562 0.3484919504663805
Ni 1.7213306852587928 6.5081876729138095 9.202152657169952 0.06098785253728206 0.3560633350557352 0.3193374403896113
Ni 9.221159135559285 4.822420063740729 1.276226807513429 -0.8885495983913213 -0.08789316156855831 0.40632737341760994
Ni 6.291905185002054 2.0012847400724163 7.045745596972563 0.900208008565856 0.19448544220851666 -0.6742180679911549
Ni 3.596113646418335 4.514737484835855 0.5201509246447314 -0.9671613346579536 0.018807362514490188 -0.0032501315061814993
Ni 5.999312713171961 5.5602249752375865 4.568655667782493 -0.008855650618417006 0.9801292076725315 1.3545023967810481
Ni 5.1992656334050205 2.821433868952166 9.41063135229831 0.41677505111349517 0.2240731831679625 -0.5214940259901406
P 0.19738366676114524 5.579141890041765 12.310954455484772 -0.19454997689786493 -1.547498913148864 0.17149566618156273
P 3.953816130608862 6.277267419266445 12.560863998550584 0.7548836014630225 -0.4721954368653287 0.20567334050453612
P 2.3827351445694798 8.537083328329294 1.4395555042136625 -0.7831513380594641 0.3278071684235193 -0.8289992496315142
P 6.324690885265249 7.579521947435838 5.693871033261346 -0.9403920369839095 -0.0455594337973538 -1.0677873704121483
P 4.842485925546405 1.394287897037352 12.552363600104863 -0.15176142097742895 -1.2258073707047792 -0.003377401112665151
P 4.001927155443209 5.99089916426336 8.167345850468752 0.0631573493847751 0.6670128084919674 -0.10977736323615933
P 4.546482800018954 1.129297293723542 3.940015196350721 0.8007649373761694 -0.645527899145314 -0.7878726547945335
P 9.227491914307697 5.602184157859193 3.7061402490758826 0.05148814057696294 0.12568220739187388 -1.4181541693037383
Ni 1.4330354561508354 1.387312793587318 2.648719089464112 -0.09903632266957137 -0.6627782015853295 -0.5601451627034353
Ni 1.7536730910095992 6.614107920894353 4.747316021832626 1.3358657555164672 -0.6478264653715037 0.10226537112983033
Ni 6.008404774089321 5.755401216263572 9.121673895469804 -0.9229031361705267 -0.06790257737924435 -0.016148327625088315
Ni 8.775349605324815 2.0672813414576283 9.938044164802111 -0.37744797137909836 0.26994397755814803 1.921202072773549
Ni 2.1607622026109383 5.140560774407263 7.2166202518928655 0.6548239797352594 -0.1583169627077596 -0.7466396162866754
Ni 0.44313347887192994 8.88534997218469 9.135417834719211 0.025698433207368643 -0.512611121678214 0.004716688749378973
Ni 1.3467377754635788 0.9599497431642845 11.579961804555847 0.8653142820124645 0.5735331539745672 -1.200495631412868
Ni 4.131468668155319 6.95017944224567 1.5877217192248463 0.03531847279563595 -0.234665356861512 -0.2589435126825863
Ni 5.801974280544734 7.867744801929527 7.76725807811512 -0.9132285891952401 0.31692754539653806 1.0682239437289345
Ni 5.251266793756248 3.1119546174488506 4.6406466965944135 0.5304273239240285 -0.2851672222658057 0.6688472905975449
Ni 0.7013661025785085 7.234937362081301 6.760800407822514 0.5858502807790233 0.6200991746595643 1.3419515566992308
Ni 5.202251086243557 4.389167529081675 7.0381317875516185 0.4866018420986458 1.204760320226493 -0.07586425542848226
Ni 8.13245495361305 6.88382096778912 9.142912226026615 1.6312495133039584 0.42915311306287374 -0.048417729181755326
Ni 4.808768402124515 0.4119961104486781 10.3161264356877 -1.7526675461028398 -0.8502278199929872 0.8493762706259694
Ni 8.294601230052688 7.286920428778961 4.823491208031889 -0.721971424116034 -0.6804699624381377 -0.5194628544927247
Ni 7.443113893195093 6.154330090106246 6.957680166331822 -1.5861546778478488 -0.5867283125086025 -0.4344971509836066
Ni 2.210103595887833 5.508241908539928 2.4903706709081637 0.4000919340308593 -1.0009137485180506 1.224359582514659
Ni 2.231128421332553 5.1609613688039255 11.498953803488869 0.5322258105853479 0.5246071176978255 -0.4157337543331743
Ni 1.2512575655911282 3.63691483521166 3.867004590160306 -0.39805793431996606 -0.43887676810854087 0.07818750424502018
Ni 3.5714158092995376 2.7454224303176837 2.80704036753971 -0.2648483082027955 0.6985522738611453 -0.5945876606520212
Ni 1.0180936989014686 3.20927133315834 8.396599678622607 -0.1443782411394804 0.6607251757110428 -2.4891960420974417
Ni 3.6032425459236874 2.8808624740925994 7.366917899294228 -0.5287728190397409 -1.3443681365605233 -0.5605287712950991
Ni 4.086759250191547 6.708412043284956 5.942867751504707 0.01667900331757773 0.3528954788507148 -0.031736154761016315
Ni 1.080833442644641 7.371634914779115 11.62033326907696 -0.04158913629569611 0.9570558707928355 -0.7681504937752577
P 0.1823369844549239 5.437758081070128 7.932398854220076 0.4271090860496515 -0.4389202197519667 1.0197403943062502
P 8.454911000655285 1.392017143514708 7.946924439303571 -0.22440922635114255 0.9930893673776251 -0.4760562053723156
P 1.684971488416138 3.2990068080233046 10.454084211356447 0.3919070842272218 -1.6367264772581296 0.489805436637608
P 3.957371533534755 6.038548800931751 3.735654616774185 -0.16188771077815348 0.3931401853033745 0.19629755571659097
P 6.8122424742785235 4.142514843657903 10.34786541809205 0.5633451576979717 -0.9505658921931177 0.190973058179884
P 6.546736201838058 7.830489969235311 10.049824947172969 -2.447086257411586 0.16960102026201113 0.917557298477581
P 2.379514474234574 8.462754599476531 5.844394851332295 0.42238159866699515 0.13488187161327092 -0.11820055430284804
P 7.087835958582528 4.072474310700493 1.636898460254282 -0.4238496985720894 -0.14887561478920164 -0.5180160947438692
Ni 5.140823132383983 2.8840469571203706 0.9629940003769129 1.230483693134526 -1.1241107275942253 -1.5683328191750796
Ni 1.5029764740136282 0.9705978582883963 7.2096949059901405 -0.07312500212044826 0.32040059154680306 -1.443754643480662
Ni 6.74329660736191 0.8143682065651302 9.235506498155146 1.1979813496314466 -0.33321959768834225 -1.1810004988027338
Ni 2.5761653480262607 1.593670912517638 9.22076921732492 0.9636386662166759 -1.3125728464267976 1.1639617981528922
Ni 6.300002094973235 1.7107730384025157 2.7726542836185235 0.14421163365462902 0.9670191526531347 -0.10194089791087604
Ni 3.951373487377333 6.620386418682062 10.405079360035895 0.23714827118436577 0.9087646398866156 -0.3098171596040019
Ni 8.386625552093863 7.0195686036746725 0.3388977500384639 -1.2709975940881726 0.4537747682662959 0.528017171820639
Ni 7.56013459763892 3.9092062277397077 8.278146861498962 0.006683068447130426 -0.596244993749786 -0.6597995785729799
Ni 3.31492017633538 8.362977146881944 12.387580173657852 -0.5020492870019677 0.743193566719604 0.04020793967745333
Ni 0.03772707705231129 4.642062524986023 10.098498684633244 -0.8584319530703344 0.9271840229340677 1.195143108851703
Ni 8.716472856618172 2.1965152620591026 5.799785853145818 0.007114499557594199 0.7367470397633118 0.4633397862469117
Ni 3.659957103029088 2.7544330697939925 11.305330902621602 -0.5624447573708894 -0.21185272984237064 0.0023983250288474823
Ni 1.3693729360757516 3.3624612510823693 12.702277662050609 -1.7168027138854303 -0.16033116492431096 -0.35669196977866957
Ni 3.1973023813238455 8.143663971997736 7.9103128359936585 0.02394416952042328 0.30402086463719896 0.5711546264400614
Ni 5.47532050587498 8.112750964878712 3.3965668833732687 0.5668554848440754 -0.30362054387498677 1.498751568541832
Ni 3.042936375917969 8.293931764870713 3.514080639876793 -0.1382908972948199 0.4382195941405163 0.9671407658326635
Ni 3.2944924414583667 4.22027231986159 9.3294116554846 0.24689815148227803 1.014143359834447 0.13201534869875328
Ni 7.212998807131454 6.091327988386354 11.396229799410918 0.6035739233110314 -0.2649069293548728 -0.09538509907022928
Ni 0.4745386333679718 9.03307560673152 0.33044529977469367 0.5952924000285296 0.35282400218283105 1.1585575964181853
Ni 4.347977326736662 0.4481038055067532 1.639930956592092 0.7595606952237176 0.10071473881325882 -0.32920661987420724
Ni 6.1253440570920965 5.827866298798946 0.40560724137421106 -0.2696817250356968 -0.09693907382091048 0.615855826002178
Ni 8.135512781065854 8.611312542087438 11.24828885038664 -0.27886750530002297 0.7828127237731227 0.5401044420024763
Ni -0.00934989548068767 4.868694582738037 5.76463078894804 0.5526815073365384 -1.1889781176915717 0.2078775472447065
Ni 7.802589555435175 -0.09565390894669268 2.4076672945019686 0.8882397804603864 -0.3242875853060351 0.19463533752281964
P 8.43981184675372 1.7228324585048442 3.5942807593120096 0.4009018315266644 -0.4819967392264667 -0.20380003474122318
P 1.805819000589361 3.3482305925520146 1.5795786704370698 0.5658617534722383 -0.2957545108633487 0.4167524254056758
P 4.673283124215682 1.032478153487142 8.092534925748433 -0.5631345843490624 -0.4756175751730002 0.7850236153815126
P 8.49197584998705 1.5653091105515462 12.34549976355735 -0.46939550552268844 0.46648707362664177 0.22277349051993245
P 6.222298899730248 7.864089883909016 1.3701066337278889 0.3252656329485882 -0.24880616713826828 -0.984517309437898
P 1.790584144286044 3.101514579340758 6.206521233819925 -0.7278728772021336 0.41972899153549653 -0.4799108032317154
P 6.9790116792045005 3.8623255713479097 5.961458075862004 -0.047370261753847454 0.31696611194395735 -0.21594566896482167
P 2.288892410344832 8.502750620686129 10.181214726596938 1.447548306195139 0.09714681895634236 -0.14389461663484251
