# total energy = -340893.3777203842 ev
CRYSTAL
PRIMVEC
9.03373457806095 0.00000000000000 0.00000000000000

0.00000000000000 9.03373457806095 0.00000000000000

0.00000000000000 0.00000000000000 13.22178369888112

PRIMCOORD
 96 1
Ni 6.267243584372119 2.0636211199781553 11.393329577334617 1.7395189245360234 0.15770581148632193 0.1813818149470231
Ni 4.658525194350494 0.338356715584555 5.970507993335358 -0.39381432855226367 0.3380789826631726 0.008369455010617843
Ni 2.5549297996075113 1.4522541100381654 4.795197465614798 0.8156783641528919 0.15114718443219774 -0.5059103126192707
Ni 3.293934443028235 4.481969889038904 5.001047364871559 1.264756498274467 -0.94364422537262 -2.098382448044715
Ni 4.929835339889943 4.839967749977965 2.2964782716274423 1.553126029527654 -0.6094568644543696 0.582428656691984
Ni 7.378429051755809 6.201170850896425 2.6404955251933853 -0.7451524902181876 -0.6623393142756979 -1.0115995103666706
Ni 5.09723043850966 4.542911461369644 11.260107289241542 -0.41782534675488037 -0.07498828058143216 0.9789148756494561
Ni 5.425154997597397 7.834903651499701 12.46223174743825 0.23136971682937568 -0.028320444211248005 0.6707907874771608
Ni 1.9950370083364448 6.300858110112215 0.36834419695898307 0.20251191205741897 0.23585474918392285 -0.1391416753308894
Ni 2.849023023329309 1.6693708828512412 0.29486922150762784 -0.04534397535243804 -0.29019938537307444 0.47027996501017066
Ni 0.593697928807216 -0.23577775798408238 4.618421737183602 0.6938600105917986 -0.24180839566419646 0.14122581155342773
Ni 8.421599532765626 2.101960288814749 1.3843601757053887 0.778130487806105 1.3080664739160117 0.9177820128938774
Ni 6.839033803861328 0.7227475349762529 4.878732407705275 -0.5737175020712313 -0.5769452649799096 0.42397285441351507
Ni 0.6794109042639749 7.19988632487399 2.337373083928662 1.1339907057120986 -0.276374306564524 0.20882705564216938
Ni 7.726390433765213 3.8486870394199375 3.825908478104793 -0.5775373900379538 0.02086681614668019 0.37155474582311493
Ni 7.550368118783822 3.8635475325246023 12.864398246028761 0.8692547547174513 -0.2188813545543779 -0.7500506988507535
Ni 8.03281470495684 8.658211104435763 6.842788223882178 -0.030904659998656454 0.6504608176705572 0.5752501366656738
Ni 6.661322180545241 0.7877253798414393 0.5676789669591581 0.8885423993024697 -0.9539360942169313 -1.2600981735668493
Ni 1.800504571548695 6.273314253895728 8.971429647277247 0.7510166623084485 0.6841978049116862 0.8570486995695626
Ni 0.3474500726417923 4.81129467696021 1.5491833701385422 -0.8198175831322461 -0.8840529960725485 0.09845808156859817
Ni 6.292917457565711 2.070658399083647 7.015174460763492 -0.081002347985996 -1.1364157702138236 0.14410930374880987
Ni 3.535135151778719 4.103275742566234 0.2588878573520782 -0.26685248311701787 0.3249406455090017 -0.3923881376286984
Ni 5.970729319828407 5.520207951060789 4.711450230765684 0.20210722041983256 -0.24754041305196722 0.3273734233202104
Ni 5.343481004795407 2.946993873007174 9.41632932312144 -0.5743813609074754 -1.043227678794913 -1.4619878786592369
P 0.07620768011041969 5.7663501125336145 12.77055039273568 -0.6960181945853819 -0.21732558003148375 -1.0157577555094184
P 4.004031136336541 6.011697305378348 12.655983669572965 -0.027466580851384953 0.4516273829059899 -0.8667271031995912
P 2.235984772523445 8.438456481174928 1.287255661157455 0.37103229766074164 -0.09159837833428741 1.4388669763710575
P 6.385224155768423 7.732244293662978 5.765755692809428 -0.7908366225188638 0.21034786316207 0.5282575699662193
P 4.810824922770884 1.1138865539723182 12.630822912493871 -0.9537646016360737 -1.3893662985377686 0.754028709661895
P 4.126907991783136 6.177908984790339 8.205041948112536 -1.1771772684019017 0.2123029300059118 -0.3106563676758456
P 4.530715919915968 1.1502112000354527 3.780702767743059 0.5732984122559416 -0.7865467368942582 0.7527804390770906
P 0.1764776151956629 5.430051281647687 3.644465922477323 0.6297053302907607 -0.26811669454142206 -0.5154437060310026
Ni 1.5859804805113267 1.2202858778548349 2.4056771498036587 -0.20930888037459436 -0.5670696577374105 0.4383116396336903
Ni 1.629965733354252 6.402496655960593 4.782121135056135 2.0578945152329977 1.0566544937237803 -0.3885080858480019
Ni 5.9069782560961155 5.813966926609413 9.270652225397118 1.0695370061134033 -0.028626919708073278 0.12319286531111688
Ni 8.775541246954537 2.3999018833952626 9.973970907777503 -0.4423783535038962 0.17912670036425923 1.1941280373236274
Ni 2.595771312875711 5.153862919526769 6.918456590048313 -0.692975036883684 1.0280324591117134 2.154263061262419
Ni 0.6680699540854971 -0.08546274101359837 9.018975094851205 0.5223751430435133 -0.4202948913412955 0.5905173472373895
Ni 1.5369995725395993 1.1540053684877074 11.459663385734766 -0.5080654112890605 0.488583648415365 -1.2205569209391172
Ni 4.158860310391767 6.958631413717045 1.430160305791309 0.1684954459026582 0.3996291354618279 -0.016936370744022447
Ni 5.675913397353798 8.106493842805865 7.959486979376369 0.14502358803296317 -1.0717427555154704 -0.05902070150858222
Ni 5.144097452629418 2.9080494439651012 4.890830384827323 0.14069873540536415 0.3840173970664999 0.7448660693260204
Ni 0.87632915030944 7.2424984500865754 6.890479114580139 0.14971559419199376 0.0023538449441572367 0.2976895231025325
Ni 5.205662352634456 4.416466280831048 7.369795511780047 -0.7540924730202948 0.18267276584430475 -0.4093214230489273
Ni 7.98853133887838 7.14939678325577 9.07120092022305 0.20331281069215956 0.6639333982356952 0.011683606985515363
Ni 4.376383601253299 0.38337813776432217 10.651482017695026 0.8379790845326214 -0.643522438679511 -1.5687709351537626
Ni 8.213408089549759 6.920500020771884 4.832958475449145 -0.39927843699062854 0.6817570566806774 0.5191342675087124
Ni 7.0691230192873515 6.0244077696934015 6.959167114167566 0.6495809861687651 -0.027940692274326072 0.3795639892808367
Ni 2.6148234587466765 5.103039129735374 2.595661101315908 -1.6122644875610233 0.7249212507729773 0.19247946752208142
Ni 2.2919126222565627 5.334167224618563 11.231667286571568 -0.43286450047619 -0.30027039645583126 1.0127210255656236
Ni 0.9667721891033433 3.102708353034593 3.8233564481339317 0.6133235464986275 0.6513558186810007 -0.37404897299987844
Ni 3.7447087563593353 2.884760476655785 2.7616731351974346 -0.17603366326123232 -0.642136614075578 0.08974409873436803
Ni 1.1322431022937032 3.421563042774558 8.079421547525584 -0.2448548958000041 -0.036840308756801075 0.32495504368670486
Ni 3.553708509725947 2.732578186782727 7.278869168195202 0.23990166555978687 -0.4349650917589606 -1.2934284122878628
Ni 4.078947895799753 6.948098079394833 5.8099423979296985 0.3254414964048201 -0.13684362332533206 0.8445441393446488
Ni 0.6612594217136997 7.518885554364517 11.383546042968447 1.277837242717825 -1.7339067205555685 0.17766374266548757
P 0.057302784110339636 5.462256544819803 7.979253693639176 -0.03848941432444984 0.5458302887426599 0.16278425445049383
P 8.578922017518048 1.495859946035865 7.981726226747229 -0.211393530817765 0.3649930334451972 -0.7805288128349526
P 1.7069241167941536 3.292967833446351 10.57216492620064 0.3007370516796047 0.126308271011647 -0.8954802640728836
P 4.122382090843661 6.1302199008392595 3.823884921596924 -1.2568950932485192 0.18299955305610419 -1.1881317105308762
P 6.953319577883888 3.993714611640172 10.261294250932348 1.235842643453594 0.8359435421598312 0.657884620938454
P 6.405875272629982 7.935322643202712 10.524883263671457 -0.735084050238592 -0.6654938007442797 -1.3340400151616378
P 2.524287372488349 8.474437845330478 5.827487716901055 -0.3672987987602384 -0.8804562798602256 -0.7726738355669079
P 6.915603736721593 3.955221869318606 1.7758966790154997 0.05327685704626954 0.2921575375407098 -0.12761002054220602
Ni 5.454866950072315 2.7827334802277712 0.49055978304675624 -0.2660783239551546 1.5519204392553272 0.7648864783120053
Ni 1.4999341602548337 0.9108172381669951 6.876755065264268 -0.802060002038509 1.2689525386336855 1.3106311493193943
Ni 6.874861594531905 0.793106775429554 9.214631328199575 -0.29878429882860796 -0.04744636640742152 0.12785941754885077
Ni 2.6755843563892143 1.683716453094528 9.174886510288765 -0.12569069203230612 -0.9413693132955142 0.6842965352730797
Ni 6.381429987316169 2.076557427653462 2.9473732898523997 -0.09934022706323536 -0.31398748893160766 -1.472949262766747
Ni 4.0891289144799705 6.785617332294226 10.54844504975996 -0.14582525799865206 0.8742522079320426 -0.5193942060383183
Ni 7.7388750547200145 7.5113062511944175 0.13329907483556228 0.8410510385897257 -0.491294876698941 -0.21226950566481506
Ni 7.622818668753069 3.727192345338093 8.081524600896262 0.7345186646534254 0.3562363702984897 0.6955661946496279
Ni 3.0510353922086466 8.453578952577487 12.55286720477509 0.23775710841295827 -0.6322550932958079 -0.2963492070245542
Ni -0.024285388214753758 5.248048634486788 10.27787386369526 0.7453386380870647 -1.797786035708033 -0.45129982436324206
Ni 8.585128193057807 2.317676832794255 5.825662902550208 0.06106087186706258 -0.13418767375972374 0.4686766250787929
Ni 3.6127620315649702 2.5441254532529953 11.372161730864802 0.31715688779852474 1.1045284345869235 -0.07611056711133343
Ni 1.0057617868174664 3.492631431379055 12.720069884851872 0.06104621657904325 0.08383956032447497 -0.45021456171886337
Ni 3.203145412206424 8.22114096620483 8.07608990627513 -0.29077994046689276 0.3315689494587967 0.28393334985870455
Ni 5.635749414166358 7.772299872037497 3.7006846584584467 0.31970896479641714 0.6060051584603434 0.19731237013435052
Ni 3.3323820166777502 8.27584022805817 3.3113424492365566 -2.2594561475620054 -0.20975753787623874 1.5954309609434523
Ni 3.4054287931180656 4.224671065569567 9.341282477882721 -0.6422029485371391 0.6586603227622141 -0.3289525948818722
Ni 7.223789586123194 6.051779984956097 11.410386171274387 -0.6162350637184677 0.3017708922607577 0.7250153531486804
Ni 0.5857292716840399 9.234915675444082 0.11950456239129302 -0.5770244549572772 -0.6601369073077404 0.8019995811142188
Ni 4.6753460078221565 0.37908169367886413 1.7699208637031985 -0.6979640054578431 0.6456567114136945 -0.9369927814943734
Ni 5.9827622540627 5.439256657011611 0.26671016797781016 -0.2874519045349243 1.270680834178702 0.33812243430659833
Ni 8.116982008456025 8.99877385796327 11.177325760600871 -0.6388957385407771 1.898569165865382 0.3256199309642134
Ni 0.19025406017111188 4.699881630480071 5.795186696144192 -0.6069376975769419 0.3160430859090557 0.7527927803722648
Ni 8.109357536613874 8.77853141304429 2.2687654845774854 -0.24452450904377887 0.7231425616059998 0.8247749271375214
P 8.509976556499932 1.328510016088198 3.743695171358519 0.4789088443297623 1.7916395564906629 -1.1898520356560927
P 1.9961481576688909 3.2775020801362076 1.5250669127572578 -1.1265681879957825 -0.7278042287477271 0.5553441417703661
P 4.75866414028679 1.0523035864984587 8.329604498400062 -0.631417684996177 0.2573730828716729 -0.4481818475595507
P 8.35623143057392 1.8212098908167142 12.40393705928968 0.13363231547688598 -0.4457297864746324 -0.2052318820917433
P 6.219635804030732 7.870839846983201 1.60475438736246 0.32282976981358597 -0.5635048232042876 -0.8189536924700542
P 1.8126007419238597 3.2412135690107133 5.9776609042413 -0.05091067080693813 -1.4937800834691692 -0.13740618069702143
P 6.8197738820989295 3.9883576071349647 6.031632047101183 0.6439777810493748 -0.6298480265162121 -1.3450582206490125
P 2.4424507724669766 8.377162593202193 10.388884005620707 -0.9248222075701105 0.04237743652494637 -1.1536737859633228
