# total energy = -340883.8015607878 ev
CRYSTAL
PRIMVEC
9.14145892041103 0.00000000000000 0.00000000000000
0.00000000000000 9.14145892041103 0.00000000000000
0.00000000000000 0.00000000000000 13.37944916285521
PRIMCOORD
 96 1
Ni 6.741853447522861 2.1390374191646906 11.262419198398652 2.00336501672655 0.3326045898121627 -0.5526642809453578
Ni 4.828893451244162 0.5335467402529078 5.581477776796047 0.027331855045733572 -0.24490348964975242 0.2809686108034258
Ni 2.6244671757492184 1.950001188205189 4.691289811137577 1.4682176616190328 -0.9100471061434651 -0.7616893115309462
Ni 3.6898493751275323 4.866830506154067 4.671795649789294 1.2775004282036966 0.26806835780198995 -0.5796536650500081
Ni 3.7678077376026335 2.9773457766244387 2.778242970998241 0.504551484598531 0.018536882461922914 0.08758257230667496
Ni 5.360176766245096 4.835968940521336 2.518935430448876 -0.13159960131757337 0.1333376670546026 0.4397100626431137
Ni 5.565932725742 3.149378893817091 0.30334926178910987 0.4390356622839084 1.4777045180635453 1.4050955363475672
Ni 5.870288462168599 7.834074970567556 12.738894637947912 0.49469361796784483 -0.03977702278762182 -1.412107705999342
Ni 2.0652109961641134 6.90043947850528 0.12623989240574168 -0.609605474217092 -0.29856189840515673 -1.2525949232112685
Ni 0.4838592539258478 9.08989204413458 13.13203679505221 0.3216529758966654 0.09259750902276309 1.1889817172359975
Ni 8.412372809279729 0.2646379253006819 6.332774070772796 -0.4462843734265217 -0.9933760453801086 1.5862258974054164
Ni 9.058683103059298 2.3951353934540873 1.1857057395099129 0.49465685119263836 1.0337012273617163 -1.3853738895489238
Ni 7.076686808303586 0.9137317933501468 4.65760079223168 -1.0723068555490567 -0.13736247194327955 -0.807068510996694
Ni 1.331837446731065 7.837932666271647 2.135119389831104 -1.5231870758763766 -0.801638084009742 1.327316066174243
Ni 7.89175757694864 4.363053841327569 3.721400206769953 1.074577396750788 -2.429665490831977 -0.08656287279290899
Ni 7.74421442845566 4.052161961705648 12.643405699520827 1.3394023079148158 -0.45720153455965773 -0.23232488165379345
Ni 8.343071408491298 7.448707624355033 9.26241880011401 0.9399719187273554 -0.6217652495080777 -0.48205304638569885
Ni 7.0472787346541494 0.8715896672936014 13.469760685173298 0.8183091169075197 0.6383987442997006 -0.5054606266763617
Ni 2.261304433482759 6.647321619854589 9.444472784678286 -0.4806782775253592 1.3078674705313282 -2.3140753775687823
Ni 0.27840313428461816 4.9932934501597614 1.2114060373830953 0.312750531200713 -0.9653476784879826 1.6009454630037785
Ni 6.324993775005611 2.199297916987846 6.756808874470477 0.7556377060202277 -0.010624055372749444 0.7415226067750842
Ni 3.5989741310650336 4.708546143319126 0.5436297695458298 1.0678130814437607 0.03399538310883823 -1.5908112027832537
Ni 6.688119951436012 5.873140597381102 4.8680591182456086 -1.5322802964268964 1.0245463003353257 1.046224299529392
Ni 5.373660418291387 2.9363371914856833 9.543066162586673 0.8794589489439628 -0.11011392063997165 -1.0060700959080093
P 0.30519675065592716 5.713238196300606 12.640274749808384 0.5092159799537359 0.27572047503060904 -2.506337586873735
P 4.177281111236221 6.298456119486706 12.45337762025826 -0.7533334833670833 0.2890413605092313 1.2743143171662312
P 2.447141153787208 9.089517244314989 0.8675966779960963 1.2041964773032228 0.7816439002760022 -1.1518074221785453
P 6.468615237581399 7.937583710988004 5.8989323098444295 1.348293953977491 1.7241915501503338 -1.6088467201287258
P 5.167803902745327 1.6125716530643641 12.428758756986484 -2.113511847486986 -2.6485604722331093 0.24405579693747645
P 4.188854198348496 6.396004628629742 8.370009459915034 1.1772454026356756 0.35954255185358724 -1.1228508870451954
P 5.133377168096963 1.4649919387353254 3.6232081389123008 -0.06990443830062155 -0.7504183666028174 -1.0078819523057674
P 0.3153730228307962 6.154021067058633 3.2267750565628046 0.8589271475391981 -0.7471918892457197 0.8788822505048863
Ni 0.8796067268492609 0.28693942871229755 4.390680244615093 0.84709827322507 -1.8450285136347644 0.9363080967225229
Ni 2.2563314797789062 6.873179647724235 4.507844496511304 -1.5412261927662747 0.872243147921814 0.721221690434203
Ni 6.489631451855585 5.992171535208061 9.232796816323637 -1.1367734106635585 -1.334745782979411 -0.017501499218873083
Ni 9.060730789878532 2.3053297000962782 10.058937891835171 1.04974825352225 0.7144818006072082 0.3038624846824638
Ni 2.7349691323157086 5.820531500753029 6.76241533128403 -0.37438321641084554 -0.5423181618243434 1.2936199594733786
Ni 0.8806214287998632 9.069131790712797 8.921657203162425 -1.711983695230232 -0.26917058972723323 -1.4834180235085548
Ni 2.0618286563287724 1.3528993683003232 11.803979341623615 -0.992841255922561 -0.7362631581483579 -1.4760443567523032
Ni 4.0712036208327165 7.179994436625717 1.2647958146110014 1.5419016215667445 -0.12486022571121076 -0.43208391355642356
Ni 5.949746023922068 8.036512580442219 8.22310347111536 -1.3414147103591543 -0.041143049897213006 -0.7793574182346706
Ni 5.620342689795916 3.312435098257568 4.689122371205254 0.019706477289991867 0.26517175298048523 -0.34088457043276776
Ni 0.9672577783173681 7.721287649247456 6.684118734825394 1.711629397214607 0.19169579527852146 -0.17926528282465257
Ni 5.216290201357889 4.348491497117574 7.597359631826466 -0.45653613306151697 0.6555937680217484 -0.5815732506702243
Ni 0.5984876650914541 7.588773059374207 11.361962373898638 1.3240021713096617 -1.6127367992117514 -0.28318490172845423
Ni 4.484616963301526 0.9249693889165918 10.33066044787204 -0.3329383190024976 -1.263073197034773 0.6529630152671206
Ni 8.410699922280088 7.640202907789418 4.508834516522567 -0.15673779114609782 0.07164764624397338 -0.08596097754285195
Ni 8.004279795957322 6.9938194823377335 6.923811446767486 -0.7740408911177638 -1.2961890057521352 0.6048764441725389
Ni 2.50479633579125 5.554085394859292 2.3833081737812116 -0.5894698798094816 -0.06444675762015999 0.760145106972278
Ni 2.218522405295203 5.6090986952081625 11.351633439358228 0.9916024984194537 -0.9039399648044626 1.9769289340222083
Ni 1.3704783939850818 4.106800462234927 4.045102927054702 -1.1710932669913507 0.125332537361939 -1.9807897025291954
Ni 1.6336701404696803 1.318893140766625 2.4519175661222503 1.0608042542260956 1.2113793682049074 -0.8456389150707243
Ni 1.3910466767675607 3.3708398799007937 7.94569401342561 0.10684681985292567 1.0965261331077374 -0.5590154199743663
Ni 3.7176028446953566 2.075641400899584 7.083695564929954 0.10357766218335064 0.6016790202811637 0.10584846049539834
Ni 4.580812536510425 7.197747150031749 6.030867331216164 -1.5300388086908874 -0.6310718716209842 -0.10347816049100889
Ni 8.392627257808549 7.121553089146434 0.5263597251757591 0.255130052473767 0.8168096495438578 -0.17949719632980055
P 0.5244061953843743 5.98262785199699 8.189078960663633 0.21032292346140552 -0.272533335551879 -0.8886593844963083
P 8.818838642897568 1.9334734303070906 7.7675598864867235 1.0307516578150893 -1.3174471437999633 0.4454004281596716
P 2.2252962264248994 3.582281826904675 10.196010413173019 -2.764713399978309 -0.7377888507642649 -0.19784047472367863
P 4.07487848735652 6.787707005939268 3.4393212918156304 1.465794911110153 -1.8817852615388235 0.08454352837003504
P 7.21141363125833 4.266044678266384 10.444840927545938 0.7510053494545389 -1.049964483298114 -1.2484461911502178
P 6.636068483807819 8.234955372727574 10.309039983157 -1.443734588876004 -1.3235450291675852 1.4443411121117513
P 2.8206794520350518 8.852140978087153 5.673542324676323 -0.8440034363498304 -0.5802401336810975 -0.957210908313461
P 7.421603198377234 3.9923951026692728 1.4766500414164343 -1.4433183272741918 0.6231526167739074 0.5729932223106969
Ni 3.2173730659664583 2.1777240737137795 0.314915035734173 0.4344786390408452 -1.776170514320786 0.7762093595239922
Ni 1.452833798246127 1.1689366470938334 6.563422223166006 0.09115666281117848 0.5721385876198856 1.6358170780699828
Ni 7.50255995940907 0.6788630293299724 8.863001945542203 -1.3201334323828746 0.7063779405531511 -1.339874105344912
Ni 2.404797915632345 1.6173892019649714 9.124249303694432 0.8290617274383336 0.5074773999960743 0.8277718049823163
Ni 7.045029935736598 2.0079031896026205 2.342125900921182 -2.830808234724854 0.7113980194755618 0.07435784608628485
Ni 4.47394888063168 7.255018390757185 10.552050130575429 0.5394439256003419 0.21330334624596814 -1.4978192865355495
Ni 7.499122770819643 6.284780496801111 11.488424403758431 0.7927333253209444 0.809000437912084 0.4168755812471014
Ni 8.056093585651139 3.7777902108463963 8.419928225155159 -1.5480136480017532 1.7325124113112031 -1.1307369746614913
Ni 3.7229231738417576 8.663945761356981 12.330487158435407 -1.3791865297912893 1.0574301955475403 0.8610326239179752
Ni 0.1649905371679317 5.031906973036735 10.175579252275755 0.33679805906821997 -0.29317415173068223 0.06916781724491312
Ni 8.590329591913735 2.6145761170956 5.78380203257893 0.29872079258052425 1.6304072199083213 -1.3998983084173438
Ni 3.6874817372427935 3.179033786859918 11.614325148034737 1.461881949208992 0.19509247966489626 0.20309709513692764
Ni 1.4158200306966793 3.610455803587164 12.506373400602644 -1.3526224061495156 -0.11025353154162948 0.5983599832102598
Ni 3.1199982445446968 8.575611842900495 7.802065237682609 0.903548900013631 -0.17184636465276212 0.6339103695110437
Ni 5.798866242888818 8.177492161362835 3.516493488815491 0.1286232922980688 0.0715651138324961 -0.08105634115238299
Ni 3.2917571179669163 8.699350632119886 2.9912572489526057 0.599224130982768 2.025619714359692 1.3381553228815923
Ni 3.8925246629365704 4.65492234474045 9.622473446315563 0.49595602962003615 1.3983705589189077 -0.1691410499064571
Ni 5.545163330861203 4.883559376150483 11.502406265321008 -1.2417019304478485 -0.5278035131479362 0.9217962762595933
Ni 8.547236754119687 9.287173871125102 2.131319285318803 -0.625875157911393 -2.6675794365377734 -1.178947472928447
Ni 4.961517738625586 0.44423742811958217 1.2707533034507088 -0.7560174579571497 0.6413657973478245 0.3134727540787182
Ni 6.331100269627253 5.718905900889554 0.43526417195101275 -0.5127630738750459 -0.3998001138220534 -0.02952166360820077
Ni 8.4228672042283 0.12552685860261575 10.806460591530762 0.08103705787867334 0.860282633125828 2.305864816733532
Ni 0.4554805085614358 5.215403479833489 6.1018580736304635 -0.5763744800781041 -0.5367213844628563 -0.09920035905126141
Ni 7.368756423814785 6.27954244078584 2.664450089186554 -0.3964949607082203 1.6930164100991099 -1.8239467532638007
P 8.728146228015358 1.6213840195542795 3.4837405553126715 1.144826619985338 2.946439742748945 1.6481414039632907
P 2.1007438473532223 3.47630489255033 1.5350374542875322 -2.1509530230525793 0.22511962215460582 0.2841120415284139
P 5.340760307298436 1.0164845351101006 8.272058726575363 -1.2079430888298488 0.7712571577250394 -0.05399985125522313
P 8.784951254331057 1.7059516568968178 12.296998337481927 0.4392102401885597 1.5348339160866855 -0.034134479789863795
P 6.675568728209193 8.250047921560407 1.2783196890769568 0.13597227646397228 -1.0237639136433465 1.8681062213898343
P 2.3221865505188957 3.672690856557437 5.797542559623527 -0.09978888456487976 0.6056961118603569 3.12515429527645
P 6.919499420550377 4.31432986478063 6.273062060490507 0.9124917110292156 -0.5581556430772323 -0.02363615136170123
P 2.3737626622783385 8.741035685225711 10.244163048531556 1.9247226843322982 0.11419888934262269 1.9417187046696625
