# total energy = -340891.57885375747 ev
CRYSTAL
PRIMVEC
9.04951565974606 0.00000000000000 0.00000000000000
0.00000000000000 9.04951565974606 0.00000000000000
0.00000000000000 0.00000000000000 13.24488090709816
PRIMCOORD
 96 1
Ni 6.5860202164267045 1.8047267836828158 11.20128852235049 -1.1963492133446623 -0.1453082091529175 1.25511717541249
Ni 4.46589971739342 0.18054145468633115 6.0199576356712825 0.41420883304821565 0.8441116797929205 0.8831903909619371
Ni 2.666005375005139 1.4536598781018986 4.968604830000336 -0.15624619622165994 0.48509131899139035 0.3706620588055165
Ni 3.4042015055653327 4.3967252206604055 5.157543330149588 0.49952574924916554 -0.20886845040306606 -0.12236368454160217
Ni 5.20201445938106 4.40273409897421 2.5260102746636885 0.3497325077417009 -0.24875114553061678 -0.015769604129430907
Ni 7.159967640065889 6.075564193765912 2.5534140176002285 0.4087259555567735 0.2147735030335914 -0.7546550303919842
Ni 4.873688986334165 4.665124801848848 11.072005333545258 0.5997614915434767 0.6543776362264601 0.5370281170699978
Ni 5.755464730338367 7.70364443424773 12.653828070429421 -1.6881251434450797 1.3608792468416693 -1.687516049106171
Ni 1.8974662188633395 6.8048827495883915 0.3241445968707241 -0.6933010527645349 -0.5700752773329536 -0.7384753353083282
Ni 2.3792805248627 1.8330065197229346 0.5954391180781212 0.8606490153263112 -1.0580264343706425 -0.740132668406093
Ni 0.6374650682126208 0.0754494308034835 4.705005111850512 -0.7677208624370068 -1.047230886417035 0.4718791911764905
Ni 8.877429945465547 2.37909048503651 1.3213224778043358 -0.709368647750359 0.8705883859272103 0.27234127414573095
Ni 6.6979355750213125 0.741407803622798 4.900340714529927 0.24884473368568755 -0.3381010941503596 -1.0521936297389491
Ni 0.6002435058745048 7.39214201057638 2.509136548001159 0.981976031073283 0.11483420893377642 -0.2685494112034665
Ni 7.731897021741251 3.938991675493927 3.6562096992691457 0.2865587032966936 -1.131392091746987 0.005716847879119187
Ni 7.724874597687768 3.6377966500144803 12.502001633480338 0.2527975476858485 0.06500417278552675 -0.32492444755908556
Ni 7.793506123488811 9.055940688866311 6.98031665770799 1.0966063515263695 -2.50545261316562 -1.35448234217639
Ni 6.790313029580522 0.6749735001931277 0.37272420615410506 0.783619021724502 -0.11567187434372338 0.21223685265466674
Ni 1.6092391491424496 6.816411832377227 9.387295939713601 0.12054848570973434 -1.1869978540367492 -1.435503202105147
Ni 0.32621693592774403 5.2507189519787945 1.180702960891119 -1.4392086759811924 -1.2336682615100947 -0.19921652913559884
Ni 6.403699626986618 1.8676933127603024 6.99643565477508 -1.2975380635808622 0.7582512323836748 0.027440869819772097
Ni 3.7320021067113234 4.44549305986687 0.6159091222134008 -0.6504219940128217 0.10874455109627078 0.236708869654102
Ni 6.043166928158352 5.520964634335935 4.6465162830586735 -0.18200247925015753 -0.17573053019851673 0.8183952488634227
Ni 5.049747311025528 2.8278559603099467 9.590684706265687 0.7486682166809301 -0.9806717104395627 -0.5743078273570625
P 0.23410553712519924 6.000715650793809 12.259514435068624 -0.05588112743833602 -1.505030459572008 -0.025082139779608416
P 3.954511594632744 6.1944929268984685 12.514571410555451 0.6394284711157955 0.3208855016030216 0.5808212029955481
P 2.3272367610333484 8.658558362788328 1.4182753674169488 -0.4807183867346754 -0.3307035161347079 0.6558323663951157
P 6.489534281815587 7.71662143952182 5.828410160193913 -0.5069204990513398 -0.5225741464281968 -0.7643930836153545
P 4.541788954651799 1.184672078403822 12.479737110414899 1.1732054282383473 0.24033206822898612 0.8997608937261085
P 4.026590985851799 6.110196689710083 8.267785802855531 -0.3405523839043296 0.8094526949581544 -0.08566530067930407
P 4.49335594752005 0.8513494628796936 3.970709322484971 1.265560739343317 0.6797580239727777 -1.8427690281766265
P 0.38443337430204416 5.403990596558471 3.5809385439216586 -0.43214716269419123 -0.40396041584733006 -0.1187317442159697
Ni 1.5578650494625281 1.1751067404856121 2.7117832542795535 -0.6051083576776869 -0.3948548540016361 0.4062620673973132
Ni 1.8495309350858968 6.354986084873351 4.969029252278826 0.294861309625118 0.22766552850491112 -0.4268946560460003
Ni 6.1701225815685365 5.527959909842819 9.014346400622728 -0.9162889732881186 -0.15012439959463822 1.7532946381638774
Ni 8.554262696272371 2.3668917380982446 10.141313338279854 1.0608672462535471 0.258688973469619 -0.6085631489955068
Ni 2.0751534563506135 5.297106768600122 7.1598246577204705 1.3346470526180174 0.48977612606156934 0.07789645536716261
Ni 0.459370602526369 0.05721737185947479 9.258463416781904 -0.43261458924891294 0.36010125257053466 0.37925854222527583
Ni 1.7573344708373433 1.356658121105408 11.386041621565802 -1.082765074767903 -0.6705796999076193 0.1171919105326756
Ni 3.9509913330904705 7.05540953759948 1.3310443723412635 1.7495020038906643 -0.8840900199580709 1.0879993265836487
Ni 5.700226487525923 7.800266111591841 7.973987851372626 -0.44622755204665737 -0.4200802042273281 -0.011504915315805992
Ni 5.230158452688187 2.835946227196304 4.80533528065998 -0.03550873442957111 -0.0032138789516073683 -0.18730435107904517
Ni 0.4932221252800561 7.364604334809955 6.960012259706961 0.2515199665250056 0.5102703893601792 -0.3485613702517352
Ni 5.050335529535163 4.776370496294025 6.958224980389225 0.42990413229628544 -0.575224682744377 -0.44815870763109916
Ni 8.133188738529418 7.086874703107156 9.092094408371551 -0.40719769183770516 0.9729334612550404 1.0508507425578095
Ni 4.767167138997129 0.30430081921031704 10.550434695907034 -0.1863630702116984 -0.847328129847689 -0.8850153599858177
Ni 8.35454893797817 6.877848993329665 4.595377470782605 -1.0666956800098664 1.2396435052569232 1.1983904121444071
Ni 7.237132859014399 6.026253383627478 7.073455176523511 0.8404802536879202 0.004143846965044476 -2.0609932087629796
Ni 2.301373245640498 5.56431181373823 2.50948133454296 -0.14262037790810922 -0.6792543448634818 -0.07212330032881129
Ni 2.4562738030160856 5.302355487609168 11.290942977685868 -1.0161295370265402 -0.5655910163093549 0.20390416441925527
Ni 1.2514484535206336 3.269418021219244 4.151714112366584 -0.37774930466960105 0.37959432829813977 -1.2633899569442437
Ni 3.574395744191417 2.5412397043539015 2.670326518672069 0.38337719237933976 0.4871016645531998 0.37326427231505394
Ni 1.083163662671978 3.086807847282106 8.331096213523265 0.21682807156977493 1.0249180818524477 0.005701935480783729
Ni 3.9269196217731213 2.6783308151608645 7.085110952529806 -0.6183652226875931 -0.49624142207093896 -0.8751029859681122
Ni 4.328075595828297 6.931367828190869 5.892276211115364 -0.8728625266733677 -1.219956568350957 -0.0010819202102691043
Ni 1.0346763584470322 7.774836972944567 11.457894774896536 -0.4440176888795321 0.7365122980446864 0.4462121254276896
P 0.2021607472942811 5.5518777793961105 8.092118417235186 -0.8760753771837105 -1.256538481240049 0.5074452612065583
P 8.511476586833112 1.636360547194365 7.986517810579393 0.7063280611518222 0.1829303903810656 1.0499505993410432
P 2.0875512926306015 3.2817072633128377 10.41919138203739 -1.2350160337872407 0.9728000210009697 -0.5111041981153843
P 3.9677691348883517 5.853977756428841 3.7055069351342804 1.6217078923621104 1.672539887412313 0.6346809291284812
P 6.870346944952941 3.7880548059217225 10.234756825768832 0.33932776746860915 1.078890165193529 0.39770363630434086
P 6.296091837785641 7.557512857423462 10.458396598180306 -0.8359815944866185 0.25802897128811686 -1.6388640924264226
P 2.237130734872881 8.310504945879845 5.95813044059938 0.9261964622098179 0.07951959279288241 -0.15021284554338643
P 7.182021309419415 4.156388187139294 1.3337465576793688 -0.13895784145485746 -0.6873242663558098 0.8968771444204102
Ni 5.6271516495982565 2.7398765702996957 0.2704357221833307 -0.6658334434718857 1.0330970181188144 0.5845410750492965
Ni 1.6256459208034846 0.9077388040679136 7.299465922004587 -0.5043882195477893 0.47589988230010943 -1.3188831049155414
Ni 6.911739429000143 0.4025568390596588 9.056200409962104 -0.604488721815817 0.9572834134226094 1.824897032992212
Ni 2.907591241669782 1.630985134967859 9.263178214374513 0.11621514844170308 -0.6173295823342271 -0.5316869073627424
Ni 6.1926015781521055 1.9271214812644497 2.600976461337719 0.5151809392879192 -0.06456502836557913 0.1939408825589563
Ni 3.8289224180680184 6.959692811808651 10.4085292428366 1.6014601978566678 0.8870316190848982 -0.6322417235593691
Ni 7.955293362184889 7.223404743951083 0.37634672722190016 1.053097115389825 0.17023454008095198 -0.13378863854909218
Ni 7.695201236255592 3.651588111686525 7.876266657891275 0.7128108406626885 1.3186290799232063 1.3368587155573555
Ni 3.0519672124806796 8.710276344058498 12.566451378153657 0.8679576331725827 -0.8546339194804831 -0.5516648931465661
Ni 0.25775463606716476 4.830378004994003 10.325708981631621 -0.38912926437176854 -0.4262829906039304 -0.3562137445906704
Ni 8.65489330899753 2.142499950945994 5.80545606404487 0.25441759978777473 0.8473168169937794 -0.1558049949191833
Ni 3.4943889773655967 2.9953624928227778 12.006312610266031 1.198022230171711 -0.27064717427275964 -0.40852309551734806
Ni 1.178418863170631 3.488932119499295 12.515074563619077 -1.0461337966981146 0.8484954106829129 0.0773827489555377
Ni 3.277291099732813 8.229502732345413 7.965259593641203 -0.1891923121303774 -0.34488494984141244 0.7622636959771776
Ni 5.5412355491294925 7.748919160458519 3.7476523388738134 -0.5354296622346262 0.4638349807157754 -0.5553032612301017
Ni 2.9084237970988034 8.21256203926794 3.703718750864992 0.6783760560235865 0.013847961626685827 -0.5103102414591792
Ni 3.3499315609149036 4.137004124867955 8.85238812608308 -0.42063196296574007 1.2404343765893346 0.7135906562515065
Ni 7.21567645768604 5.831743096764659 11.342479063693826 0.1924200750390557 -0.18322658146524573 0.08116689858831828
Ni 0.4700761794017164 9.206615122488063 0.3584368310308605 -0.13928411444602465 -0.778206335349363 -0.006691038866930413
Ni 4.411756465960449 0.29194461070178 1.4644206570219962 0.8289396000381724 1.4365344715831387 0.3297563217300902
Ni 5.991964769273555 5.62623764852944 0.25213126711505923 -0.4128610607710696 -1.4142082972821128 0.5453734037108995
Ni 7.820410333167938 8.797504624279522 11.354783689963828 0.7428480104547271 -0.9296707939116634 0.2735916016130643
Ni 0.12635024082103738 4.773574195994379 5.8503172273958075 -0.9500894667773315 -0.6127982701227769 -0.025170071507724393
Ni 7.837170035934755 8.72415830088587 2.833675703749115 -0.7698505071855 0.6173020715304014 -0.2131220834730975
P 8.609862919706126 1.5935834872706396 3.55826407780258 -1.1568966637759948 1.0694953542421903 -0.03290446403750462
P 1.8066452809757776 3.619860510228395 1.5117840114177639 0.32919427857903305 -0.14601166297784532 0.37069831136009057
P 4.753828153101726 1.0744761277604538 8.221574451787093 0.9339853621266172 -1.4575144162689158 -0.014338013889226918
P 8.701462115929514 1.5374402929049127 12.186707462800731 -0.395878410170144 1.003834264598955 1.221405899202974
P 6.239396622972412 7.875033208924149 1.5417306682190313 -0.5485152917739908 0.0951801821482748 0.5743893313272753
P 1.929782038831104 3.244350863193283 6.2525509987509444 -0.6897927825009604 -0.8686189209056653 0.041459809806683436
P 6.8547274811432635 3.8778712475851393 5.898435311387014 0.47150098190146533 0.08711463153132093 -0.5324890915490635
P 2.4554955446802618 8.694258701565374 10.045990266414705 0.36905203400591924 0.4985075923972963 0.8274105649881557
