# total energy = -381170.3920598028 ev
CRYSTAL
PRIMVEC
9.25314128226589 0.00000000000000 0.00000000000000

0.00000000000000 9.25314128226589 0.00000000000000

0.00000000000000 0.00000000000000 13.54290758844650

PRIMCOORD
 96 1
Ni 8.048002954458553 3.3580020030661677 2.2648886286453305 -0.3418986135195789 0.5391346218900394 -0.7027871378780993
Ni 7.9942236970190645 7.025586355780134 4.788555234438198 -0.6171454913478791 0.2633508977216626 0.035152893752049136
Ni 6.765832172221746 7.3938243683510105 8.965649009742254 -1.3132007098187835 -0.54810957169514 -0.17427888535365468
Ni 2.9462649730790766 1.2985118298345608 4.814043012245678 0.6322160125277564 0.26256414015430907 0.6705161936595355
Ni 7.275745031774044 7.786222332947783 1.0509865978646151 0.07213332763114029 -0.503183657716727 0.04248336597519135
Ni 5.741777767527017 1.4084113894713157 9.885740670280816 -0.005302128939203772 -0.8412307587006995 0.23021966238533254
Ni 1.8769164415491273 6.583591553627329 7.084836995691057 0.0030002202789045102 -0.19026754747242713 0.02588740928972316
Ni 5.055231693029361 3.6464964436113174 10.49387099853433 0.36763407061247005 -0.38693508493392714 1.0150584154495488
Ni 8.754322991989278 4.227982351390466 12.287819148302455 -0.15235020360136345 -0.36096565745335896 0.07446094732305242
Ni 0.6792657028952145 7.22261349422801 0.6390922644748277 -0.0936056385723033 -0.5704758552054819 -1.3940873581625215
Ni 0.42164066715802795 0.9520279525424598 4.867605746177927 0.1096755475509724 -0.7303185105291486 0.5374893729771325
Ni 6.54359947677711 2.6135590232349113 7.901460955134879 0.7111496509101817 -1.2783314087454243 -0.6402116291387232
Ni 5.8450428248265185 5.463711617266503 0.9086020349427919 2.5423430584340667 -0.5292240476445467 2.827096333090905
Ni 1.1580954100747094 3.310394590897177 4.670962613095457 0.7892551369643569 -1.8635527976911967 1.4608375671048777
Ni 0.8818706349398769 4.225687572339366 2.749264668741073 -0.7626239075300737 0.004950916247372119 -1.3231963875789146
Ni 0.36559439009144346 5.3983474268754925 5.107612800813119 0.10073659319012974 0.7537579724990114 -0.03438053436239886
Ni 0.4113141614280778 0.6363089195612354 7.361707640091078 -1.4898732922155953 0.9362659306306779 0.4606236728673293
Ni 1.0483439006993158 8.054415381403764 11.302829655696168 2.3208070398656613 -0.0019825776476675534 -0.2207140368877425
Ni 0.8887364658105069 6.574680778521646 2.89258935082254 -0.10920375012087646 0.9150499586746951 1.3118935609715858
Ni 2.69474608530891 4.569987708276388 6.075930908675989 0.2308308136067702 -0.9214291227281614 1.1300090953565312
Ni 3.8049657421159115 6.501423658571811 5.428051861189369 0.5827641856545318 0.38853662509309217 0.9934842888231986
Ni 3.742636582082807 0.9731713804931194 11.125160088921284 -0.014306132210026974 -1.1984600890400778 0.8456610265579113
Ni 9.165403048941577 0.9185463859356033 11.008298465744014 0.5940299883763382 0.3669750968722325 -0.3669409012001874
Ni 4.442960584028398 5.104301101529295 12.93312489718379 -3.0597366891025883 0.554042135129491 -1.9127714255076929
P 4.444015442140597 1.808063816874791 6.850287443815295 -2.3557768710726266 0.8736919645531984 -0.10926159994200538
Ni 2.6151228041205394 2.739105644869287 10.266458394570314 -0.3336440868202705 1.186955430834588 0.3379072329719987
P 5.627427446908088 2.341738743375577 13.17027458177471 -0.773327409990507 0.44304684032583047 0.3016423371026934
Ni 4.138430449549554 3.2519610033661412 4.159785774436787 -1.124667885649276 -0.2809092183204001 0.3359927895581052
P 2.6169364198222156 6.3815214531518345 13.070869935040202 -1.5198942640577178 0.1249008491411591 1.9296345198116185
P 6.2731671681180385 8.409985843486915 10.905819000143861 0.6283287616582083 1.0087936654867593 -0.6041963873863787
P 7.421093375865494 1.9763229389119006 3.7672166267253155 -0.5682739624581569 1.9783322421276377 1.2957125803363492
Ni 5.198479574037746 4.097642602544518 6.085031373179041 -0.23209991012718093 0.6777497352934974 0.9796142157093257
Ni 7.634535587041802 5.3530995657469465 10.155650176454454 -0.4977254628156331 -0.585643821195172 0.03615382421273773
Ni 6.422966273191661 4.239780106592694 12.47014674642542 1.0116604455115932 -0.8028058790655981 -0.7758432344338251
Ni 1.0878825736241162 2.6361089286685027 12.158727648222607 2.23132082277837 -0.2464587499520143 -1.0053671563037139
Ni 1.3669850757141588 4.44777221752264 0.5294665978215912 -0.16249577667579757 0.16356972646626666 -1.176241901071826
Ni 4.500755704807313 8.231390962578521 9.859778206322845 0.107353327175699 0.27174580665357717 -1.608632547235391
Ni 5.953517400697671 7.3596710236832275 6.828428748039435 -0.06046437593364425 -1.7725306035753539 -1.1913820991473738
Ni 5.574277403079384 9.131758627047224 12.835263674423974 -0.7711604842461751 0.7779332841936344 0.8624115065433727
Ni 4.522139714432685 1.5240571498771556 1.2416512763304892 -2.4842998903474056 -0.5867979894042732 -0.44023225369517094
Ni 5.898248387503234 7.629261296480807 3.281622873229877 -0.4707409638069893 -0.12992324205641495 0.07963760642798542
Ni 6.7918520056559935 1.0685342550924621 1.3147057524850856 0.6898506323220893 0.6587999336638718 -1.4279390166046442
Ni 8.401223118642593 2.8350699736554104 6.104722983254227 0.05993241468957421 -0.17842710319407334 -0.37769556861353015
Ni 4.712384300281946 7.431419881595443 0.7860858170956544 -0.3925776279316852 0.8002746280033121 0.39569946139011847
Ni 3.4090793432358137 3.96910721625891 1.7268563978898548 0.3350149990258682 -0.8129450243821289 -0.07938846653165682
Ni 5.391500102287533 0.8422570115702626 3.4249605097092126 -0.8669086230827778 -0.15692702433876843 0.5112540934296872
Ni 7.138243351534744 8.905075170620414 5.7584176915898935 0.8100381351479791 1.9896075579311412 0.0893463490753171
Ni 8.928504124480838 7.593146285849986 7.425793046349581 -0.7048550761507215 -0.6610869299258356 -1.3474691440833502
Ni 3.525234026415083 2.9131202208168174 12.531644974366635 0.17378111978162974 -0.2764118446706788 1.2408195278428953
Ni 8.685303810770911 8.108462979941972 9.760387439300343 0.4481337679304347 0.34609568232006205 0.6516052156876455
Ni 8.993636986338473 1.8699765855478168 0.13336089949185223 -0.8955553402851931 -0.1652126613863284 0.892625825343224
Ni 0.08078640105419006 1.352587187796773 2.5892140083823136 1.0535565715247468 1.5871849188845764 -1.70494478610558
Ni 2.5631294029587206 5.216217845977097 3.875371043906274 0.3515831877971945 -0.05315344409452782 0.10727310875706685
Ni 8.02710936132394 5.883794980737838 2.766816027225454 -1.3163058311066687 -0.9248016387448201 -1.6526269505384699
Ni 7.734525032308686 0.10932308893157928 3.12734154649354 -0.9386120622653513 -4.87641853327386 1.5004091587499127
Ni 7.057398655690142 1.5097332870904505 11.958319411930894 0.8211805249180438 0.33512144269674543 0.018227578751620222
P 7.9990630899373105 5.669057329774616 0.19430671489536203 -0.28342041477802804 0.45744681780124447 0.9044073913591844
Ni 7.430938718246019 5.210120025837279 6.45232834127614 0.2555910512705856 0.367398043342264 2.055053703350093
P 8.993590720631797 9.154197494784796 0.897041160158742 -0.2566845414450805 -0.1723616137262838 0.47508792792177534
Ni 3.158828135828553 1.2294833954748579 8.65394491478632 0.21997458761855665 -1.009596621004029 -0.8592878733127267
P 0.7907568028416032 7.7847695897581755 4.662199888251135 0.47543425551760055 0.824366121734877 0.9979988888641006
P 7.749792715511569 0.0822918871494077 8.20108414876373 -0.700939028925767 0.388144531860996 -0.7512400911731643
P 5.781288681027812 5.923583488478685 4.942769013242788 2.0297674179794787 1.6939687467100502 1.7822540015107047
Ni 1.7692376358327921 0.25478617197558373 12.868402874801433 0.072730594895507 1.1192204893814597 1.2069591276500244
Ni 2.1973157134176358 1.883643475299731 2.785586949737799 1.5283097418149227 0.8475448738441855 0.08929852655651717
Ni 5.443003086958592 0.23777704757343818 7.81060158442332 2.079925012670476 0.05105876634902819 1.1000876252067506
Ni 2.1343110740670705 8.968209353949671 6.38753969627617 -0.3177371857820269 -0.9123641843124158 -1.2785391538808561
Ni 6.0479272017395 1.9717426339510356 5.581262599473236 1.4520557071471896 -0.20701185681030154 -1.3797316036614817
Ni 5.19994157036869 5.987513441962758 10.380476527415313 -0.22049420756745253 -0.03647752610074363 -0.024821944139686282
Ni 4.34179598981196 5.86001440750668 7.855306286155495 0.3931414708549552 -1.4158237213983489 0.639575281106305
Ni 3.868784657903964 7.582977083522732 12.02828241356544 0.1513037646147201 0.5703331589800307 -0.5825201879645259
Ni 0.34937733458758086 5.915283420701117 8.959635393188584 0.23910308091789143 0.42222039049878257 1.5107542494296624
Ni 5.632840534589111 3.098580932595842 2.4612884041106873 1.0834554159667082 0.8712409319095447 -0.2039321894437133
Ni 3.7359095483322036 7.967676434528717 7.595322624691997 -0.80617685242036 0.371692814062876 0.8598820552532999
Ni 4.637766968555855 9.003510088143004 5.673597846227741 0.396528127939001 0.5938608097883257 -0.3998543640987565
Ni 7.09722417599633 4.311732533614282 4.3967318899183345 0.30315800241627144 -1.4484949863791245 -1.218511351263998
Ni 1.8200003691970454 8.763937005836427 2.2140352144959934 -1.3977046432001348 0.18624865612102118 -0.3619172227333509
Ni 0.5526216586984974 4.508158217875378 7.258537890147328 -0.5551960462282761 -0.8126020392204134 -1.1544289189617924
Ni 7.791977786858203 2.717703128961246 10.10513542727798 0.38805839990509294 1.213410282592007 -0.26708722483564323
Ni 2.374004447211004 4.469757681334793 8.772432314896164 -1.6095242058117247 1.3779809395189624 -0.3031536315408973
Ni 0.7206661078566331 2.5796185008178347 8.614779143457325 -0.8424479189372522 -0.04344110190277034 1.1097254054068306
Ni 2.041465053910869 5.047551585721243 11.578319731408996 -0.0317423254086034 -0.8630347419496684 -0.45316567392738727
Ni 8.86684119062386 6.527711833104775 11.84883901959662 -0.16376847274063408 -1.7775134015019258 0.20603818004312255
Ni 3.1434771743536545 8.271225736026043 4.149696149125015 -1.3621845959166539 -0.7570705818120123 -0.17160750916907866
Ni 4.214990940956012 3.4971877550284534 8.349283385700518 1.3491074510177217 -1.3851196074462728 -0.991463658848744
Ni 4.802389606048278 5.346936973617783 3.300041251057355 -0.1929638633576677 -0.1671484449564605 -2.463542860305712
Ni 2.041409535062859 2.3078167272411707 6.790142950451403 0.8225236692094995 0.2606538105054737 -0.8883084289147928
Ni 6.449920673900752 6.9047033173786385 12.368629607524117 -1.481818283121603 -2.973429126853595 0.6810302058169819
P 6.314686013288545 4.511359804777316 8.622620255424673 -0.8213396762037274 1.800793197965473 0.5188226498055645
Ni 7.930071668142949 8.508587317553536 12.278839899950894 2.0598999756988006 2.7154047835511688 0.3414553553345732
P 2.4284961965332945 8.857199417352707 9.859263731664615 -0.317501415622137 -0.32183989509649086 0.511663413052964
Ni 2.771112260747332 6.2536985587490275 1.7095622767345888 0.8497282546487496 0.34227553724302345 -0.6338054685020632
P 3.9029287494304117 8.794018968316774 2.28462095254239 1.9814767012938905 -0.0037838925224644507 -0.9016020606999052
P 0.584011090049492 3.9279770030244756 10.351507717837578 -0.667805993817224 0.1436778726383461 -0.9974949526444885
P 1.9818470642889439 2.238436673510735 0.7247393406723356 0.2080770648500223 0.64323627489766 -1.321587905441214
Ni 2.632703772657193 6.555128890880621 9.775622736508552 0.3404235716359492 1.271424397212946 -0.33874155594783595
