# total energy = -381165.9086720603 ev
CRYSTAL
PRIMVEC
9.24024374483299 0.00000000000000 0.00000000000000

0.00000000000000 9.24024374483299 0.00000000000000

0.00000000000000 0.00000000000000 13.52403073871288

PRIMCOORD
 96 1
Ni 5.014763417630611 8.046459654535381 6.54200660461258 -0.6676211314999276 2.0927902986689184 0.16755313659404691
Ni 1.561296257085826 6.187045414989311 3.8137359461487494 -2.0009769761103473 0.7782137915485308 -0.3626715844008722
Ni 8.83486496766359 2.407065003097312 2.1135218652924337 -1.1996556520100758 -1.9364263459224715 1.1358221024938826
Ni 8.964930637970454 0.13323414987124596 5.676887864271057 -1.5405883020719597 2.510462407675386 -0.183495004635284
Ni 2.7825977472676233 2.935727065847147 8.7442052406354 1.0670983147649236 -0.48109016825179723 -1.2153072425044038
Ni 2.1747190752864194 1.6474245686040336 2.8131746376919238 1.0851762553125568 1.3310688483484558 1.2200020768769118
Ni 1.4221566674665609 2.9506038582025074 1.0314292665576439 -0.10771533850080803 -2.2689710290309764 -2.455124297224714
Ni 2.237035278792351 5.722806331308776 6.320929153992596 3.2324682845737813 -1.035537509239507 -0.12801676906232148
Ni 5.043796263332811 6.016239510213636 5.973509851276435 -0.6073585871644444 -0.08523772622358224 -0.30777647502488925
Ni 3.380441514591734 2.2711225377978943 12.67825100779363 0.03177163598464206 0.9766829009951438 0.45598103188899536
Ni 5.359184261266452 8.327242939816335 11.761632693220204 -1.3640707571957733 -1.554249087388504 -0.48836073377128153
Ni 5.896846321379095 4.147501864775294 9.681096649884394 1.0533076887387345 1.2879280512949238 1.0556458499536077
Ni 4.521630091903361 0.2592442772186281 3.870821247696688 0.10571450602069536 1.3957842862489704 0.5627365775796953
Ni 8.553952318970849 3.7893592592464658 4.322212696538159 -0.57463872833392 -1.5407119721340174 0.527419133225324
Ni 7.000445587323266 0.4353198929758324 12.326504498953238 1.0700761664463248 -0.22221144736887538 -1.131820180423341
Ni 3.2349169165764726 7.032111902479675 8.595210931111172 0.2541046965330463 -1.017006797425171 -2.2663400191660323
Ni 4.037894094017974 3.4638993956809356 10.765371794180885 -0.6413778815326825 -0.04699950867799003 -0.4510787094913716
Ni 4.41484059547423 0.5534129795219271 8.2966272403685 -0.33713693046487747 -1.0430032214889327 1.052275390819478
Ni 5.301201732055342 2.709451978146485 8.056292197855468 -0.6277587480873511 0.08239460034783229 -1.1648256888150843
Ni 2.292338137330756 1.4531576850766441 10.380139566199752 0.3278951001516353 -1.023664669061321 0.193542361568957
Ni 5.524307416167253 3.9534475068529815 5.459340186744083 0.3216429485943364 -2.951710761339897 0.03415813393894763
Ni 7.8910017945437145 5.803085568565528 9.614152008309643 0.9496888889048033 -0.45593449492177607 -0.5884414385449673
Ni 8.265259385083567 2.5329263625211405 12.943809143531773 -0.2010533252340215 0.33585754953182156 2.4031106231615835
Ni 2.839573089915544 9.397789854049249 12.549313571242411 0.17015097922821018 -2.5971880312984044 0.713749550426874
P 3.7847021764221793 0.980898069865393 1.2430354673861723 -0.040887996463613456 0.5610309077424983 -0.3110039808232515
Ni 3.028563794290815 1.5579974900852895 6.645681214890785 -0.06964424266069941 -1.257824547041324 1.1617133684383478
P 6.004097829993175 4.558664988648879 12.84566574313178 -0.8070394575309714 -1.1404027798860297 0.3211477541254727
Ni 1.820586735522949 3.8484783384325505 4.0649717041534705 -2.9059901193743305 -1.6441248266047295 0.5608884686273631
P 6.426838979221584 4.654061264597166 3.6014090063117004 -0.06479848453262388 -0.8443880733827586 -1.693556084652664
P 4.631126979736293 6.305218891655588 10.052939764745702 0.5257474019498558 -0.485626365559254 0.38109739520622754
P 8.662996434862531 2.990872840242669 8.72117393321569 -1.827922964302729 -0.667471750406257 -1.4086865961329353
Ni 6.729937453035578 0.9294853539242593 7.5853853543217475 1.3684354619223724 -1.1445353139971643 1.3324513305182795
Ni 5.430186293849427 2.5811142334113297 2.8062361386983583 -1.5573578082208146 -0.9755351605439457 2.1675266111405445
Ni 6.542582271795028 6.205156292639316 11.496034824434156 -1.223747402851957 -2.0461556295295145 -2.8624618570743925
Ni 6.430849244986942 7.082720717218997 13.38325942544105 -0.843644510348515 2.1026692483455274 3.0851222190552288
Ni 6.241276405258635 2.582444828503983 11.733300257990386 -3.84213109439137 0.5957942793656126 2.253568064212345
Ni 0.6231269221332638 1.3424595655628444 7.806882312005666 -0.9709321145542955 0.38819132593853145 0.40917332750683727
Ni 3.878887980445899 7.112307977543137 13.413539704042615 0.01333194122221575 -0.0323439635483443 -0.004496602318772901
Ni 1.5480272671340884 4.788728576266124 8.551434352562877 -0.6523541780385281 1.799359807953056 -0.5446653219002813
Ni 3.6354445199525296 2.5552877522726756 4.580764879503733 0.5271147146110277 -0.4541650617261791 -0.24708918444716155
Ni 8.501652539634614 8.330403103161387 7.5904702604292975 -1.2628577385898572 -0.05741761868752047 2.8472278137334577
Ni 6.52440671243913 8.717024139770476 9.582789697170929 -0.19399873238008525 -0.06494349475092041 0.2857814588110369
Ni 5.132918413809489 8.050747127611709 2.162235506049095 -1.4247881296804883 -0.46876352836564433 -2.824770770281522
Ni 5.898223117690243 7.529338656165574 4.123544684936945 0.8785518637486612 -0.5530933980629764 2.5431424144069106
Ni 0.13559503213633578 5.1391740587937 6.014014459530922 -0.29110364235489866 -0.49867445699246365 0.15919499443733873
Ni 6.787661255423116 1.1212573716529237 4.0597648268290945 1.0431446321628037 0.39624916324600146 1.1470272271810826
Ni 1.7016185978985607 0.4299503873623542 4.954785919804892 4.2566960252274235 -0.9503825725377181 -0.47718980475612655
Ni 0.8115521235941571 3.304385068705416 10.202637256815425 0.6550042140668655 0.12158952537973898 1.1528795721968017
Ni 3.358689980924331 4.705695746387074 12.726518344779631 0.3391207936641257 -0.12910408858922925 1.258982057684535
Ni 0.9162126678750421 5.013515984731249 0.20188269238409007 -0.5436217111271153 1.5153230997472678 -1.519400355140435
Ni 3.738168309154108 3.418502078387839 1.3633443643712826 0.7328448764954283 -2.2478684427244064 -0.3192240547401986
Ni 8.739902983169156 7.9960633654011355 13.519080843548013 0.2012276460283567 -0.3357575336188476 -0.9249703031122005
Ni 2.8778092183419304 8.651954343642249 2.5719599239787487 -1.203978704865462 -0.6716436223957594 -1.093426411136491
Ni 0.7920709178035941 7.438701105722264 6.196467691489163 1.543178174286323 0.05679489750185703 -0.7194345166267933
Ni 1.1611475037014272 0.4852772705343765 1.2128013900031045 -0.3317198732143642 -0.45231258189847257 -3.343114423568139
Ni 1.862731487034004 -0.36070307705781607 8.689622197081148 0.6133127478653503 2.5168426001701167 -1.87741155795116
P 8.02043912827905 0.665797443510791 0.6380951929012441 0.3219643364894971 1.3261091903503355 1.195595108787457
Ni 7.278909571435775 5.50092959960883 5.313618771538034 -0.34676802579673827 1.4463612278655735 -0.01337385020374471
P 3.367560614875354 6.429971421835538 2.2666003625316127 0.24019965641617985 1.2705057420534185 -0.10107212215267755
Ni 5.842051676244134 1.638064201736965 0.536700150743579 -0.6300511436659537 -0.5055364742196198 0.2953109955680269
P 7.043791570515187 8.7685384983923 5.873608032500527 -2.495438680573044 -0.8341162591431054 -0.3605475960793339
P 8.980066157149386 7.274474254460263 2.0220453007212558 0.05320589459901805 -1.0487666063352712 1.322825377392741
P 1.1689924706018628 3.448107819199376 12.369903151534244 0.47230727985284465 0.22607170165523002 -0.5857253251653848
Ni 7.048365491146184 1.8087407431008546 9.890110038330988 -0.4830346935726778 0.7604626382126968 -1.6714212004268376
Ni 8.48553755462359 7.4566548992293855 4.371872538249596 -0.6337262785246958 -0.9501802267189248 -0.9722855432583964
Ni 3.2513553101169608 7.50850190662437 4.582928944578035 0.9389524763239054 0.21353860218522577 1.5537605777878596
Ni 4.608857992421747 0.9817389320420002 10.811421472679129 0.394014874598844 0.9442985711271673 -0.5087575522600786
Ni 6.838399433574224 4.704882604941564 7.517170179238385 1.020507611489578 -1.3140028940051047 0.2179076777871989
Ni 1.6684461230192167 7.265612860752941 0.860439480932359 -0.018625328410671146 -0.40069151528807123 0.3034436519774903
Ni 3.6136005838481364 5.044064230400083 4.077643774362254 2.3914987499542684 0.9646565659582289 -0.09698278257465233
Ni 0.8286207017549158 1.3357603888810827 12.273260366710966 -0.09107541595128187 -1.2962370853812515 -0.07953141986742432
Ni 7.713838602103141 2.6737938777121153 6.404832414828089 0.725032579539861 0.3129083969348159 0.23568582770622634
Ni 7.8648241841445 3.857275050433981 11.218872790658832 1.511292638431636 2.4998596924588754 -1.5941544082238739
Ni 4.450914506875055 5.033613514776534 7.957336580034334 -0.7346485053630702 -0.3212616539955177 0.7802331359714048
Ni 0.23908114144308032 5.875104027955391 11.541190971366708 -0.04856376784131636 -0.8781240321826231 0.47227385551174794
Ni 1.2689257062063488 2.9605093994478153 6.3410396203790595 -0.4041954146762717 1.2900810930821847 -0.965476490756363
Ni 6.492860520450806 6.83907397136425 8.042903084735643 -0.7830353813068902 1.2414479054555134 -0.11680933038227624
Ni 2.091390557609003 4.721478082624936 1.9583606171235046 0.8045817400190983 2.598768488411647 2.089877238787181
Ni 7.889079823854327 5.336869072733411 13.514482898283397 0.4370368866863248 -0.3505483187747769 0.048795167125832095
Ni 6.898756705415972 6.281434504374409 2.1784918667887134 1.0277025865761205 0.484680713816533 0.7359793083593519
Ni 8.837433755411906 4.741316885846649 2.3703294902476406 0.80236210665996 1.9503064463386732 -1.242078597060977
Ni 0.9159123599548252 7.208249427869663 9.613652111125528 -1.0364407377800666 -1.738454230716935 0.011540910760063994
Ni 8.889955300596919 0.604849720096678 9.999127357515944 1.5007652565377507 -0.8931122780613393 0.09102785054279806
Ni 7.239444490597424 8.830817740923434 2.461901229328918 0.4850699788351517 -0.3990385530656805 -1.4475321082452233
Ni 3.226693099684379 8.238730645423791 10.444406385150538 0.546710120244452 1.4146230162220284 1.5085289596435698
Ni 8.168846682328393 7.750217441546031 11.081158046617949 -0.8160174926598656 1.1601390819726922 -0.13105478455769687
Ni 2.5704140312079087 6.198069025722196 11.189377008747313 0.4740905970055126 -0.5343130321316798 -0.10975113798391421
Ni 0.19858484940792354 9.265839174027791 3.1089585345938047 0.10252171011501053 -0.23328287469168854 1.185309924811365
P 0.31158009350529003 1.8574091066633907 4.4111056889711024 -0.8505342954898126 2.0919888858135454 -0.6625555440515621
Ni 5.223796210588974 1.1419462772949436 5.965139114509529 0.15159944147826795 0.9348479672372286 -0.9071726128091473
P 2.7188123450135535 8.519855819721608 6.631481732398559 0.9546202647681494 -0.2290284702907088 0.487262101390464
Ni 6.801475419753094 3.5821929955152982 1.548150162375285 1.4312832504865285 2.036451000647241 -1.5838728237922077
P 3.548678631619092 3.699054357576319 6.468476441353564 -0.6850115590622331 0.4656866892125335 0.47247517288927665
P 0.9202229336404001 8.307191610989547 11.533617667631024 1.37502108555969 0.6043198003381205 0.5033955166172169
P -0.12579575369356577 6.208565942564239 7.836594315619741 -0.4496280930877741 -0.2453089526182872 0.5152377606677837
Ni 5.013608387168238 5.329550799723818 1.2495572313889134 -0.09388280349308993 0.471340287953885 -0.5510714825369413
