# total energy = -340893.2291606503 ev
CRYSTAL
PRIMVEC
9.09080239513789 0.00000000000000 0.00000000000000

0.00000000000000 9.09080239513789 0.00000000000000

0.00000000000000 0.00000000000000 13.30530821767689

PRIMCOORD
 96 1
Ni 6.257781149952215 1.842232938496953 11.41603428682393 0.7928261421450669 0.4323680204557457 0.15909086475930667
Ni 4.692544962649462 0.4054606990273296 6.130952637483044 -0.8416030544384538 -0.3090039196740872 0.10192829950538575
Ni 2.487034466736316 1.6452988846367644 4.798093724701981 1.9903452074281143 -0.9362150227880844 -0.5124563412679045
Ni 3.4941681089352192 4.514919773230903 5.24054853529182 0.25968270484145595 0.08709046316160485 -0.6924649300164849
Ni 5.059104299756535 4.432629829292279 2.668219614401268 0.22614137855090086 -0.6543755793439311 -0.1758457156201423
Ni 7.081744213227196 5.929857723333338 2.5186150054292438 1.3733460118501122 0.284875916277632 0.42592792125735685
Ni 5.031831892353102 4.667290713393883 11.539760108410837 -0.8104942488487914 -0.5555516297954819 0.9224449655871855
Ni 5.6777970433083444 7.902843673724816 12.332876260752041 -0.866734559398759 -0.01129202797405152 1.014689205035588
Ni 2.0189581384711976 6.585359126077314 0.39059996423319904 1.0262493990693615 -0.2770389367317164 -1.1458301215491877
Ni 2.5668153491938246 1.6052902629759283 0.29672742887033643 -0.4527895215348912 0.13087017935071654 0.232188098965613
Ni 0.5008632164455249 9.226164516556652 4.986097883298038 0.38886598340805284 -0.408439020443974 -1.397727011797638
Ni 8.648034933616215 2.133238616294049 1.3319407417318145 -0.33925783346262217 1.2405698737259345 -0.5463540224566139
Ni 6.84002886641057 0.5500644575618112 4.962627249486644 0.47656374113635347 1.47555841825482 -1.1733944043207016
Ni 0.714364348723052 7.143052585070113 2.0595949345825595 -1.554151385468375 0.757794090241598 2.1562412680347123
Ni 7.782608720285548 3.8018008644459416 3.77663206873356 0.0509608073185832 -0.15359821707585158 -0.788291744609823
Ni 7.431412839349076 3.808428059444976 12.608722116353816 0.7601618191428262 -0.3773597825406662 0.12602313567106038
Ni 8.208840084791332 9.045730269175541 6.922977893528111 -0.4248442012748748 -0.2349335229212341 0.7595408977293757
Ni 6.808792869131172 0.7188524779014103 0.10577330487347393 -0.3928450226604589 -0.7366092286338669 2.1454385209922537
Ni 1.974658658045555 6.726339290748126 9.196323048375815 -0.654517504238434 -0.8565992707369698 0.3929866904446458
Ni 9.07380266719614 4.8663065610192 1.2367727670172888 -0.4703776669302996 -0.5509519262399414 0.5040004971910674
Ni 6.5298779586162645 1.7468613298071483 7.138537183484352 -0.14080132242149945 1.0200532975609786 0.2139353234030122
Ni 3.309897542912691 4.104979126747437 0.30402188877050795 0.33905523053351283 0.5522181945468748 0.17462906960422184
Ni 6.384734206415195 5.503217272716503 4.7797993938157575 -1.23703434976885 0.6021508177112597 0.37348718695913746
Ni 5.266056417936252 2.8153851610711795 9.579994912048297 -0.8758900006457818 0.49399247813576214 -1.4644378828616262
P 0.19549679799002764 5.845222352358019 12.604238532576693 -0.024993693830860184 -0.8786914746503188 -0.7884619516391002
P 4.007752994354199 6.192391007801251 12.88275799318425 0.40790165988326527 0.28737245744724055 -0.6299770958949086
P 2.3590268771870697 8.558026898382419 1.5560162954398995 0.5562890221821387 -0.8816515857199075 -0.9846363515142654
P 6.521859870839655 7.754954499178468 5.823161702009382 0.28012708873873693 -0.8338740612253123 0.7913253892298242
P 4.562810120631331 1.1924496505052298 12.615853850889813 0.35263811142427015 -2.2253774607107415 -0.012971215448687337
P 4.2936223687569814 6.158391406571638 7.9765191732449425 -0.490803024664187 0.36418210750812763 0.6578884775931959
P 4.6228548709312225 1.0939326241615626 3.745205164602338 0.042116212443759724 0.6501371157825513 1.1751445542425891
P 9.32389064308562 5.481435710003628 3.5916615109210106 0.1686340283630515 0.5183241129025912 -0.5791746685310607
Ni 1.2570488928414945 0.9330708744936478 2.481093627323601 0.06990495252125381 1.144555882822455 1.3641769437563345
Ni 2.02845802705006 6.6219586968127215 4.503408090065915 -0.8662715037194113 -0.6027401145558264 1.2980641112876612
Ni 6.045819999612735 5.677515228431843 9.275609391179076 0.36502208691091975 0.6554374449495423 -0.7522749601955818
Ni 8.543481614433922 2.666323273006483 10.420983230184994 0.23912082152970432 0.5348995007627692 -0.2582313171069101
Ni 2.3689994874942584 5.393245835263394 7.186635710261292 -0.5234555205918856 -0.3866172965831922 -0.19498655021465128
Ni 0.5541016829377661 8.95603132122565 9.158642581226985 0.563475512628249 0.9324331871481489 -0.049299617566076384
Ni 1.1936132732211095 0.909045701731717 11.359087682005068 0.5436057702875154 0.8629246987343654 0.09095200299954014
Ni 4.228586767902263 7.12200737735713 1.7635784064652058 0.2417520885049643 -0.6465835941033381 -0.49889300076117304
Ni 5.921848726359197 8.040714783951637 8.060142737905595 -0.948667132508508 0.06064769558904394 -0.12030037425467026
Ni 5.057322502472844 2.7427041953410307 5.3394073758082765 0.061980041247222284 -0.5078957184804156 -1.0086172878098951
Ni 1.0029064190513715 7.5831292417343725 7.06795255680328 -0.22249221183408777 -0.6707802459541996 -0.6739925822439102
Ni 5.383373223783351 4.389293973928224 7.276393748427223 -0.23289078145959247 -0.386314934851425 -0.04829920132602004
Ni 8.105423115917516 7.272405613384595 8.989372748356594 0.2195369858605058 0.10753844660331156 0.12531171142633257
Ni 4.6540272325933465 0.18267967559066098 10.401784364453224 -0.15404044681959278 0.18280029256110453 -0.10345887721729925
Ni 8.411555889021049 7.211260875986098 4.611526821976084 -0.4719938623774839 -0.3504555019506545 0.20314028967003725
Ni 7.307187023626439 6.056456238500074 7.011059587718978 0.16281305080590025 0.1831021400722395 -0.23083055649645406
Ni 2.264073445410784 5.311537702682709 2.4309333065469607 0.7664617932189252 -1.0037301349209231 0.34268742796946144
Ni 2.362854105026018 5.1865846227626475 11.614203780739494 0.21676430821137507 0.7295098985849243 0.1937231101211954
Ni 1.3027483568471798 3.350787972412905 3.7441133592259535 -1.274476039555076 0.813420935577283 -0.6412444412786118
Ni 3.4471868417815723 2.703068296581375 2.505056982628751 -0.10164110728227012 -0.36796060071395337 0.25566355637973387
Ni 1.115932366133665 3.4913135969603264 8.498273053761498 0.06464627522547575 0.878871708981925 -1.0504889883430168
Ni 3.4830318759121504 2.91064768013137 7.381478879553884 -0.3757862674059593 -0.23075470895319616 -0.13812557536154924
Ni 4.326067442764598 6.972200043490075 5.830452525588567 0.2248108326649354 -0.2456272551896544 -0.061471734152236064
Ni 1.1570864289054452 7.423476568794677 11.46044740228042 -0.9487203543439466 0.31898879880094094 0.031230932989823632
P 0.13700566583188523 5.649633737263066 8.139522715974275 1.1579001653398446 -0.13495026295736112 -1.07153423904909
P 8.786533309213315 1.7929244259115464 8.225128984653157 -0.2776166636120574 -0.832231897636199 -0.36054219676269517
P 1.7280979135135865 3.3537424832149436 10.559944327627704 0.09771683252719945 0.0736901305952989 -0.7840792491903722
P 4.194487167845503 6.030329272207585 3.725167217802789 -0.6238401297592353 0.7754472845469871 0.5536616118616207
P 6.771902392716795 4.116415356251943 10.484463394737471 1.5726129346076725 -1.1541227005752832 -0.1917176496553924
P 6.53741423386208 7.759890804918489 10.326129797235854 -1.504492584790667 0.8386946225424072 -0.5736845919507668
P 2.61924200702569 8.50848202493285 5.860695807238479 -1.1512456361378045 0.40532078652996645 0.011939431750063307
P 6.914737081091041 3.778892042227058 1.4884116338077764 0.45610495906136933 0.8199163134936396 0.8526955648071894
Ni 5.28977432157477 2.7625312355233262 0.4875133730215444 -0.33098428059992024 0.7775131659370803 0.400157240051156
Ni 1.4710736553411674 1.140841164895467 6.881385654077382 0.10392681799265327 0.6205522030365829 1.897293898697384
Ni 7.144270752600799 0.7946488616372777 9.268198569007316 -0.30598004524609884 -0.6234462367549263 0.830044660176893
Ni 2.4235897563134627 1.6812439175944887 9.27056672305018 1.2144664917706633 -1.4311359262753869 0.17636147891429627
Ni 6.349907342161011 1.834487574794378 2.6281173574750136 0.43459511001405154 0.24710718216929053 -0.0009595356997918958
Ni 4.226550428149473 6.744402715251668 10.460593674697739 -0.14000325200023633 1.9109837374796508 0.7546478313031326
Ni 7.9548794270505665 7.256142167769681 0.3226262160208831 0.7356250103437266 -0.38665252069650186 -0.677773132332265
Ni 7.824453684044882 3.875799996533923 8.120961115495497 -0.7470633340876554 -0.3773703240636275 0.17548139030218812
Ni 3.0981727534373746 8.565090451899907 12.613632058766681 0.9133959680110398 -0.39206469285100864 -0.2504138779450203
Ni 0.2699759244483092 5.292383381883032 10.309857260818474 -0.4232557737418323 -0.9298831670327857 0.4856801016153248
Ni 8.633971462198511 2.2984003155292387 5.671228029445104 0.2244472786779296 0.7831981321369995 0.9768495084799951
Ni 3.5183950975119354 2.620678353815604 11.441074902221514 0.38974812890269006 0.6132351005498793 -0.2570730351327508
Ni 0.9770067228205781 3.446423214374276 12.582564241332937 -1.2982523160390673 -0.34095681843159986 0.06621644792607306
Ni 3.2819796885340438 8.252339574599809 8.014891450461572 1.001032790594418 0.8813651648277402 -0.16821108189301995
Ni 5.789923000946325 7.854189698917092 3.7410133955844302 -0.7086657081460634 -0.4860595964419307 -0.905000544858493
Ni 3.196453418916878 8.446591841731992 3.760465894705052 0.8685996376319557 0.8172788758707924 -1.0029891429898403
Ni 3.5314222174483083 4.761025977639482 9.59710562045321 -0.3676073311395927 -1.7729792610769983 -1.7116476520470523
Ni 7.1399980754409285 6.090055844421103 11.510914083100227 0.9507666953500142 -0.5518901217834946 0.4130425806542564
Ni 0.5222784198189471 9.056702867754188 0.19293228261385817 0.4589473136061708 -0.18551717727163533 0.6348143693825519
Ni 4.378857732695177 0.46338729235222104 1.612496542092162 0.7088238309904824 -0.032035174058673864 -0.451389555863571
Ni 5.956830134255334 5.590188979926051 0.4930105812738297 -0.7500985213695534 -0.015263353916973714 -0.8351135900593682
Ni 8.087559689068268 8.704734268607952 11.56558616914164 -0.11293750613169583 -0.41963283227726444 -0.8305367693219632
Ni 0.16444625308097255 4.952996453352245 5.768156892597645 -0.006877700956439768 -0.44244314530356055 0.40416327588675555
Ni 8.142913585294767 8.811205747110954 2.7064464387784133 -0.6358968038134533 0.08565450204602668 -0.2670203761534498
P 8.417837633526307 1.6867347622850468 3.6078676844803774 0.46156418240372765 -0.940387408998219 -0.3276552162266873
P 1.5817087213744268 3.2793706282257817 1.3787092841077149 0.5646641336197114 -0.2658713501506711 1.1450734458888214
P 4.7207082686947395 1.069960178053945 8.388345252160235 0.12311084712027183 0.3015515771611 -1.2854955305940312
P 8.435791968400233 1.6142356126042543 12.339316185220238 -0.05094795180277677 0.4289124578069774 0.6073896975126959
P 6.471042285044592 7.909916318044774 1.5472082169288375 -1.9520532538264512 0.4854633576188284 0.6427814467484285
P 1.71570714974996 3.3275882445150513 5.937254000221149 0.7153017254053423 0.028777843463640762 1.1496379253310522
P 6.936082285285462 3.7289108102590336 5.914356086965228 0.390593764732437 0.24716734598326462 0.37681650844268655
P 2.5329157467913572 8.552681506531346 10.243769854118229 0.3096487523469377 0.5513992981900051 -0.1112341502873439
