# total energy = -340869.19766427274 ev
CRYSTAL
PRIMVEC
9.20731463611553 0.00000000000000 0.00000000000000
0.00000000000000 9.20731463611553 0.00000000000000
0.00000000000000 0.00000000000000 13.47583565958420
PRIMCOORD
 96 1
Ni 5.265773701131173 4.403637592290795 0.4926171109836495 1.1017053633158316 -0.3589879649016979 -0.5924050511784056
Ni 5.267504676273875 3.78009062639096 9.695311469360368 0.0047832803212562785 -0.34321527544847347 -0.2745081998900627
Ni 9.150523872453448 0.208134108475046 6.791848344241157 0.46956057034564297 -1.134663563409407 1.070716114023169
Ni 4.721418848009929 1.3521309766291272 8.745695743879986 0.16928991677949556 0.2816131863659601 0.5473084159500832
Ni 3.223711020416694 6.353074688241571 3.297860286994978 0.011330080300838551 0.8147481390291388 0.4196364318216902
Ni 2.5557203469965404 8.360554695360376 12.289126159736764 1.0735026756293706 -0.08627105258410304 0.9653821312703439
Ni 6.763886650566317 0.044565244072890774 12.828281642309692 -0.11163524238050451 -0.8938663826185445 0.9548681191128974
Ni 8.560694092577936 1.2288910708575385 12.005918370298716 0.6778361243597164 -1.6988384160975258 0.07711046913075753
Ni 2.9581628603600345 3.960305394838274 0.5083404421070071 -0.7379030077446259 0.8592799028929266 -0.10923614602070864
Ni 5.371372392150549 5.963347476325261 10.868382274791621 -3.347962752799376 0.976361513099983 -2.1040391321098606
Ni 2.063340784729283 7.083067418102955 7.271102879562028 0.5817997648587335 0.5525951182703193 0.21957658084918957
Ni 7.176466417292121 7.861960195745654 6.956900507023574 -1.0187147812552133 -1.0002360057247355 -0.47693372288126246
Ni 1.8705119952952614 3.026232537115309 5.183452942855296 -0.4214470026678677 -0.8266168654422668 0.40704933918529895
Ni 7.7155915157269055 7.991838575335795 10.604175620470555 -0.35696296405186917 -0.4634115200251116 0.5585577636116574
Ni 5.791364047120367 7.20673086034563 4.737227807158963 0.8930500573648362 -0.41134179591306574 0.7741010549317379
Ni 5.186305368914918 0.00875247324814883 6.139927196972903 -0.38394900572240975 -0.6914102634997255 -0.12025615128029613
Ni 6.311503662872969 5.689448281936526 8.020008354320343 2.900068097462941 -1.8174282354189926 0.730271202230981
Ni 3.129354460510288 5.945080164181007 11.902167587317319 -0.1237703350811417 -0.20539746113533014 -0.07391664478380819
Ni 1.817081948736238 6.396275408292395 1.2520106377901092 -0.7020122073852877 0.4012422455852186 0.10371598753342783
Ni 3.7907987332577777 1.5159198958499556 0.23646961912219308 0.13542386015967 0.06696721004916853 -0.48959512039901487
Ni 4.021119707697545 2.5487504098527904 2.448128272368681 0.8695316625279219 0.20272505650948958 -0.07261129570882334
Ni 8.87703900722121 7.566543507162806 8.435077778910967 1.2372302678297402 0.313864333090182 -0.7377929645293229
Ni 6.4376530800546305 2.1580656372192424 5.875369743966002 -2.6806452685827966 0.3431054893434865 0.18336336415342616
Ni 4.8695737470589116 5.449524078380601 6.111695728980609 -0.055603191186601016 -2.349336514763922 -0.5384175412183565
P 5.794384046305506 7.9970499153930765 8.933643735850465 1.1218509850257712 0.6856605055001417 2.1994216600769283
P 3.912003822505233 2.1669138665391148 10.902045137659869 0.0034784454669036864 -1.6432663352591763 -0.7997508942893582
P 1.553761958810077 8.283268496701675 9.30249059974221 1.1507815520171922 1.1183931083841578 -0.8951881867537614
P 7.551342230776636 2.9083512884344236 10.4151365617213 0.9798116764321125 0.7754493414295162 -1.050757925733687
P 1.2844387997719944 4.415257223301908 12.012345996613181 2.4681322794486076 0.9936966619443209 -0.07691969327619011
P 8.902865524642898 8.280497095010436 12.545113444324375 -1.0165720238805975 1.029369175645266 0.1622710622595012
P 4.6517378912016065 4.956150126137749 2.4146541594495035 0.059637509156974716 -0.43884720042218617 0.46707405647836336
P 0.7806568991179209 6.31198244323159 3.30901863154519 1.1700720248156882 0.6708231833769931 -2.456798856713659
Ni 6.614921507833517 6.815935599937015 12.473394908797545 0.9906681595306424 1.8764808186067747 1.4169022991745082
Ni 0.5377182207656106 4.123633948329661 1.1094169567527845 -1.234604657281435 0.6821473501405606 0.04180947983661832
Ni 8.745595384150967 3.5681106226121564 12.618799582978841 -1.93812995887714 0.5001453851110355 0.6099929394634979
Ni 7.589607830207844 6.292683911853386 3.6602123111757554 2.295497871676911 0.48037591579359207 -0.752673224075265
Ni 8.633210902279618 2.1122132105668316 5.700723559382016 1.9387781339840997 1.1512062982594367 -1.1768697644638118
Ni 6.947388430321847 4.2652056174476245 2.205576301229102 0.721873207975273 -0.6949236759696226 -1.777425983994442
Ni 0.560206165917387 2.658823855762342 10.810368827030274 -1.956821878859688 1.5622377620209353 -4.235318073772279
Ni 2.3506642437885423 5.356999774077374 5.50840945883351 0.4318016064293144 0.8651777564346004 0.05748883824508808
Ni 1.3437523203532848 0.5834085986812574 10.936475890564825 1.4639108067135627 -1.859901574091855 -0.16698492279540272
Ni 7.990816563416433 8.889045345445055 1.487692110783498 0.4067068682442157 -0.4806222274764433 -0.949988679533409
Ni 7.149369290457172 0.08521645871406676 4.712741874741408 0.979704718540603 -0.11652188104884448 0.32759659507461
Ni 7.661977322876106 4.256311351554808 6.094379532433382 -0.48241197238701433 -3.2738435050864587 2.032112264062571
Ni 1.8109867064784275 2.264704754787157 12.437091388105218 2.2315157123979956 -0.1779061976935968 2.888691480194883
Ni 3.880118892084089 1.941712159010741 6.455868831237186 1.0930888252914144 1.9146943535620182 -0.8421157324088142
Ni 0.9204920687044299 6.580789992652697 12.424261915957132 -0.33469721067513325 -0.6506829609836923 -0.009624410463641488
Ni 9.109210651893335 4.233661357666267 9.008191679150446 0.2497055390240861 -0.03385731486907717 0.47264615124950216
Ni 2.162015575177853 1.8589384008570926 7.964690808270607 -1.7030403699940153 0.42048232476175323 0.008277409517443808
Ni 4.223432031158069 3.835352928553162 12.041508324110408 0.35936591706640686 0.11506997909366634 -0.8718991343188339
Ni 6.749744215357863 1.75909428145574 3.0245835070724483 -0.9045976529931194 -0.1317273851446893 -0.4541930867506371
Ni 2.3498171708463698 0.9346529185420619 3.1708370956588356 0.7760702628429665 0.44072204884739585 -0.18379505237420607
Ni 0.1350031708902872 2.061683468103292 3.077044944136726 1.0679074409297802 -0.9484177355018635 -0.3472228539459698
Ni 2.3834422837248037 0.2840962952958723 5.715237049368401 -1.5706082454728176 -0.16870910457536106 -2.6962505792202207
Ni 3.599664089708102 7.700804568497233 9.988733853603275 -0.12799620023703118 -0.17915189717523985 -0.28501295607612853
Ni 8.18178547530351 1.9129945448081571 0.9141169240831188 0.8781890810926036 1.0283260790927322 -0.16585183763222403
P 6.686213744694885 8.234064607538928 2.8876154952489035 -1.5333899845513075 -0.24805386235327603 1.5385291055500858
P 7.609210202967479 6.158146631081293 5.753993398667194 -0.2784219331221721 2.739185430910534 0.4783506578334472
P 7.963332729368754 3.4171474926135788 3.8112896118752353 -0.37166427481778574 0.45830556625711394 1.7851544629869516
P 3.769051056198944 7.205230068067649 5.423458170779602 -1.5706025890458628 0.43702634516336347 0.7341646237481162
P 6.919527096376025 0.6064775253835893 7.56848717127251 0.35531797224927836 2.1624898200475853 0.31272404883815175
P 0.6761419090256509 3.5595478200445374 7.098625938295172 0.4581669837967206 -1.3556632498583685 -0.7452607336612778
P 1.6338655957329626 2.3237972998183154 1.2764956494762045 0.9143339064442769 -0.8590359052029205 0.7040184391820392
P 7.361782038021651 5.12016002090871 -0.06750618910243802 0.7281004198319073 -1.3054969134166226 2.07384332525277
Ni 0.9473037687871244 0.2512436761114416 0.4766442616349344 0.8555127225410106 0.17947277084976831 0.3196773402275333
Ni 0.17421528226122793 4.925756780679997 4.584532781286224 0.020623846897938676 -2.1208094095896635 0.7996544779208099
Ni 6.662523324257807 2.4395792807729455 12.320552565891385 -2.5153423614755064 1.1392429552499734 0.14157471025241425
Ni 5.07731838612685 9.013242811933882 1.434502375135243 0.9674289864970437 -0.26614414419608357 -1.3752486281894638
Ni 0.7148706363806777 7.426049093851736 5.21927215880025 -0.3140237414861818 -0.3030531014072909 0.1358187816052435
Ni 9.150993445497479 0.6386027667155019 9.144540038702162 -0.4271265695511482 0.9331944907942057 -0.24710718216929053
Ni 0.7815472464386614 8.460223875784541 2.921291248357576 -0.3164521484220163 -0.7371064799852596 -1.1750957032825247
Ni 4.344729193551413 8.437969796423321 3.52603319494117 -1.37344577065277 1.6347127892622104 0.5130065573444197
Ni 3.2047071231053335 4.3184423104002825 7.658169177562163 0.006368879640821289 -0.09302945435385913 -0.5727384259874136
Ni 1.5119239213184001 6.11698993486919 9.666418916180596 -0.6946128295974231 0.17922285962249135 0.3146253796259227
Ni 7.2260478063530105 4.955698967722896 11.226759501264398 1.709040039220876 -1.6787403597960702 -0.9354568044658212
Ni 2.431246661070048 3.4649426626442335 9.800719568967754 0.42667276984318137 -0.13947129075616624 0.44234312939058656
Ni 7.654675922407158 2.6633078179671057 8.163971163037028 -0.9030845587827028 -1.1317049950017153 -0.1422982186820001
Ni 4.590674980848437 6.900781003873151 7.727030683372077 -3.4369846286557393 1.9593690707615738 0.09631403864240187
Ni 5.013345964363607 0.28693122745777533 11.383429324845135 -1.720283216234863 0.6285529618538723 -0.9058132705677756
Ni 8.702597225021098 6.403899064771953 1.4327640341408707 0.43825507536414204 -0.03334360845745225 -0.727154253868554
Ni 0.35733311699840276 5.649018963576941 6.899951424828697 -0.9022327523053687 0.10893378428894143 0.8559374687832549
Ni 3.8566310325679654 4.088379140769002 4.277539736070831 0.49814635240313565 -0.9577837500977956 0.8854964133872942
Ni 2.149466005393268 4.4111507609952865 2.7125641888230088 -0.8033748641951906 -0.7251292530187253 1.0809259646766354
Ni 4.007133796837101 6.671988443655131 0.8018254360891169 0.8674069028754351 -0.5230855388469766 0.7055888689929526
Ni 6.452992466159634 6.47528337477921 1.6691572325519763 -2.390663398537167 0.6239270330460868 -1.5788815412252033
Ni 6.1043851211970726 4.586071323554019 4.343531321923406 -0.20218281085277437 -0.23602341355130319 -0.10803312685154298
Ni 3.2627960708463086 9.033719879579456 7.546791055175373 0.6942986407911139 -0.47194269742457434 3.470487645509191
Ni 6.89849758985512 0.9256942014471231 10.094424617768537 -0.6158411707141587 -0.013857988929014844 -1.2946481436275767
P 0.22457561013633295 0.29122736044492686 4.6911267830126535 0.6727404550043641 0.8810879999069535 -0.5441161342650307
P 3.4407182179610025 5.342470631656189 9.589323308933885 2.769615208155301 0.976323717883512 0.4167832786436112
P 8.536699830759424 6.109752985602365 9.782796610389124 -1.2589015821555867 -0.8373517353612676 1.3104506578774722
P 4.608583207723726 1.3754899337410076 4.320931968265104 -0.379072908577031 0.6529164782999013 0.3725428207679971
P 2.8612558743125205 8.4855808201622 1.5795562506307053 -0.14677013841042463 0.06546799979582273 0.18858553178431392
P 4.74120536706134 7.803714723656668 12.680680102867498 -0.446918664576411 0.18311808091183945 -1.0496289543355664
P 5.395504763687892 3.5611406854684065 7.501607079562112 0.08143069377266622 -0.08931112496200748 -0.8413138053328091
P 6.0854364677732455 1.723876303153437 0.8036678197383432 -1.61564111734274 0.14002896303184914 0.6546100639522403
