# total energy = -340890.0148276321 ev
CRYSTAL
PRIMVEC
9.10894123471452 0.00000000000000 0.00000000000000

0.00000000000000 9.10894123471452 0.00000000000000

0.00000000000000 0.00000000000000 13.33185624289305

PRIMCOORD
 96 1
Ni 6.464743006089549 1.9657094839810467 11.495872588410784 -1.2522359972099533 1.3081860302130115 -0.7820254519851371
Ni 4.797952532425101 0.3258705451692547 6.0741006027243145 -0.6393647077573956 -0.2714753266010099 0.004079826496328457
Ni 2.644689951710181 1.6294984689034728 4.845809997938947 0.8233340809259369 -1.99765022572996 -0.6597720677691541
Ni 3.53794004034611 3.7822145131538933 4.442667394736516 0.08534057035003366 1.2853587479058508 -0.1839907133247799
Ni 5.269285579408954 4.691013564204815 2.692968250301692 -1.4720061821271875 -0.9900063575769272 -0.17740740368030736
Ni 7.415680018553337 6.110086385335137 2.6672646403763083 0.17742745828496542 0.6437211849538785 -0.28940671426844994
Ni 4.792988159539236 4.433986573892058 11.79161348918632 1.7265703347951555 0.21352831777258066 -0.402984425087306
Ni 5.384003583307273 7.9950086709221715 12.605416304660368 0.17906370833680774 -0.7940962671067421 0.5771532672256576
Ni 1.994830768597763 6.554302114738769 0.594227236391075 0.10415333218116257 0.4540439627672826 -1.2067974052611796
Ni 2.567910687389161 1.4971364461429142 0.18857511992248577 1.3868610156174115 -0.5194841946489633 0.7270750638911865
Ni 0.3234366361140195 0.20593585071729334 4.862820945396475 0.7348482800787022 -0.432134821399017 0.11550320997634302
Ni 8.908799421682184 2.1262090257222237 0.917886130667324 -0.8457826397374402 -0.9630797083894123 3.016111239103154
Ni 7.04338848787776 0.5580009777358729 5.015178004710727 -0.40064780653432935 0.29006928755311334 -1.2716174870603583
Ni 0.7756154018054001 7.5951717024358505 2.7204581235718788 -0.2300121743602168 -0.6246759953969693 0.6134927250866402
Ni 7.803720908347556 3.84366342964572 3.5208762610303466 0.5861210179419067 -0.14410287599090665 1.9793884513062945
Ni 7.903263416414956 3.7483474702371113 12.744227457702014 -0.7607467451120189 0.6805003014554409 0.056001969286916455
Ni 7.686060716482018 8.828586086575894 7.223626194034314 -0.569234269488897 1.2232059285261903 0.08984668575050334
Ni 6.823125183743628 0.6987860383084672 0.24546865498271384 0.3723780130553587 -0.41881419303071094 0.11207695790361344
Ni 1.8965635122808608 6.666670011839743 9.078167428453963 0.9692596119478791 -0.21512831526984888 0.4662541316802292
Ni 9.094175481499136 4.5395227651867955 1.442573889103774 0.6147967886100444 0.8923638299310889 0.38207775684162587
Ni 6.260347477308034 2.0860477045226298 6.793473758756347 1.2441627332835155 0.3984855087756879 2.0583143763792355
Ni 3.5554929697975997 4.309184972223734 0.7008993126378629 -0.040355006778278885 0.08502920975720195 -0.15854604799943017
Ni 6.175433928607056 5.593773387323026 4.619341683144538 -0.7834855814704313 1.710921058293673 1.124755817377392
Ni 5.464626820761935 2.9908297125594854 9.326499934510652 -0.03507293244373314 -0.46919418814515973 0.007667800957902924
P 0.3837405587127208 5.538035776885213 12.735095744274345 -1.0044215045609928 0.1721646672241293 -0.08398739875624892
P 4.11184887277533 6.169221630793918 12.85726850554843 -1.2143351083991214 0.14697017023637268 0.5382100531932408
P 2.5378967265470957 8.521496356115037 1.3162237674527029 -0.3470238505612862 0.8707951026213778 -0.40942272451348194
P 6.386734034723406 7.6961260963698725 5.792251747982231 -0.04709386816400921 0.14635361969829633 -0.3032747304997938
P 4.818292797845535 0.9831097923406228 12.651011109211188 -1.4936687547022858 0.5921042321085351 -0.32396285497676464
P 4.007387536527441 6.1694948990261675 8.288628099321345 0.07364307940744737 1.5316349495334138 0.2906776105610736
P 4.90286931572674 1.1208916350407958 4.053950621514532 -0.16201112372989515 0.38459820927063443 -1.7499622313565346
P 0.3317786043504878 5.483436784081772 3.7876871649517425 -0.7366110284060797 0.29696164379757245 -0.6648366267762551
Ni 1.5037768641865759 0.915949569794783 2.667864008699042 -0.6958996667296466 1.3707337710382457 -0.5770205983025353
Ni 1.7672894205447207 6.5892622305845485 5.035935459632395 1.2880792321608074 0.6278327958583961 -0.4455672927548391
Ni 6.0450849818240675 5.792184341818276 9.395318895226245 -0.2059533336388001 -0.3635056502663933 0.5009593963718985
Ni 8.700359523063378 2.556624709397258 10.116505641426306 -0.0328800385574724 0.8559804062060483 0.8817616289352104
Ni 2.6414562776285626 5.148774288986945 6.833615951179684 -0.05600171217660033 0.0680226478968764 0.5863161646718482
Ni 0.2795597778499403 0.33688325492890747 9.047290850892097 0.45643534581759454 -0.5195602993025374 0.5914843391363491
Ni 1.3070510637901964 1.184499370567393 11.164949313627236 -0.16447861143378123 -0.03806055431714735 1.1230432055616593
Ni 4.179364344023095 6.858741143346806 1.816878495756921 0.2997446058593483 -0.06659157187730466 -0.6382223666228364
Ni 5.649902682227062 8.037547425742336 8.334969837040315 -0.943633940959975 -0.3811051085157114 0.09776079839125744
Ni 5.700630375073636 3.0020246011406377 4.823771825902137 0.2826328858797261 0.6341839348874045 -1.1864304115690534
Ni 0.5310394230480345 7.784674112559769 7.015342969201999 1.6567651410765596 -1.1848990625261915 0.2609512871412344
Ni 5.096179263220002 4.86311789687552 7.025034882505779 1.2513533374946837 -0.8445672792731003 -0.3695971078761119
Ni 8.230520342415822 7.360989936339147 9.529464448649284 -0.886271600990422 0.1283384140677983 -0.5314732486900395
Ni 4.428758041715018 0.2423634169702526 10.506035843086288 0.503399630382275 -0.4896565697645696 -0.42131587640664214
Ni 8.477609478015776 7.050520788739471 5.03705494849051 -1.3093229720309323 0.08288182439689597 -0.5936582068592163
Ni 7.34682553296755 6.36726822764617 7.273527705925387 -0.08778311835325527 -1.2864460674327587 -0.23376341387253288
Ni 2.1781390987906946 5.4846664911268945 2.576847469477825 0.29980476967332237 -1.283881649139692 1.319869637198527
Ni 2.3171961932413647 5.2343983350917735 11.836834827153067 -0.06872147373611391 -0.6358898618349178 -1.0052941369739332
Ni 1.1897825563908824 3.2925360588450285 3.803378226847506 -0.8577043308756906 0.49964916220090727 -0.24129006126688118
Ni 3.863402504955205 2.296783056292331 2.2617227420947263 -0.4035847776754663 0.7098856965960936 1.3394439597860288
Ni 1.1005058249149868 3.333180153921597 8.166828804631335 -0.1427813289660057 0.43631929179400986 0.012074671776346947
Ni 3.748411232824637 2.7114493808487223 7.053858304749344 0.8594115433747843 -0.06525254135090697 0.28031323660761404
Ni 4.183554456917586 7.107397016811657 5.898412812634713 -0.12846259835048845 -0.6904975218774689 -0.32322057749410144
Ni 0.5723448272466464 7.434927211044773 11.420227387253597 0.6877217589045446 -0.16612000369194618 0.6343497710413075
P 0.1692687193140621 5.813235104642559 8.2291813280778 -0.5697096664634188 -0.6332220851947675 -0.952216026202031
P 8.297343534141888 1.870612139158238 7.937946620452056 0.7288321557916093 -0.12034151190525083 -0.5350285701414657
P 1.8439047239263917 3.2840647436452954 10.537272223820615 -0.5309029780088663 0.3908295348923269 -0.9529950704599006
P 3.9261448910796792 5.928627170180428 3.9919843171696465 -0.2671831269835592 0.7002754271998392 -0.0903886742969024
P 6.9119373592247 4.201581051304975 10.897378724020188 -0.7262194007591106 -0.6730813832835504 -2.352442921603387
P 6.2335034279600645 7.728399074598532 10.599278607506228 -0.43884617198092163 -0.35113093075112434 -1.5088842861004592
P 2.3617844598034003 8.69661574828156 5.602632743412553 0.014517476889884676 -0.7418522222003612 0.8119482076864983
P 6.9354202093160024 3.9966207681768124 1.6331520651686482 0.6708530081736639 -0.9323411416549748 -1.4609874624191805
Ni 5.500251889306188 2.778181483164038 0.42342092782355595 -0.3587054006642726 0.7392980883199397 -0.09935282546872566
Ni 1.3890133155828817 0.9766333352363109 7.065910344685652 -0.2091705550245172 1.5516769557859533 -0.8934817455856161
Ni 6.984262351360054 0.8708384500150437 9.355616664656829 -1.2333201341420568 -0.3805122121267189 -0.14570107371596197
Ni 2.831696511979555 1.563385774581256 9.042477686428077 -0.057149966848430614 0.09720518299810356 0.78213549520044
Ni 6.6648117878604465 1.819456326081141 2.4671803734055833 -0.5175098445314119 0.5101084098610182 0.7718585387544642
Ni 3.9827387419785403 6.660293753087256 10.717559118258974 0.42973598214953734 1.0436987048940607 -0.8105893796657588
Ni 8.617459050339969 7.046667706664754 0.8181131663907272 -0.9776753468154001 -0.860190330522338 -1.498736141922864
Ni 7.4903277906628105 3.8585383304211653 8.360886596186853 0.4293035225978091 1.201567781431124 -0.5182248683205655
Ni 2.681098389186883 8.457141687420293 12.236870370554824 0.833151838347307 -0.2342166993598676 0.08354079813713354
Ni 0.13507284362447336 5.256396427787854 10.344854041658593 -0.12000392606017399 -1.494061105044698 0.45307594242705845
Ni 8.622714909340234 2.5354099856336263 5.781893060191762 0.15291558918653017 0.2148976873162815 0.2569989873617058
Ni 3.6963718524632663 2.507044743126133 11.362967672762156 -0.3164228378459776 -0.9171271529186978 0.3385672351535008
Ni 1.1468885528687933 3.2103551924665434 12.873067052948876 1.0391056862067394 1.669740727400621 -2.0101311318057897
Ni 3.071097701312224 8.535678977368784 7.749940809346756 0.6250338929570203 -0.7859353285625046 0.7244936763172555
Ni 5.468361486602678 8.026051942105708 3.6060803849516176 0.43932902515461114 -0.02264987618903196 0.7583530480688616
Ni 2.950686609242041 8.297097592732863 3.4121155045950657 1.2715951184628553 -0.31493648310843825 1.6660223980087694
Ni 3.606074919586973 4.390236329908921 9.475910251387146 -1.067693010926129 -0.10297448138171299 0.1376175253768791
Ni 7.208387846509978 6.088534630751731 11.892068713149435 0.9781664275192057 0.7744910912813049 -0.9527243332970172
Ni 0.590199262647718 9.056500901213012 0.27448518677706796 0.5981614940462084 -0.11944496823291041 -0.9722665170950029
Ni 4.833595818851504 0.2874800021146368 1.4864352621680257 -1.1166043919148512 -0.5946205707724856 0.30729105074803853
Ni 6.046952314744439 5.582997510031322 0.46369884346890994 -0.3326357001604142 0.8126953702651682 0.6817819963813418
Ni 7.785858274899517 8.942447850013165 11.51205735491281 0.3147829882497095 -2.2757196606087193 -0.8135410060949151
Ni 0.2914287280706414 4.932291195398931 6.127321412743109 -0.6868354996448494 -0.46770294831161385 0.03996317065649892
Ni 8.151891963056581 9.065436772407569 2.0282287010491835 -0.01681501467480975 0.021950279018846067 1.7970692121466663
P 8.588210240548204 1.748260842639084 3.613933203052359 -0.1450446710788857 -0.8547568182115926 -0.6296942745471671
P 1.8908886419911473 3.2805851281546525 1.670535159340373 0.3964810767511494 -0.722533210156775 -0.09873756048222997
P 4.949853233791495 1.0491040704288652 8.19875837578147 -0.9696504196283945 0.11568447274921366 1.055554318681066
P 8.37156318602084 1.5721394669543132 12.297837424063783 2.4615065466019734 1.6328682798543037 0.13923603481690858
P 6.369509027150615 7.792434930355654 1.5012600637675584 0.7139367267370156 -0.6105508688494969 -0.16970746393288838
P 1.9864869785730799 3.2383196415667372 6.020665732590257 -1.6823193353965804 0.5745014314251073 0.37718906129075686
P 7.1170251675279115 4.3590473156681835 5.987416275878359 0.5956315285355032 -1.2465271197506338 1.4595934102851313
P 2.1066248024110132 8.580540512163068 10.025462686275972 1.0016578257729265 0.5199922446336335 0.27137299669519066
