# total energy = -340890.7433737949 ev
CRYSTAL
PRIMVEC
9.06386898577836 0.00000000000000 0.00000000000000

0.00000000000000 9.06386898577836 0.00000000000000

0.00000000000000 0.00000000000000 13.26588845060366

PRIMCOORD
 96 1
Ni 6.625842277576625 2.171612358241441 11.549945881685563 -0.7813209697189447 -1.1468809314112054 0.4219092870162669
Ni 4.714000403024818 0.30947402177089317 5.776259557038167 -0.52425616211631 -0.3788222260188056 0.42153313462377084
Ni 2.8329756828534998 1.8046163050455817 4.734635207043236 0.20307858319416636 -0.4141527829992997 0.1248604828215269
Ni 3.4043438528056016 4.321471431037832 5.073605777490722 -0.8717530956592728 0.6996244238794015 -1.0895730988286718
Ni 5.332999204232644 4.375084215790944 2.7278909991898264 0.12269227152561452 -0.9450768440540885 -0.06634088931907929
Ni 7.423915937341886 6.157484978075769 2.585203042473703 -0.7605865653850707 0.06544126032294537 0.5940343592517126
Ni 4.865367014246623 4.424618259523109 11.594386031076013 -0.3251777012204722 0.5144355764814624 -0.1723814112206257
Ni 5.646871921597905 7.878414581240457 12.4520791015379 -0.8114149608908477 0.8729244902595548 -0.09406818003101865
Ni 2.2333554334296406 6.477439551496708 0.41529559797901805 -0.7683081023990446 0.8283927263957669 0.6810710863572464
Ni 3.0552942601019084 1.7206395593587545 0.3352543841839577 -0.7250156102589965 -0.2673019119496106 -0.3936081260787286
Ni 0.544949711165982 0.2885546122679037 4.60620834171013 0.3818566419697552 -1.1273014666173813 0.5075277936180357
Ni 8.692803205089506 2.505380267919987 1.1264984187063667 0.8214072962168693 0.10849335431741314 1.5480344739373597
Ni 7.0229575672449425 0.8034086530206594 4.598633666440785 -1.546005616432789 0.5180101812065983 0.7656038160940041
Ni 0.8083176444360923 7.650086658887854 2.6798814982126014 -0.03412265271532188 0.024526010165822273 -0.27636556481377567
Ni 7.623520459038088 3.872266086597556 3.9106116905158177 0.5283172195595611 -0.336228302607679 -0.10952230980255975
Ni 7.623737991892538 4.083073550297959 12.66995819578173 1.8433989484511415 0.1752070535948789 -0.0880235164988355
Ni 7.603670586069479 8.688679144723881 6.5951628940039555 -0.0846232325680349 0.9873990018610673 0.777034683638765
Ni 6.968347756908932 0.5907240620637279 0.49661391090708157 -0.4235972162416511 0.6755858948729591 -0.910425058308174
Ni 1.6045948453783496 6.2800375499518175 9.326914194973385 1.2741654502931927 0.728313564283978 0.1861411840088794
Ni 9.138917770222799 5.006282984585868 1.478178346175124 0.43343348560578254 -0.9380970703021456 -0.2235975290831246
Ni 6.409804961500475 1.8416512735157788 6.876094792497157 0.40402623608825905 0.3850748917967368 1.1364000864845396
Ni 3.7485714672356423 4.539303393163198 0.8564603842866679 0.30073165236296595 -0.16747163262383416 -1.4771391324783785
Ni 5.987401477502287 5.533700454070034 4.856694704449197 -0.07424446043687212 -0.16055870755408477 -0.16738627199887948
Ni 5.691239560036871 2.802657041264462 9.410900910916041 -1.7366115210812414 -0.8402825358548175 -0.4838487048335409
P 0.3628556778661516 5.59848898922054 12.670568194161085 -0.9697573775199039 0.47540931581693613 -0.4688113508844442
P 4.204511266294949 6.193087855254167 12.55522139808871 -0.7002363464317876 -0.18654150477109163 2.1684203265994073
P 2.398118442938021 8.373628124397014 1.4420416071164288 1.1753453573994856 1.1936570112244798 -0.07116145063617421
P 5.944783165767861 7.50462062634302 5.765434578368574 1.080793809974145 0.45810604865179805 -0.012103468131753347
P 4.953069010065915 1.1291767919767883 12.671364001853618 0.05778708621179725 -0.3266442584636697 -0.24298724646364603
P 3.775654307614729 5.983984398913627 8.528838722434337 -0.05024861174290701 0.48900813754729333 -1.7101715817221579
P 4.816721229670131 1.0944893655608696 3.6475356138254282 0.031049155996320722 0.262889898924844 0.6666608244691873
P 0.38175203182275147 5.758520659144622 3.5970054508972584 -2.1807114852619347 -1.531863263494136 -0.6324322423036205
Ni 1.6659934935470024 1.2255075910226167 2.4928458435691705 -1.1740094121968814 -1.3737280777798795 -0.19361409534715687
Ni 1.8646825644807252 6.519740627818395 4.734768445916586 0.33464553150159143 0.8348793625613752 0.5751133539774933
Ni 5.845298140332499 5.617251197916895 9.299414416623268 -0.2532418343121187 0.6655431659249764 -0.08060871209200311
Ni 8.402052417378545 2.1494330709564258 9.97564339267634 1.2919322873583106 0.22490210682716102 0.2895285845582949
Ni 2.0731878054715267 5.42979226059418 6.910997032606846 0.41491640063820157 -0.4377303132089235 1.5575832939680594
Ni 0.681888455816357 8.944769697625729 9.028525284910533 -0.5975056056297645 -0.13572596478112112 0.2132159287384844
Ni 1.4230364867326035 0.8405868306200365 11.474476483381538 -0.6874435655424934 1.0055057387641069 -0.03679480023084631
Ni 4.347684139999117 6.90665000106541 1.7049853513203606 -1.444336741236377 -0.28230789844013965 -1.0496767768543664
Ni 5.6020873451879085 7.77733431487246 7.928358311848505 -1.022027390568214 0.21600351878595056 0.4028216742571966
Ni 5.19762125781295 2.9754778302564464 5.061626061918755 1.3818496784457492 -1.023561310714237 -1.046372652181798
Ni 0.35883675838017864 7.39458525746681 7.01721741904813 1.5523742389632942 -0.4306368966972519 -0.3239901086702743
Ni 4.7934180226371215 4.378020909326026 7.0838513579138915 1.3916512379172032 1.7744748717859182 0.7750343653792846
Ni 8.103878321009462 7.111973824059873 9.170032219504368 -0.11157970655222073 0.15411860835569588 0.35520792903397536
Ni 4.954881783853002 0.27687400437080556 10.34290864277958 -1.6745975412722902 0.31931172935799845 1.6928022372057747
Ni 7.92622648987489 7.391539797504503 4.564275258467222 0.203955586482481 -0.48112102148973274 0.850033187483678
Ni 7.240717018418826 6.077867953346888 6.91443314532027 -0.13231822465115275 -0.26625110208759306 0.8718065746050276
Ni 2.3714253489231583 5.366889010182244 2.5267274920367293 -0.9630671099839221 -0.031120375553888337 1.144942576737912
Ni 2.237225705465072 5.463346703393168 11.653128059259688 0.1840714459640443 -2.0230455258746125 -1.9366598020895163
Ni 1.144666943987451 3.3055748730161407 3.5427745102827495 -0.6233259091269782 0.7610174822749023 0.4410074412982986
Ni 3.49964137079279 2.5246409894077915 2.4811588909638176 2.119821848865414 1.3703396209236207 1.1151098096471956
Ni 1.018216908469164 3.3869230967116906 8.206583739077583 -0.6309685132739005 -0.4175900908156227 -0.014190689678085237
Ni 3.7267637985769797 2.4339297891019345 7.073823093323724 0.020057175761191266 -1.2489714675260684 0.32027717859506133
Ni 3.889732162036144 6.69619602825349 5.772783563301427 1.0147095167505622 0.9160958834407062 0.9483755694100183
Ni 0.6227811537145828 7.403739765091602 11.45289269228558 0.52555585476434 0.5332066864413785 -0.19564578106520497
P 0.03241058253933697 5.415743263744251 8.200070442860579 -0.29302502774732764 0.5783264615981525 -1.6219295214546132
P 8.614636399390294 1.39467564083362 7.9247762708452205 -0.5380323899647961 0.17363096735701067 -0.6119372076740622
P 1.5697895886662703 3.39363942359285 10.330717739061418 1.345431287717715 -1.3721486491079014 1.2628027169822058
P 4.161367250162267 5.876142486319793 3.5873089239101277 -0.7136315367917709 1.0589484319642797 1.570413098742876
P 6.724855981827343 4.195365822539092 10.67492813214048 1.3958261952304993 0.26064712563725434 -0.1783422567897509
P 6.300757554338228 7.702040755625782 10.252647916759814 0.3226870735881346 -1.6105081669915489 0.12430923830374721
P 2.342130924523824 8.485412819977764 5.824029771875496 0.1561371814476214 -0.5496499195990664 0.11087676694792518
P 7.080857562004517 3.9016602135551794 1.5917341217458576 0.2406431717115017 1.7004013897092713 -0.0066606998496272374
Ni 5.549607544051726 3.158123853174445 0.2555385632836795 -0.7961269243835257 -1.2487786347889718 0.5930686529043334
Ni 1.5269899995531349 1.1517911449707046 6.787558014348912 -0.155220583170623 -0.41921554223418767 1.3527100807673156
Ni 6.96509382796111 0.4224977482351166 9.165282752182199 0.7313873181132952 0.479813872642535 -1.4023182307127462
Ni 2.7858707559960325 1.5222133406241594 9.359057393379127 -0.45608953244240164 0.17190935668021362 -0.2899690145298232
Ni 6.484908179499509 1.9863196855942948 2.4100401497488018 -0.4074116076207241 0.09613020476636992 0.7080399016366064
Ni 3.9688688017114475 6.886464764946191 10.586762972618589 0.33369010956685763 0.6060329263744854 -1.5224985344497843
Ni 8.32869852608405 7.388158974391586 0.589192268213639 -0.05571734816696211 -0.857741097650897 -0.40656185802591915
Ni 7.404265469489858 3.892632600095484 8.384665197599697 0.8565316507238281 0.4855554031120024 -1.1384695674190586
Ni 3.1909985058032766 8.502434765838514 12.42961974070278 0.22597040019067535 -0.05310844978920531 0.28125168926148336
Ni -0.19816336653546737 4.601780641735169 10.273422304359835 0.04900291226126399 1.1527936973512147 1.0368230608201499
Ni 8.7077132694883 2.299820784333203 5.813338032079254 -0.1549745285980879 1.0481197167798917 0.04135310902549007
Ni 3.709732788847293 2.4300595170665025 11.37861700552035 -0.5201652798763879 -0.29673718649159214 -0.155158619584436
Ni 1.2919185587125663 3.081815140606998 12.593653108761856 -0.6636564904252248 0.4307420548165485 -1.0296926204229557
Ni 3.038299505847963 8.460713777128698 8.142735127135682 0.5947925775739756 -0.7247322746906227 -1.0449042951663876
Ni 5.425840413738329 7.876610871322305 3.5964090483213065 1.4158489182093292 0.2198429471366988 0.49466610716401915
Ni 3.1411653543962417 8.416599927019922 3.738207839494863 -0.5528720260807898 0.5183331117636557 -0.5063887949175859
Ni 3.384974364890572 4.0171973508751995 9.34086983397328 0.25146777313083146 0.20987760839387082 -0.025548795003381804
Ni 7.407773186767871 6.38120845500917 11.775585460511914 0.43277836852028695 -0.7549743614046159 -1.4810459237319527
Ni 0.5297323816102762 0.24574777205962003 0.555309713359187 0.9480516104116963 -0.5385823489309951 0.07492888809840645
Ni 4.657768160149366 0.28534237711718463 1.5231496382851901 -0.566085182336954 0.033613317179071144 0.2321924698409872
Ni 6.177760852884343 5.726262349603401 0.51672482330103 -0.6808332593148275 -0.2727289965024529 -0.46458471439760635
Ni 7.747369164171904 -0.11396002412525415 11.447983700870147 0.7238213328405793 -0.6977747722651725 -0.24497110966289426
Ni 9.094051618992383 5.103701447903949 5.6718437869019285 -0.38060888560558326 -0.9199823629793059 -0.1068139097324612
Ni 7.852374085788947 -0.15784727751064193 2.6746688671878314 -0.027231839132759554 -0.9610534219880029 -1.244563825376676
P 8.560117227743637 1.7206758148344963 3.3973673928859953 0.705142011263521 1.439731381253882 0.08096918075521539
P 1.8919376183695855 3.4716249519133533 1.374770478264506 -0.39478260600280396 -0.19349711015331839 0.47854297634991133
P 4.840622652052879 1.046088305445634 8.371876984918687 -0.1967827228831256 -0.46153332916579226 -1.6695957171823246
P 8.548887094132631 1.537476895911436 12.517864662271304 0.2915808391016333 1.0506391407676359 -1.8075140616290741
P 6.263160625994034 7.790757904765843 1.3018135844293834 1.7509083973198878 -0.5302692010796094 1.718257444054086
P 1.9195824186226693 3.274503930305461 6.253792211062365 -0.8089230477069295 0.23092003088646684 -1.6048247434535265
P 7.011310495662906 3.9762921103695708 6.161659796107432 -0.5823242699036357 -0.6251915015808072 -0.6458120060446362
P 2.4213219474127405 8.455973373675462 10.221712025696272 -0.23841531082224748 -0.17668672346419895 1.0643091820555606
