# total energy = -340870.2577758417 ev
CRYSTAL
PRIMVEC
9.27873288972147 0.00000000000000 0.00000000000000

0.00000000000000 9.27873288972147 0.00000000000000

0.00000000000000 0.00000000000000 13.58036349280177

PRIMCOORD
 96 1
Ni 7.393609830963944 3.468464578184377 9.367150847484146 0.1340820014197949 -0.9537514890099509 -0.05268730309138668
Ni 6.045855323541852 5.583774426413964 3.3178456910597207 -0.625073230835388 0.28941802712235964 0.5721154476914341
Ni 4.223818385262491 3.3333105551409066 6.232056295491931 -0.529053069284321 -1.6196972896899846 -0.037038540810536216
Ni 8.175575043924844 1.2878046143228286 6.852759914721636 0.32238471185636736 1.1842110353202315 -0.25182027137424373
Ni 7.451694698755522 2.752628894416859 3.1063184177299115 0.5320985409788642 -0.3679585438314244 -0.6235863618772164
Ni 5.333527000800727 3.6491307859750823 2.0861607089057457 0.5151783681847579 0.9697735754698201 0.3973938183734059
Ni 2.4383767694383987 3.499696793038443 8.146398068402382 1.3729426057641063 1.0519480893870463 -2.4365596468486492
Ni 3.919290372336039 2.2316837159359717 0.9072633659455511 -1.6922584488871628 0.17317382521493402 0.21755055155809627
Ni 4.847627596385141 0.526116216311598 13.205490770607076 0.6145216805717868 -0.8350757948428973 -0.532577794608128
Ni 2.3270319749497506 3.5590064535693964 4.405238954035857 -0.5845467314762514 0.03752293664612247 -0.26809921103992534
Ni 0.08903129767312293 3.0937243935999583 4.610397305120915 -0.7195918681402639 0.2508486514895938 1.7237030405496894
Ni 3.531365108337589 9.204159697945228 2.0587151449375813 -1.494923195934677 0.8920789517008185 -0.9948387459685641
Ni 0.8077842150562434 5.975318396233294 1.7620657040944885 -0.37572198982692706 0.7484144487989111 1.6242933937010995
Ni 7.303930877736212 0.9182920678396517 12.371629604681592 1.2663300134091742 0.20021386005186165 1.7750603119757429
Ni 0.7114607612174014 2.53075583393248 0.1352124790605771 0.3026198705246143 0.5598901092698357 -1.1539704912681352
Ni 0.6145193437691475 8.863732267529059 2.2735020371260455 0.7130088156061075 -1.0801890865106107 0.2564590556978357
Ni 5.809897146554659 1.3594828257748957 1.8453135675672137 0.8426371521299231 -1.2883813367822585 0.5341873051870929
Ni 7.167681964213603 6.561159032435316 1.312595532815726 0.024774378731202494 1.3803239858298422 0.3295773729500647
Ni 3.1521340170421284 0.4135197207582401 8.464342201191428 0.00248445698475056 1.244953347505611 -1.1736913667358304
Ni 5.293711958038161 4.251543239090164 9.79963073099723 -1.1084388253849233 0.2852209583218765 0.21247519391771796
Ni 5.8215512350444705 1.5747308709872003 7.372330912863876 0.34911518587267615 1.0146539809222783 1.1821896340148286
Ni 4.880381523430552 6.318334593121322 5.514428888406433 -0.2665084695140378 1.3757157976338694 -1.578372719909585
Ni 0.3404812470668367 1.8339322738238988 11.194266036265477 1.0736980794696283 0.7098512438137322 0.8001057065256155
Ni 0.6159278554194288 4.303522700650615 11.693507330680665 -1.0955750820483776 -0.06654400646882087 -1.084372785574655
P 4.411916858085314 2.4933903766486645 8.660605031070132 0.46884246123269574 0.529320978233727 -0.8394137600966189
P 5.510973488284136 6.1934985210338 10.963835200451358 0.34922677174987593 0.624319640498815 -1.206612285833567
P 5.5475873682051535 1.142508936248017 11.167553492194363 -0.16451743509151667 -0.3314187970341776 -1.0335029953079813
P 8.275015224136082 1.4460070098254494 0.9389214746385359 -0.9439350171401614 0.17520936758772404 1.309508605679177
P 8.441577757958225 1.0996133541712654 4.617119747088167 0.06394976337908341 0.3815483667007171 0.018985797073883433
P 2.569800741866499 0.29217245223136196 6.223445631384809 -0.01806791324530437 1.1167033793865606 -0.15348020344074859
P 1.90802295582322 0.28052207523469974 10.67974730817316 -2.1131956017981475 0.7665600093596864 -0.21119658431561045
P 1.9498143686879592 1.5510237084939924 1.701510837611837 -0.1368179122937192 -0.18716679705991637 -0.0818785799433622
Ni 7.511329114937068 8.81694889637808 1.4664072319223445 -0.028219914077641718 0.5530756574511637 0.6636084107961088
Ni 4.604116530838469 7.329410278208365 8.482797600877923 -0.43451951958110974 -0.6801002378035449 -0.431676907925992
Ni 6.2638777098834995 1.7670233310690955 5.119267140639509 -0.05551088858311085 -1.3337451096290385 -1.0432608460256936
Ni 2.8275175474433487 2.7178893185364013 10.049264832367491 -0.31218283162270105 -1.341570262100412 3.861842713887685
Ni 1.196650342568122 6.929747417124236 4.249635531611259 -0.24342690510422593 0.42609195763904684 0.12775965874619288
Ni 3.225296825754044 7.759034167742812 12.631693929675578 0.2226361936111198 1.0907203250592374 0.7593310957114148
Ni 4.500083377854575 2.849842178738323 12.160401106550328 0.6108061793934125 0.19936411045705665 -0.5145749302728041
Ni 2.111301435627995 7.650686403972484 9.272020638692908 -0.40734681582105975 -0.09660277352741428 -0.7406288913162212
Ni 3.819850192124802 9.028819482824229 10.572692999765474 2.1414075454559893 -0.789199344025757 1.3048873048570817
Ni 1.6407304979203465 2.1392025853802754 6.498651920555964 -0.10972568406261747 -0.5300059201158936 -1.1026828967377524
Ni 8.680458735800745 5.109677570214175 13.481742772973135 0.11805040187822893 -0.05386255434641046 1.2986806618257376
Ni 1.4706327668731884 1.2076641984896241 3.831604490929654 -0.0039684977294447785 0.5650310300408269 0.7130756642883009
Ni 5.722073939901738 9.177353438672085 9.155310880856481 0.650804317052905 1.481574799652229 -0.4389731844770891
Ni 7.692802572487816 1.117576981015434 10.1247046421267 -1.4632094097711639 0.6052865351267641 -0.9135075538882396
Ni 5.057224893277147 5.144927476402706 7.309821017364662 0.5927902024319662 -0.6527624692205403 2.150538047002348
Ni 6.546721324083288 8.004772129179258 4.176966351488243 0.3515631331925365 1.6189012761512507 1.4844950586228176
Ni 8.237519864592029 7.612309564805397 12.866158230670047 -1.5089202815447174 -0.8097617415581408 0.7440466587485185
Ni 2.4304991252283266 5.232425927405035 5.998989371668293 0.3590977510066848 -0.3354963095376609 -0.6143617579551548
Ni 0.40537948840783256 4.011456025974017 7.324120472596866 -1.3635539654603548 -0.03896455418865547 -1.4297794122474923
Ni 2.9795867005162204 4.7992575619126985 2.2558204837612483 0.638207711334817 -0.49303499931849926 1.7667754462591314
Ni 6.269843935121517 8.290315854645396 11.409596662200363 -0.7810628309615516 -0.5047880260893693 1.019106360266677
Ni 3.108672432260059 8.620991336810933 4.33539514807299 0.18612627161054396 -0.5457912079746084 0.45152453877953846
Ni 4.032416683536505 2.334826110563956 3.547733721000708 0.11727315739257221 -0.7862598017814587 -0.13262315748608128
Ni 0.23587002902488965 0.06370035692695551 13.51403740274128 1.4589102681751778 0.5168657831895099 -0.3198082093784428
P 0.3144154306770442 5.342313960832456 5.425205520962817 -0.15748212551129004 -1.1580436328962442 0.4739180759833903
P 9.253318424711964 6.942218034106965 9.877188875471584 -0.40785409447478144 -0.056164720117025856 -1.890731157878202
P 7.511848723978014 3.7351168035189413 11.702308208811706 0.7419416965903739 0.2120476194619961 -0.639329483644086
P 7.285169279864875 4.625652469839148 1.7128234687318837 0.725714436098234 -2.7431927522977144 -0.057794285300648854
P 6.552344236204965 7.999065708461716 7.068280754680438 1.4210296910793205 -1.0682136593162892 0.981590108488774
P 0.2773877192698443 3.446937917916572 9.419313100082217 0.36427106767750816 -1.06350031300102 1.1246349755288114
P 0.9222151160988017 7.15893211911337 13.550812732614306 0.8754619119694277 -0.047565665594105175 -0.06536798388284872
P 7.312829182562431 3.5652695982593827 7.023587882045982 -0.07924191365146353 -0.7093475647044364 0.5967576717201464
Ni 7.579685540020223 6.358353768007118 5.464004542475674 -0.2493522694497254 -0.24577766472458962 1.5790471202687901
Ni 4.918498558077165 8.980245316228556 6.285046211062366 -1.0923046388272222 0.02722849669864988 -1.1575960038358644
Ni 0.7748744052985487 8.848069766437657 7.333708187275627 2.804861432952105 0.64145707151005 -0.5079414841166866
Ni 8.251001863458029 8.80502572463492 8.542347580590313 -1.2737306767486192 -0.8113265149420995 -0.17883385171418878
Ni 0.5311471452759101 6.54752857384333 7.262533811018621 0.41684241401632083 -0.029575913884903902 0.02516055842602764
Ni 4.083867257323135 6.4871518590318615 0.7861276525282014 0.61118490288907 -0.11760380125911357 0.25655341518385494
Ni 6.435562104252121 4.075943219448693 5.151738066332261 0.27209264847003467 0.6731099225286408 0.1969732416273769
Ni 8.79202621987837 8.437077572514308 5.59908897502259 -1.0901917062492774 -0.07048576472538828 -1.3664125179550728
Ni 9.148348119707792 8.770044901699737 11.112716180908706 0.2434526161358388 -0.02033691178513917 -0.8862461470691252
Ni 7.938846732109106 5.425692654438705 8.0749787335975 -1.22274570106032 0.3695906801182086 0.09709359712090375
Ni 7.981120639083295 5.98050520790989 11.309197061009948 0.5021436464879868 -0.8422358029264462 -1.3409951063232324
Ni 5.1569898291389755 7.663936434516634 2.5426650875763284 -0.7136266516957646 -0.04271270837717805 -0.8517213738193783
Ni 3.4923758728008147 5.682657882652756 11.509453457517644 0.618151049794258 -1.2825989257725265 -0.2341251680873258
Ni 8.412906473377397 5.073110083957527 3.5731704393016397 0.6549625621956526 0.36600116299473745 -0.40148598616490855
Ni 2.180390880608201 5.083131115461506 0.1360085943411709 -0.7554628710052602 0.42014602446825705 -1.7426602983784827
Ni 0.6269435670875058 3.3989204752933424 2.3233826493103846 0.5420955042905761 0.0982163978714373 0.08609107536281302
Ni 2.503578425344376 0.9716967427695569 12.830862858690432 -0.36811332424173376 0.2560775039887009 -0.5418427648498216
Ni 2.8521618619568367 7.566352000880207 6.608761715699075 -0.014953278875722635 -0.4774623416912228 -0.3331095544730392
Ni 7.178788607463845 3.034424011801879 0.13707657649497454 -1.0273413465819599 0.5065291771501921 0.2652296028016142
Ni 6.957425877287539 7.143065485898737 9.490773261311743 -0.6426032692993514 -0.9580724849828081 -0.8820542204749648
Ni 0.5108656909598028 1.3447203617722758 8.763816088321384 0.7970111267606919 0.9765144937380794 0.7040616337151488
Ni 1.561916940888132 6.892530419566406 11.40013142679554 -1.820720275906703 -0.3541710031290287 1.06990647363768
Ni 6.383916677075136 5.357837280930748 12.763857417113739 -2.266629782492309 -0.4615731812647922 1.4999952111409456
Ni 1.4899139737854727 5.162659134925023 9.548068508935739 0.32895927975009154 1.3897506784603808 -0.11612413138979354
P 2.489697440964791 3.6307867310830777 12.181070411900569 0.47076718905923437 -1.477639983374197 -0.31484006673989
P 8.426574046900878 7.341602533204871 3.3684055064904412 0.2645338622861702 0.6263207300892439 -0.8041582793284343
P 2.8040980256692367 6.995784158988879 2.812493423173681 0.781557511209783 -0.08891388952358881 -1.493902982200279
P 2.8761659439020146 5.898972982145578 7.925201427544522 0.8178848848859075 -0.4559285813845051 2.0898870089791943
P 4.9217368358502105 0.40187862249445194 3.8011034402260635 1.4630682562076094 -0.6052333132913255 0.08789778955424861
P 5.798994635427646 8.009745529999751 0.31824198011430405 -0.36380389823310244 -0.5372543741481909 -0.22684457526551255
P 4.278034021445589 4.298233822912404 0.31037083101724405 0.3360940910226599 1.0375576249933292 -0.20848946979709254
P 4.378958798916674 4.415489170241825 4.378743532313996 -0.3236193555944169 0.8277255251254131 -0.7958898686720551
