# total energy = -381169.8915963302 ev
CRYSTAL
PRIMVEC
9.21645202297148 0.00000000000000 0.00000000000000
0.00000000000000 9.21645202297148 0.00000000000000
0.00000000000000 0.00000000000000 13.48920914886368
PRIMCOORD
 96 1
Ni 7.3008492318129985 4.710731323786439 5.048808290432371 -0.4347532328584706 0.3724808571818101 0.003270957441787915
Ni 2.069314644530712 7.033507611790629 11.684136609500953 -1.677696749022904 1.7874116344522444 -0.17524099215660788
Ni 7.5556011785513135 5.993513963879983 6.898920686461411 0.2180408609309535 0.5062430133683411 -0.8466344462147741
Ni 4.882212627683298 4.400671449246069 10.662828396155527 -0.11057749053995149 0.36954517159225386 -1.6168099408398608
Ni 5.94176358650812 2.8042713841819613 12.05250068035337 -0.17899840231651107 -0.8809941546415666 -0.8195507026241047
Ni 3.5314863042441877 7.681064738152944 2.4359755150735434 -1.057269758710276 -0.8795461093411304 -0.5256214178949529
Ni 7.637922526847924 8.333165575297864 11.237643754317459 -0.7535967643307989 0.6065075520180586 -0.6672526924169153
Ni 1.0302795076168012 3.650599728492441 0.9648786433481513 -0.30243243710415657 1.2363085273464194 0.7702731965452153
Ni 1.4018131162747713 1.925869787288386 9.952635341092071 0.37584180323424304 1.3080369062296568 1.9923689227263621
Ni 2.745691615958354 2.9513659563733983 4.315157522014175 -0.9398775592413361 -1.79643672076899 0.45427999003748853
Ni 6.37613496416366 3.5505735761118857 7.3145236814847046 2.4204056627966053 -2.056906697398432 -3.989096893752369
Ni 3.678442629657249 4.4741173543709785 8.031812482859577 1.212730482916163 -0.10986786606743658 1.4918525274291532
Ni 7.936710680724753 2.6696374549480946 4.579465086073799 0.05594206258325849 0.07167618548906365 -1.8400184620146824
Ni 9.100831502712735 8.225775477855846 7.018718893085216 -0.538086383131183 -0.9108382345861926 1.183046325588169
Ni 2.4027566575203108 7.611830751542538 8.105382810085024 -0.8911171020081814 0.2256976061452629 1.8214368423577534
Ni 0.3874061821058455 0.4158582907406942 11.926699798612502 0.18855185033290106 -0.9459039679410741 -0.5900350082843322
Ni 8.194080099800308 4.7523436040774385 8.72107036745105 1.0341930793964706 -0.011835559182347358 0.472303937418735
Ni 9.435803446716356 3.9838389795404225 6.417220985051643 -0.6364724738112651 1.5926413140134572 -2.4714777988820726
Ni 9.09427860541774 -0.2640384436643858 3.0365287367882186 -0.15032545986185078 -0.9518406451404833 -0.2036761075688492
Ni 4.814204429174488 2.1442720477658597 8.179060048152415 -1.1876198038914643 -0.68277367087065 -0.1919094539512243
Ni 5.107213867715226 2.1092126647698555 1.1729474179646575 3.2932180529583284 1.0909776924856824 0.8248453753641407
Ni 3.286448497799718 0.5512203196740045 9.336218762381412 1.6817742615263873 0.2418791010011318 0.0008458929400630594
Ni 5.162051756470805 8.315221143464736 11.129406664946593 0.46883654769542477 0.3496818570094236 0.7404620267210539
Ni 4.007718806391802 6.812386498005106 9.92475280918413 0.053833500880687925 -0.6442675443756518 -0.9039191388688561
P 7.6246231867682095 7.751238802856303 1.6438085719497926 0.41425305602258977 -0.09109624188688828 -0.4045772234957226
Ni 5.307579531840654 8.837323926677312 1.4130083403876121 1.0389118250283784 -0.05867308836117637 -0.2649161853262534
P 1.7135227357037555 8.595871320018711 10.050702075800451 -0.9196794870269064 0.103118463158745 1.4265184821080337
Ni 2.5547359492143453 7.020705960113067 6.008134021515777 0.9087746671889446 -0.34832354320931624 -1.5743733689422048
P 3.4848049754127577 2.765027732027128 11.070472063325155 -0.7434061969510423 -0.941314805908495 -0.5326628981227666
P 5.818548841168063 6.074314597614464 11.918390245586952 -1.9959088175588209 0.7634006377950981 0.20419804151059026
P 5.22122137761548 8.84923158252138 8.829928645679415 -1.3492342064035732 -0.22084644870054868 -0.4870566702478773
Ni 4.039082392179236 1.5160233881166438 5.543039601479275 1.3349283313038622 -2.0056622974011584 -0.2807174140245681
Ni 2.662190561819606 0.474245435119765 3.542374620509035 -0.9398521053200395 1.1853268940922295 -0.6113399404096955
Ni 4.8682681359711655 3.5931812332071873 5.128151803122776 0.7484715272890916 0.6531167672361655 0.41625594538523153
Ni 0.37629206276965166 1.3056210078811608 0.7158261504596599 -0.5581206760742389 -0.2991735638472267 -0.8113684239236285
Ni 0.6569468475495727 1.9703760334733766 2.7837002635597003 0.31334317047938937 1.1092566933005283 2.114869647066461
Ni 3.4457825181033246 2.725120495336093 13.234882980119556 0.6423129917524422 2.194574359286956 -0.7940767267227163
Ni 1.4917656867377052 8.53586300175189 1.2195928026337102 0.80891636283871 -0.05168817240291099 -0.4256612978595314
Ni 8.475126583785627 0.6649670039857248 5.464842615404196 -0.1965585226874615 -1.6025791419524595 0.3605925903846564
Ni 2.334785324819067 4.613636003107443 3.0448788422020936 0.5981113575345635 1.3483659448660068 -1.352720879400593
Ni 2.395853535053432 6.203464737972772 0.5244317806056066 -2.1802484295825875 0.4749287766360917 0.7603186564356649
Ni 4.870286538935447 1.0332472051259267 12.838880613334325 1.6321887372887762 -3.7185571915917506 -2.6811841718054015
Ni 5.734863457991481 4.4180260281581285 0.24826725118731896 -0.46591783138673304 0.7221190054374919 0.8160671149508784
Ni 1.2283318423174145 0.7184436227969011 8.135327983926327 -0.11731275238125603 -1.5425420833642207 -0.5206239646803614
Ni 7.5696839170418215 6.0539738882894945 3.167037382155363 -0.45672870868829724 1.4206913339032952 0.07439949795749767
Ni 9.128453209032143 4.373141907445579 3.112648334606909 -0.3015160959374743 -2.1935271489693644 0.6738879383452459
Ni 6.433581108804589 7.654512140252973 13.198934209516002 -0.7854725299934731 -0.2276896968746272 0.5960117946930574
Ni 7.406561935010729 0.7222214464273066 13.189775821271226 -0.5191008431676156 -0.7048368213182764 -0.02329650863409536
Ni 0.784137570235707 6.295150001391345 2.4863848986951638 0.5312858152695819 2.61089123981711 -0.18150882744319063
Ni 2.664365644466046 4.48413563757725 6.073826125664205 0.1439205847767715 1.0855979162310079 -0.6671454774150898
Ni 7.775321391649299 2.913357308772052 0.0888889919146323 0.4795912151087676 1.192909591535494 1.1614814549331998
Ni 3.695880156636334 7.996110713166721 13.1347121294443 1.0551110604960603 -0.6369931222014255 1.1304055594640017
Ni 5.5005628180008355 6.221252490123741 2.0395952737607552 -0.7398035672014485 0.3476727969991948 -0.5779469667715467
Ni 4.695035706214885 6.619329480229791 7.418336873947557 0.4118074226955747 -1.236366634277864 0.028196259928557888
Ni 6.754737591422559 7.655157291885392 8.21473969836073 1.1632526879010094 1.8890010625609728 -1.0325776552802346
Ni 4.296368863187768 5.735950999314701 4.2750945272861705 -0.8154572492810214 0.41737411815007475 0.042612178243571774
P 0.8356796557948168 4.896848353287309 12.631335333185268 -0.1462615742051223 0.45889512021199685 -0.07956175888472748
Ni 3.6075404652544467 5.498332436643046 12.221236403231694 1.2930805420301406 -0.8734633934821603 0.42142617673226124
P 6.0919180207276 6.55985571617269 5.002351843027098 0.08933066534603325 -2.4072567841194736 -0.9212879691646069
Ni 8.669879428709013 7.330222063991827 4.899604072402925 -0.671390882955005 0.9211586426755942 -0.3487480323412446
P 7.110732262191134 4.0481237314849885 2.2741862319859893 -0.10915464205049587 -0.7821054132934531 -0.7306830929574191
P 5.906768718675358 4.931262584650895 8.531344175389393 -1.9032251765801544 3.9917608137377774 2.197132349822119
P 3.561780781612186 4.632944469820542 1.1174367282209843 0.9894553701694636 -1.0695660595791256 0.2468539285079039
Ni 1.8137700829297114 0.10452101596813457 6.015876762749989 0.30741754902357377 0.30511769724580357 -1.2869016669129385
Ni 4.232637098356703 8.369939218345722 4.538228837019981 0.8440715705836045 -0.7431295462508879 0.7475032498385513
Ni 8.862945662936221 6.170073532769165 11.220405302699232 0.9957517447011366 -0.2282334851932392 0.7349457248885148
Ni 6.473995250349668 8.352215981357995 5.630989436946144 0.5871497163167372 2.769065249189102 3.075565171494413
Ni 2.815791949046579 0.4826858617621784 11.964024585483486 -1.11880139956617 0.9046899555966096 -1.3973845408565546
Ni 0.29470065746286267 4.032852070700451 10.589635943457639 0.44614064875980586 -0.541899072009054 0.3423169320039201
Ni 6.578601979320395 3.1602568384986434 9.628624523323243 1.4345400668609294 0.22979980123909455 0.347703136016498
Ni 1.3766153368028797 3.851499946827588 8.295539410450024 0.21804214648253417 0.12917119438173882 1.675074995129341
Ni 8.859627740255211 2.212363194341695 7.517387925717971 0.06594673920445417 -0.2840457070668527 0.8037697856407641
Ni 4.141716800445141 8.73655124169353 6.849523269257498 0.0272619210397466 1.5002415228237969 0.9074556912672048
Ni 6.489312993393663 8.494112474682517 3.3834710085087703 0.8632283460177133 -0.7016859343941206 -0.6080504710251464
Ni 8.27618025325152 5.563529617324889 0.8905968060366648 -0.15709877402994232 -0.8914148357542584 -0.8235451684954784
Ni 2.0922175274815715 5.443946154030159 9.99999592242792 -0.167829273073569 -0.2891704298879278 -0.7933637598160918
Ni 4.94211956497931 3.7874548226322062 2.7240246592061705 0.08132219321925994 0.9063658006371359 0.4908688449051159
Ni 5.062440344425376 1.156351353043284 3.2112007763299824 -0.4489326096826462 0.4355896127168369 1.7526536621457687
Ni 7.284443947445783 4.6601975180642805 11.809465608904965 1.2159723868922283 -1.2464278751686082 -0.07887758833350932
Ni 8.28140598147411 2.2179944464475203 11.233489899449872 -1.0070563710806786 0.15008866126069634 0.7393011736437332
Ni 6.013181872216857 1.082794850495674 10.058646657331092 0.4292521005345833 -0.4138185395883324 1.5767141012602395
Ni 6.80756629366575 6.387093325462884 9.965072021274723 -0.8502758996221034 -1.1044356177628012 1.259004169171722
Ni 9.121669900439857 7.498763319735236 9.487378711502275 0.4737306425629325 0.370155294372427 -1.7350158944593472
Ni 2.950315280857745 2.400222133250095 1.927904779866072 -1.2329043867608767 0.4528679401813104 1.7566584124297877
Ni 8.464748858955579 0.6371213378853496 9.566937889166944 0.19281808180842275 -0.019266047318463594 -0.7253472825668025
Ni 2.5143586734768335 2.347126153902045 6.948008430881762 -0.5777752170803726 -0.40661816518515137 0.37898574817986347
Ni 1.3993338907159056 2.5641275136919814 12.47788233083375 -1.6483326940384901 0.42582302024837637 -2.122271338847171
Ni -0.4510771183544246 7.518228466130494 13.046412068805546 1.4991385195676052 0.9387773841986219 1.89603431525867
P 3.45707267167065 0.5945468600168582 0.9762111925941782 -1.5106426635524628 -1.447605898905952 0.02875136110107952
Ni 6.975867921659975 1.0922417136846603 7.628133733293756 -1.3583695930459379 -1.3376177052105673 -0.08129365397416968
P 1.7036979979872093 7.805726466439997 3.936758578342082 -0.2856382483649532 -0.622004104991761 0.23366519773177177
Ni 1.0373853920252976 5.766678649921609 4.940827418424095 -0.2515279369448055 -1.1210004641000177 -0.8803763185519096
P 6.2485608370788315 1.9264872895651295 5.696843750647865 -0.48985120227387896 -0.8035900655297902 -0.03266740832603406
P 0.8601244511471569 6.00928331306667 8.052882213529179 -0.3380121339809792 -0.3091520152161772 -0.2220504963109789
P 0.7842767386592716 2.119175649264777 5.182108599077509 1.1749671481244603 0.5665340969489145 0.05335810390616617
Ni 7.44650603750933 1.3830945024827408 2.268655439205784 -0.2409447621123205 0.6610535055847389 -0.29411980347340316
