# total energy = -340852.98496666073 ev
CRYSTAL
PRIMVEC
9.37767139666749 0.00000000000000 0.00000000000000
0.00000000000000 9.37767139666749 0.00000000000000
0.00000000000000 0.00000000000000 13.72516999856849
PRIMCOORD
 96 1
Ni 6.40060780615464 8.071999584034444 4.965355175554442 1.14143944868066 1.4781773439349057 -0.5580646260253227
Ni 2.1980699450957393 5.688654982141787 0.10007194640263899 1.2598312930587077 0.5376809201626482 -0.531824204271555
Ni 8.091852114704032 0.6369689623057032 4.5611071992486725 -0.31054426757801357 0.02244573059802586 -1.3802329687779324
Ni 3.8197506860934025 2.688109549569075 10.66972807297979 0.00699777147407182 -0.8014768758415294 -2.889917382182184
Ni 4.139913770453555 7.744803246012415 12.440164942227598 0.4686128617203929 5.1668806853900175 0.9001961814913142
Ni 3.090702366846416 8.782873975819141 9.781091477076215 -0.06396493288773498 0.6716963300105658 -0.7275867134202825
Ni 5.453191027213722 5.14971082053954 10.880889792088187 -1.9559615877419214 -3.1353870287480516 0.1676922332750725
Ni 0.46006856620219366 8.17114032765225 12.86254370870653 -1.5909425861547954 0.39676441231952314 1.996144587718711
Ni 1.8568821211223514 7.794851879070326 1.0933014641627081 -1.7656955829313914 -0.024065782699952104 0.5010447569968532
Ni 7.213783216869214 4.873782212876814 7.480300393365195 0.47910116284622645 0.46804799035585837 -0.31991850970406194
Ni 0.32896590464335695 5.35750126672601 5.651325285006013 0.10835297208480694 -1.648820432308186 -1.0054111221677717
Ni 6.0059297436647965 1.2157213396341702 10.459197471166654 -0.29553288177084586 5.026121014839731 0.8784184234945903
Ni 1.1364612597006 6.841086416490621 3.5438530247467885 -1.0284626046705965 -0.2514400052166895 -1.6887324380117756
Ni 8.404484928810204 1.8254481660895396 13.541074511318149 0.24585402648847982 2.837090982409772 -2.684126542263177
Ni 3.363583231255663 3.5688698391385048 6.657970499684323 0.11093847342379602 0.8577812068602129 -0.5893850334051592
Ni 5.029948577185113 0.4698363488878073 3.9228319272961696 0.34533026490894725 0.34122009939531556 -1.0938113052797356
Ni 8.84637018987856 9.087488880750774 6.44683597582342 -0.42067258639568844 -0.6457384724942233 1.6437134500989243
Ni 1.7924575175795658 5.628459708467677 7.371006444761105 0.8295728627467971 -0.33651420927921405 0.9544621419237306
Ni 5.401398147247666 3.9551455079202937 5.456798617458688 -0.8137348672732759 2.1272716202752395 -1.0312604791307078
Ni 8.460347718228599 1.028261685366297 8.480137418498808 0.04578491954459857 -0.13301319383564836 -1.4877842708970508
Ni 0.984721156363509 0.7818614898775919 0.9797434883052105 -0.6434656172996466 -2.2306721334507777 -0.6761875330127
Ni 7.297572712161033 2.9031770688776994 9.292557926653675 -0.4022241498825137 1.1290791273430942 -0.5430591537554261
Ni 6.502224255061427 7.640354740297779 7.519279622926468 0.034352766448256966 1.4671701941911246 -0.6460068956642616
Ni 4.926916099874401 5.457364091053103 7.6032229120316925 -0.2156728749194092 0.3638396365670443 0.016894718872809612
P 7.692232019307777 3.6381520765437596 2.2381360467895606 -1.6733073617059568 0.7317071633465592 -0.5059239394660254
P 6.707407708557228 8.906049691617467 2.649150013118055 0.555671700313114 -0.2980461351110028 -0.02739227597002379
P 0.20989573344925802 5.953274117916218 0.3520809272449017 -0.44320162073613995 0.46121682636663797 0.7582520037146231
P 6.752279866919998 0.3169324765114643 12.338585066239853 0.029923527032309754 0.6475796394680201 0.778976123635852
P 8.02580517398324 3.7692988131588776 5.303515887151758 0.6122675944302874 0.3065544296923301 0.096072354945241
P 2.867870135495081 9.502394580772174 13.616686677019091 0.053321080020643646 0.14135976602813075 -0.7325882803999317
P 7.569159457896493 4.730932142168334 10.999845555689387 1.4716161457776205 1.7440471514236802 -0.5135338906027994
P 3.236131297230917 6.412236118875608 11.491878853134073 -3.321931104622305 -4.660356650446148 -3.0241127692513916
Ni 1.4172381235542464 0.6295343443015227 3.740108934927781 -2.297439311673998 0.06505122397337829 -2.1861660806186025
Ni 1.846716725163053 0.8854753828243517 11.337799958512619 0.2504838119510074 0.26922201179045896 0.5974930072242742
Ni 1.1517187313110968 2.8508309062902417 0.20442667540178314 0.5245814066662127 2.1109296885821065 -1.612705945973816
Ni 6.72970781150115 2.590928739305044 3.954962643325085 0.28189652193433384 0.17518108545294994 0.6891700613152969
Ni 4.059790944737462 8.280746552718929 1.2616616147863902 1.555019389895625 0.3978697295685599 -1.0211305897855574
Ni 0.04487215836277001 3.566347245491778 7.276700828594049 -0.5230773113168604 -1.057277986240392 -1.1959828311441791
Ni 8.69473324092851 7.124751603181411 4.918538088112374 -1.6481115791666199 1.7515095212389964 -0.5829066247696671
Ni 5.088643423411356 4.518818589397698 2.822402494988938 -2.928422737346234 0.10577981204099203 -1.2059592256306004
Ni 2.956667307394155 0.1190082785618744 7.197849615140022 -0.4515721041880223 -2.989402876574032 3.582042155250431
Ni 4.808785571369529 1.5895059499124669 7.418042969717423 -0.09710053909943923 -0.7743447955114278 0.3187771970107671
Ni 6.15944222692468 7.9296652852611675 13.46631383819387 0.42433872239336595 2.084858702526667 0.6106513989831032
Ni 0.9121539206145803 3.0809402107637323 4.605700840766431 -0.8260185697366355 0.3002727104486764 -0.6172028269483758
Ni 3.0721720878652596 4.624439304055979 9.626738754445524 -0.38346538121777185 0.739910525092958 -0.76759513549242
Ni 8.001104387122732 6.974286863175007 2.2250832657602735 1.6549746248350403 -1.2957627168479944 -0.29986004839129005
Ni 7.920522055500729 0.12577333081744438 0.6952858883685158 -1.9930494937331549 -4.677618779960706 1.466529218173016
Ni 5.184267540198224 1.1823649619337786 0.23169881980107418 -0.3248696830617502 -0.5464049302992073 -1.4741646232310868
Ni 3.0870450749422407 1.2672891554830463 1.9821068581541696 3.7455278066433233 -1.5877068528263172 -0.458691488841623
Ni 1.5228775935556265 4.507696670940384 2.074696360427727 -0.5423263893544595 1.0522136843436072 0.20148989855080784
Ni 5.895770235976717 4.157234329804869 13.482660057471223 1.94949243507781 -0.43369985189329174 2.1424311016244975
Ni 3.4284204523466117 3.7512280400836304 0.7491221629651357 1.2618025578524656 -0.752131235528866 0.49114652404653486
Ni 4.476647200441088 6.898393367327588 9.689599162373908 0.059017873295104814 0.4245181853940237 -0.6501456004229835
Ni 1.1685235187272063 7.662617332555504 10.924727593279083 1.6391230025147643 -0.21614338679792452 -2.2845940802802134
Ni 2.986103818386994 8.3115053154002 3.2208447548386183 0.4124951927912186 -0.3152301030894571 1.8402223504953727
Ni 8.959933792338987 4.979703013024668 9.203344386137818 0.6865621913788048 -0.4971765322906986 0.4687031074413541
P 0.7157845406078426 1.326471640629847 5.680463586043589 -0.09466287619222406 -1.0271354012187408 1.246717124274253
P 3.4383326511740826 6.077425111555655 2.1628258421125004 0.19677680934585465 -0.02335075891079849 -0.8645223822387885
P 6.267988775106303 6.19235785406226 5.8791633174302955 -0.7369226461092276 -0.9612853354931508 -0.6628789888292519
P 4.351614705676028 2.5573941858452187 4.183775015823325 -0.05216871158375532 -0.15749498102709653 -0.41849306224586635
P 5.144506212829752 3.5469167100419017 8.585245174523351 -0.38732126462875227 -0.8989674512905357 0.23964712634681956
P 8.79812206975809 6.333510566220341 7.3908120870729475 0.8976122228142219 -1.2998615695077163 -3.5286678533943485
P 1.5116337653681737 2.3882209910982235 2.299940528901509 -2.306390093109383 2.1815229254196367 2.0293714680926405
P 1.1419378198853145 0.09334346706611078 8.879374904895858 0.12127070858773951 0.29566657913523275 0.42127371031479705
Ni 6.900071970534889 8.811710315832835 10.054469358077567 3.4520921737211387 -2.983058422413243 -0.5225782601932548
Ni 4.795187947623235 6.4822310593186 4.0994059804297684 -2.1098076591625214 0.46862160347114135 0.3921006882952666
Ni 6.643039371043738 2.8113227760535966 6.852565624233958 2.0089882764505984 -2.306788356989066 0.4094108974389401
Ni 2.896350123989905 0.7887915891524272 5.258607155869947 1.3634390371490455 2.9663578218291105 -1.4731747485139919
Ni 5.435092121123828 2.570316617239973 1.9900534970249348 0.474291400162409 -1.331563014376055 -0.24557146225105447
Ni 6.7988306284900695 2.9592274117270776 11.616997622477387 -0.15046352810161184 -1.3495231983989018 1.2113857959628105
Ni 2.8782887285862064 4.238248034318133 4.023685033738854 0.9309843705167643 0.6756882247787782 0.5276783004239816
Ni 4.7708810229677905 6.013253705144697 13.538521909122464 -0.9095431699238529 -0.9704569746900897 1.1811375386012304
Ni 6.934675578551321 6.4167092682045626 9.347431371723633 -0.7082687298179609 -2.086027268913472 -0.39194976453969915
Ni 8.481334947155638 4.058112341530161 13.0159774195254 0.5844222900832451 0.8155025006966601 -0.4656180407581271
Ni 9.127522160594173 8.778747800337507 2.54869545771621 1.0611924908034498 0.09214088110131874 1.0571424891037922
Ni 8.49650801972219 1.690578493869402 2.411841470196269 0.6796955461659584 0.8420362853211305 -0.0720273981808953
Ni 8.988863909068172 0.6183270890331117 10.616254714272124 -0.08474690263009275 0.12251923628285996 1.9510343256436335
Ni 6.478892608247096 6.975937333367661 11.396928053164434 -0.4220260150997893 0.3727886182302161 2.880919035338316
Ni 8.86293115783439 7.4391192865241775 8.955015203611449 2.1710919598942993 4.374086682034467 1.4404662025373773
Ni 2.9281310528700355 4.238454343092215 12.202815137550996 -0.2997104101873032 0.5833655666839566 -1.0141983814420985
Ni 1.3911213082898128 7.862811864787148 6.215237497107921 1.1327966854039975 -1.0444075580356271 -0.2914990780211044
Ni 7.6303487647548165 6.162911965397873 13.550874178087028 -1.2112680394380237 0.49684100332815084 -0.1864286333423112
Ni 4.186933415601085 8.356921378712823 5.565584296264814 -0.6239784551093124 -1.947708346594194 0.9571949674738611
Ni 2.4559465350263165 2.1154620364191166 8.071484749866395 -0.37097367650866436 -0.8162303800016201 1.4249251694789848
Ni 4.247475663122515 0.5600214161761582 11.54535221184174 -1.1514214995940362 -0.515406425035164 1.9220839611578702
Ni 5.891859746940714 6.880716456457407 1.7537202319442615 -1.4214711494921133 -0.49900484374868903 0.8191372692357699
Ni 6.751267078392687 5.501636078436726 3.5830376253149883 4.27164441900714 -0.1969339037490092 1.787620922249573
Ni 0.6793363445976904 5.328608660683023 11.407757388269415 0.2560960159314622 -0.5934633172395908 0.44493428715653055
P 3.4755526295527317 7.027223819070062 7.648913741120705 -0.7362122503057643 1.5738169822181025 0.07221431738072079
P 1.158864517031563 3.3927009014158305 9.03455192485572 0.30226145874393107 1.725855825226634 1.5930102673171016
P 4.671280773444075 2.9463612463616187 12.442539368663848 -0.17905496658605938 -1.2051171893452794 1.6192203500535662
P 5.40180138712428 0.017163014469287703 8.970757500841037 -4.971926788185515 -0.7736194873096289 -4.001773717889089
P 0.4118682722066238 2.6707608572031134 11.73889141057494 0.28620594794296517 -0.45506443361199694 0.48542659084362205
P 8.360194186083481 7.7663906459186 11.04583834580228 2.987348308037849 -0.7444855460581501 2.0742086790119894
P 2.5520395353906435 6.340909549072634 4.897565863459814 0.9528929976643975 -0.212803266681098 1.527114693065557
P 6.772629414181693 0.6092438763705873 6.3301861816561615 -0.48628071131380124 -0.2796720034791893 0.3374477768370769
