# total energy = -340891.54900695104 ev
CRYSTAL
PRIMVEC
9.08688844369274 0.00000000000000 0.00000000000000
0.00000000000000 9.08688844369274 0.00000000000000
0.00000000000000 0.00000000000000 13.29957975410831
PRIMCOORD
 96 1
Ni 6.532745624485024 1.7963687434112214 11.379172899182006 -0.08847063133858311 -0.03705628142234908 0.050072491176358924
Ni 4.834160884391395 0.7049062608827147 5.806144418158507 -0.5301319041707967 -1.4414108258388336 1.179169873351898
Ni 2.6219852263988424 1.647761774704233 4.685654780142804 -0.3288708338013433 -0.5304977721506476 1.0456859105274183
Ni 3.9007284735752044 4.241750298731409 4.962644939303493 -1.6983650760055333 0.9587887943235422 0.1542872727230762
Ni 5.077326011124855 4.528696052542665 2.7108795270451584 1.2822312580204627 0.09922324186939685 -0.38217468743080635
Ni 7.3362082741775705 6.341457542165664 3.0023132949107363 -0.8374131847268224 0.01527286699867047 -1.4567765096616268
Ni 5.228622698722467 4.759166796538956 12.044697495537436 -0.7676609557333489 -0.11999261320626432 -0.746988772095978
Ni 5.5291715240852914 7.753251005546485 12.597361123766746 0.0006252922888247296 0.2772587660520064 0.20896640943351108
Ni 1.4221434289768384 6.730103748084576 0.29646336045328225 1.5489999231744227 -0.4177487278806741 -0.6635181650751476
Ni 2.8502296827998532 1.7673543095674271 0.3049341575811198 -1.1700568553070365 -0.6888939248357748 0.236456901544296
Ni 0.6632801349838616 -0.17162223899811346 4.387132330836091 0.177800525353668 0.8847798469362439 0.8474739113969342
Ni 8.637696002378368 2.136936224160226 1.3365676598807112 -0.46999534389021635 1.4461650526943675 -0.16719986701968623
Ni 7.140140488694466 0.9716609492380008 4.959891612195861 0.2842565375260782 -1.5063872307102184 0.6996300803063564
Ni 0.7654721877401085 7.330965139718482 2.480265210216192 -0.12341475151393583 0.4524984726570336 0.21772924322780565
Ni 7.561317754168901 4.011515813826862 3.8412638775608636 0.41782354698266755 -0.45961554331778903 0.06580532853058345
Ni 7.390729603041574 3.8531949616939367 12.749402027503352 1.0932639174166978 -0.5973104588998229 0.8531028275479372
Ni 8.06890223900464 8.545246002401303 6.932378786858848 -1.057716102219075 0.3693587666130606 0.0036656217770453
Ni 6.635709154044696 0.8927667689941575 0.4531085904124537 0.6504757300688926 -0.699635222512679 -0.2831468494016672
Ni 1.9137168169028473 6.222201222163799 9.38026014510745 0.6344772977581072 0.0832327799784115 -1.5675728010806036
Ni 8.80763898444747 5.105277279055801 1.4246241494401506 -0.07052613104502048 -0.8763630836274585 -0.032090452776641507
Ni 6.423921052072471 2.1096028646230716 7.173048654107966 0.5561607241343905 -0.20831154945833155 -0.5862984240600355
Ni 3.2044093219885705 4.609969180102608 0.5299245993377641 0.9455890078038167 -0.41346398446239113 -0.401770864395179
Ni 5.993447900026723 5.742558918370862 4.945994125468426 0.22235542914590736 -0.6163317371973321 -0.22441976787410384
Ni 5.272803148878599 2.452660152723532 9.232913527786033 0.3914972503833129 1.5230937448316222 1.1286412684747271
P 0.004483470610249973 5.382354672342672 12.553552327335703 0.06123287866855261 0.5679993686405315 -0.06864999706823016
P 3.7171733330663894 6.362620904653041 12.619305958634508 0.7141467858652927 0.1949893784281287 0.17894980846676278
P 2.4532508004528926 8.555296100688567 1.407760702422514 -0.7737719537270933 -0.21699956415063273 -0.389407971954452
P 6.294560112454476 7.8065183438466175 5.774583838256764 1.3958760746318282 0.42968610274820834 0.3106836213693553
P 4.7470267139785705 1.1816952817984343 12.702747217705609 -0.02264293421049649 -1.1402048049426106 -1.0886518725659833
P 4.03208852858488 6.084762038985787 8.291849039617698 0.22895313696808314 1.555208880198612 0.12413208929593461
P 4.457645674144723 1.1666383081438252 3.7326464861979938 0.7381130668729029 -0.0956496655855256 -1.589641607955185
P 0.21909486872881664 5.521729362695355 3.669393566516419 0.6025418825020913 -0.04025061998993068 0.1241806831456829
Ni 1.3490848482990725 1.0856287003400582 2.381582513661158 1.0036326901111103 0.7228828801867099 0.6731094083080086
Ni 2.188840529238758 6.693029244457053 4.643335324678564 -2.322858008857419 -2.0267921374012383 0.7590937828896281
Ni 6.04079967414511 5.705802455828379 9.21996016873676 0.11904413325006594 -0.4403350978216222 2.2484114597120697
Ni 8.608090920805212 2.2668423770668604 10.0222169883726 0.32658743708380533 -0.30560543551549946 -0.053270686398682446
Ni 2.725684793898179 5.435413012215492 6.7675444533043025 -0.5241890563238005 -0.44691146548755933 0.8793756452015372
Ni 0.506782112612623 9.064143662976322 9.196140708844892 -0.21272613358625944 -0.8326041933739532 -0.6970443218570511
Ni 1.5284963678142232 1.166683742584545 11.351975842967011 -0.36411808703941156 0.7435830888485387 0.301173624996391
Ni 4.116351242344199 6.852649521594571 1.597811150576661 -0.35352359935301697 -0.6964568247846973 -0.31367201457371785
Ni 5.578013547859296 7.732878202327636 7.949796761345964 -0.3753250114988245 1.0850757251789505 0.12447815978144369
Ni 5.5147142850481865 2.788202584328904 4.824715064165705 1.0039772179347226 0.07450337052521362 0.04688406614604829
Ni 0.9443639372534226 7.4021972558793045 6.926141546836805 -0.14809862741386107 -0.4755545831455487 0.22632212710313923
Ni 5.061869214391909 4.436527746098065 7.467661015446315 1.258625959896697 -0.6461858444442871 -1.6254136233484715
Ni 8.077607477846593 7.030579878342249 9.22763404577437 0.4888106768245066 0.801983897384935 0.11529932149565304
Ni 4.608851492860896 0.5208240808615473 10.497690227885066 -0.051925999445329926 -0.9267142823865008 0.5213675277146054
Ni 8.430969297102349 7.139431711419234 4.8463000582629645 -0.5740201209133147 -0.04658196152459719 1.495424818161444
Ni 7.213180895595944 6.167316417774034 7.209049996245682 0.4660795537755779 -0.6085410375083197 -2.202603914459652
Ni 2.1688766359863885 5.221707576844882 2.5687605964729867 0.002532022393234349 0.36791406374673413 0.37363399694964683
Ni 2.534551188677267 5.025839702900946 11.45992807411774 -1.2526332326483718 0.1000663065959825 0.7658401004745262
Ni 1.0900176673136108 3.3486818450508706 3.8537528966259784 -0.7593568067430276 0.09396585012519947 -0.18657955709787866
Ni 3.4765707087895374 2.9253146395337315 2.774611325731922 -0.3697907119441567 -0.9298530851257987 -0.002117046343002806
Ni 1.0811306907087779 3.6341010016539346 8.134873955618898 0.7669351333109179 -1.2468071128848979 -0.6733886301113241
Ni 3.676618551279714 2.6001766948532405 7.385894469860153 -0.8331585232155264 -0.5879094773008972 -0.8160953970856526
Ni 4.220995846210512 7.090244385895758 5.792791236030898 0.09304770918630426 0.8610891881875234 0.33360526316253514
Ni 0.5319418885057323 6.878092808397772 11.11122691979104 0.4648667644143994 0.6816418712590518 0.8897798712539967
P 0.17820023732555562 5.560330463531071 8.024926243831748 -0.02510142305331806 1.6210810574113887 1.0301003973843357
P 8.534750646594983 1.3494301500485444 7.860197318179673 0.19511202004892203 1.8083270444486728 -0.4018456834971724
P 1.9998241689553984 3.3718988442587925 10.116537978618513 -0.11622029064802565 -1.9065542409533873 0.6005953002986818
P 4.054742140727873 6.102426949537724 3.68810619527136 -0.2866566623271386 0.6794970570019072 0.7565453054361615
P 6.87688425227462 3.857075062931425 10.685919663655158 -0.5530468610957572 0.8504227096126127 -2.455678884176603
P 6.429573096498039 7.9304998456833635 10.501307718055195 -0.6879212765098603 -0.41364601856621014 -0.5144278631719786
P 2.4764859734371023 8.556123007509672 5.83348777327262 0.08545884109545282 0.14220103098250347 -1.1619743354092182
P 6.910896474597615 3.7147471339319416 1.6506105141373772 -0.6323335119422271 0.04690077831659665 0.37603129353722986
Ni 4.927864874932331 2.8198249550700267 0.6832131328165416 1.4828289837743043 1.5813243463387412 0.7525017314944072
Ni 1.4108211663494135 1.0367957634541984 6.781681833878739 -0.5825001333598677 0.7422101197604121 0.9427011447330604
Ni 6.954422668807379 0.5223924777552019 9.082960790944918 -0.687122434757649 -0.42804831003446925 0.6614949639975317
Ni 2.559149394883077 1.2046487612501802 9.166641943863022 0.7606058486587803 0.6460709161329776 -0.2378072449246034
Ni 6.515507797675854 1.754532710396242 2.7638251895049932 -1.0256192216845306 0.7373188531063818 -0.6727839066477898
Ni 4.225184901644895 7.18357581402279 10.26123758542358 -0.4298167147888017 -0.32946270174907133 0.7800672998175017
Ni 8.218926762262091 7.550786050810004 0.19068016950252625 -1.5170357115630004 -0.7596347429947627 0.3335967785221029
Ni 7.6934411077826725 4.062656820301298 8.294575106060899 -0.5778968302599016 -1.0380325077472188 0.5409711608781457
Ni 3.0477513703859977 8.474004799352336 12.50008871225166 0.4358258970973591 0.34662198713717723 -0.12001472469345138
Ni 0.14231248128963905 4.587270133518894 10.355437720057179 -0.4945907738413933 0.1473229255901011 0.2229840638688418
Ni 8.69176298683517 2.74399487350834 5.882310714581521 0.27455396552633365 -0.25291916086537736 0.5313904591682461
Ni 3.8259888185907984 2.8200339534973384 11.417608618653498 -0.4427290519750956 -0.5497640765794273 0.1753528351441238
Ni 0.9424647776313265 3.3829575871300417 12.791388902861522 -0.1254711198223323 -0.2752849301550872 -0.5191643494156994
Ni 3.0327580049483966 8.044921941192621 7.8888982543825 0.6168040488480603 0.6059753336636725 0.9572494748608804
Ni 5.550434842342254 8.241280507096334 3.7360649735177667 0.15796909245003762 -0.19154615707453465 -0.24589130748431848
Ni 2.992203223161721 8.412495653505596 3.5507088117788106 1.2601879050671783 1.4539503530667413 -1.1126814027113612
Ni 3.8584744437056013 4.426068737844321 9.586961407096663 0.1434685848410174 -0.41959657972269027 -0.09174184589068717
Ni 7.238451531524411 6.143290685521295 11.54152106014035 0.01831396781783943 -0.5535446266677821 0.07482064465531629
Ni 0.6873285844569597 9.251451688288611 0.168384580752406 0.6035343283223477 -0.3858305390158387 0.20963798157923896
Ni 4.574221362144109 0.06360549094156209 1.510646084744148 -0.10451020129994905 1.5874374012150145 0.12789078500741843
Ni 6.202600804437188 5.669045993285895 0.7806690994721354 0.4579312136368307 0.3478566308752267 -0.08258923285714163
Ni 8.316129204738468 8.82154192330779 11.230257884966935 -0.5614499975577879 0.6934854008611993 0.42286548028194915
Ni 0.5251239963312885 5.169567012674606 5.942118794967706 -0.5530424902203831 -1.0111570235126133 -0.9751227555968754
Ni 7.8809853921867035 8.831991844673391 2.4839226826941525 1.3139522432728274 0.09998943061146005 0.36355758655025133
P 8.595405624956188 1.5951305185741809 3.560816157461383 0.6820488768894835 0.7181803325047179 0.7092871437801462
P 1.7358591552603204 3.2986494389300027 1.5523930662553165 -0.7135222649074164 -0.5710147584280876 0.06876209716606221
P 4.67295948871682 0.6777664520630275 8.189761486075106 -0.31164341417946323 0.4042375807681168 -0.29139854788749814
P 8.43782989765107 1.5542213481498894 12.477478717171758 0.4799169738793025 0.5587233426552443 -0.5468906116863742
P 6.325673617459534 7.78848995776892 1.5620351632649156 -0.31217203298942364 -0.6243723481136214 -1.0233653926533473
P 2.065840411321564 3.4071105358167957 6.021384628936639 -0.3592247635028523 -0.5506019990996904 -0.31384093605141433
P 6.91785703091592 4.0711894082685145 6.174050710577553 -0.21068262079366942 0.19867248370667073 -0.5626021088843601
P 2.1631428095675242 8.309168648420163 10.426830674138149 0.4819972534470989 0.17591770650865832 -0.2725222798082855
