# total energy = -381166.9261672008 ev
CRYSTAL
PRIMVEC
9.31391984117266 0.00000000000000 0.00000000000000
0.00000000000000 9.31391984117266 0.00000000000000
0.00000000000000 0.00000000000000 13.63186315300084
PRIMCOORD
 96 1
Ni 5.596678634472867 1.778008696980834 6.160102801849437 -0.06251637336666653 0.6412033036280311 -0.1654476602152699
Ni 6.611122857298991 8.263225983944949 1.3594318190092698 -0.11865589667271179 0.01802394738124638 -1.4175311910077586
Ni -0.16818145313928337 2.1368554060991984 2.557133005859722 2.7613054027380253 0.2506319074930974 -1.8723696246518784
Ni 3.3068420926472055 2.5251527302049044 6.681180300629725 -0.8132664122772896 -0.6899534764485408 -1.047488768064112
Ni 0.18943023018928953 4.467645254091633 1.894379607428757 0.6399385779829947 1.883805377292646 2.3149531521880453
Ni 0.4496369383320273 6.749974776410717 0.5590727039603508 -0.5695870248426255 -0.971286926790553 0.9013619196646412
Ni 6.756103335759759 3.1522869044435575 2.3046298409352097 0.40867504771418006 0.12014327985151566 -0.8292915840609524
Ni 1.6482564776928375 7.018709309690206 2.748237878862017 -0.19201821161494673 0.02826130883853843 -0.446083056048993
Ni 1.559671784731231 4.396272685259251 3.769715042667566 0.5962226251522829 -0.9127328805057443 -0.8109362214822163
Ni 3.0520877532627186 0.042299167604367034 0.4436285285507706 -0.5848830317697477 1.0934984020250071 0.7199703345256052
Ni 6.765612848062755 4.34046367671904 0.24378812999609495 -0.07500936362735469 0.9849453981142521 -0.1978222198912335
Ni 8.906333530955042 0.5630059723693179 6.585785269376296 1.7952141612157986 -0.07157565535545737 0.9456879952755262
Ni 2.182754403777129 7.3712877506597785 8.012386285129462 1.0569761387292569 -1.1565775898736792 0.9700905924896065
Ni 2.3057819728371496 1.8070029298889907 12.819213769078623 -0.05161746706597562 -0.07971396819187561 0.5421903779972275
Ni 0.5456401685603688 4.69885400375822 6.178165286873139 0.5550541213337732 0.4052436534351279 0.24020017063681212
Ni 0.5932352310672665 7.377406996088838 10.504523031777401 0.42951126773324094 2.0469012494462877 -1.941805607956514
Ni 6.204030042666893 3.354873978001322 8.20657220286225 -0.0957620227936738 0.7771156733883455 0.6233071400739006
Ni 7.567634497828702 1.899592608443436 11.151764096476104 0.34991017097014576 1.3879221098920742 0.15560033510754492
Ni 3.2691579723945865 4.6378105721873695 5.197038818611442 -0.3011509992885717 2.106132267193463 1.481041038635946
Ni 0.16089051657631992 0.8158956649731388 12.16792394336316 -0.8181818473010359 0.2817854502777663 -0.42282691373452985
Ni 8.975284480591755 3.3940669532912433 0.24666613127094897 0.8436051724701472 -0.7407013964253695 -3.0575188555156636
Ni 0.3519842128746351 5.91143324639007 12.007953642081194 -0.40027576790689134 -1.6878855166304483 1.5740257557947988
Ni 3.539103315271911 9.193090499402308 9.049580688906909 1.3790726299212444 -0.25053137735949116 0.6944205110809589
Ni 2.648571483904225 5.313609978339007 1.4326001116144413 0.6497473365433003 -0.9420449992063001 0.6437078152174398
P 4.87206497368851 4.300013322231367 2.093213171233233 -0.0644002206529407 0.5535250862837564 0.3009306557476495
Ni 4.902279330114486 4.637549782427835 6.8155913426933905 1.4271239769025164 -2.5973214715524753 1.0149985087458906
P 7.445268217087499 4.756674819014834 5.44456648748085 -0.07097376010540035 1.240970965819095 -0.20909727858442054
Ni 5.779957951905154 3.6663780318443377 4.2873165865100695 -0.8005967872294212 1.002374649334293 1.323575368184888
P -0.18062764441302898 0.5041457236425629 9.107489055011367 3.5278196464614404 0.19182255066437287 0.001186306998617312
P 2.6886865372724977 6.960376228834509 0.15275294468687028 1.066603377406376 -0.1805336080141149 -0.08308905531169561
P 3.786676622349238 6.290891660431579 6.604037758367659 -2.3365303641381887 2.8806107600692776 1.0833266036983278
Ni 5.357599622420351 1.3759081434598093 3.7195223278773133 0.6302000105389921 -0.6445387957591674 0.1704314865831065
Ni 2.0167430939939655 2.86329459520029 1.2963095204981354 -0.9742763484361802 0.6191478664898885 -0.484310732071624
Ni 4.120124271673017 8.693920271814847 6.82329302312762 -0.22404464392287218 0.14545836157753658 -0.9038324926923209
Ni 5.737253628781511 7.56609770103145 8.133751319472458 0.6791317032426885 0.09006188708510296 0.6901838472917919
Ni 7.5656133771923155 9.060227430839873 10.23849698642907 -0.8041225409944925 -1.3333926113856263 0.8967676154257395
Ni 0.3213376905614326 5.5375818121785345 8.702745210999067 0.9938879520195205 0.8126128378536908 -0.36742555414608985
Ni 8.49343814417332 3.0931807682292423 4.322854779598526 -3.412335462648491 3.5625987018138385 -0.7360962935531904
Ni 3.6038164313162007 2.9680575671729685 11.181985904038065 -0.21814807593277916 1.0542091175070811 -0.04617932676953982
Ni 4.449520365804041 8.328795980627708 2.0243860967322993 -0.9505504655741501 -0.4965900636596092 0.7077581087301295
Ni 4.465391285455663 5.393579295316019 12.233819927245333 -0.020977373582615484 0.10251836768090086 -0.6075537338943859
Ni 5.277434713123689 1.4091215821204222 10.391392434091685 0.879411640645795 -0.9749512630160176 0.23091051780477007
Ni 5.74852347196136 6.516856673147544 5.851040857826055 1.811139059976171 1.0222955566279361 -0.9760385825429255
Ni 1.39806595910019 8.259677380431295 12.77379164410384 -0.2329632865687407 0.5197407907444597 -0.9907270377930357
Ni 4.46079020898389 3.2894250622783483 0.14784450885564682 -0.941528721691514 1.1444350409738742 0.1774896789814685
Ni 7.444728009728465 1.4472155148523083 8.385231815982797 5.293943832289818 1.8478780672684174 0.41845372436749867
Ni 0.9860181390369516 2.7289692412004705 7.830973477261838 -0.4033533783909505 -0.5461989849359883 -0.14123558174544065
Ni 8.06822044125363 7.655958401030774 5.427008816920244 -0.18067784690146302 -0.7690416381309594 -0.5426619183170074
Ni 2.5690306072464484 0.714177413443016 5.055403900208693 0.7080139334946774 -0.45774223755447624 0.4425747857854184
Ni 5.232439165684145 1.1515544389009646 0.9302026107527525 0.35004566810674553 -0.5628623045242822 0.8031144114449523
Ni 1.7864098528058123 0.3751768050251656 7.558718282228644 -0.12993764023411816 0.3491663508255858 -0.2011939645769438
Ni 0.9040426036955278 3.0530191452610533 11.588120316303877 -1.6306514747086434 0.7816261596641894 -1.2375994782437008
Ni 8.587369027205366 7.603716623844186 2.4585470256199984 0.12468539069624333 0.5382851294055504 1.2842904545423366
Ni 8.184076291926473 3.161898869866371 6.691241196995735 -0.5228837072488157 -1.141569546500621 0.6726077860812417
Ni 4.610194799436748 8.124476517953042 13.20997089945193 0.06143111072228775 -1.8632504359594297 0.4418304514202262
Ni 6.390764824413002 0.05362116873612274 12.540809524072422 1.5404484340599855 0.8717996326264921 0.12929177912000311
P 6.9621924432312605 8.610467548764065 3.911676879661732 -0.5767624595451422 1.1762370159758193 -0.7509112470788358
Ni 4.678698680914259 8.273657574326297 4.425461579095059 0.3588249569612723 0.8885650250102891 0.20722731525521731
P 3.1977854035622038 7.538882426840111 10.607907543592546 -0.825664014610694 -2.0195385411626186 -1.5860500339491845
Ni 6.204141809706693 6.808317171186398 3.18543887123228 0.8475631286766306 -1.3496286136285145 -0.17449331535730594
P 1.3709997076285858 3.8299025249919483 9.59741801119135 -0.4952474335887858 -1.0386043210902887 -0.10213244509639183
P 3.2245536095943415 2.8084728621783137 4.461477576278661 -0.15799274659912146 -2.5174390961035353 -0.4976593854643881
P 5.946230051447851 4.576385269897201 10.09322218809683 1.1314337436181998 -1.4155259876522719 0.6598720836821281
Ni 2.2432576279889465 4.438138755584392 12.858295908720743 0.10844476046766484 0.30531798618206774 0.6844343464025244
Ni 7.4159479969799245 1.9054603780329442 13.678075478326937 -0.6861053063470443 -0.3000351405165736 0.03290652092003365
Ni 8.799027858826909 7.888424529895113 8.313555613358957 -0.45149137154875796 -0.7257149503188662 -0.7835804551770826
Ni 0.4525857253987547 9.248769113062751 3.9609018781657146 -0.5453615766363575 -0.18568995540407374 1.573286049415297
Ni 4.127687174699495 2.629925016097566 8.788898970845022 -1.130504804046027 0.024347318496112907 0.17394541327363594
Ni 3.3542406314424547 0.059352955093874026 11.512244467159546 -0.8534609822183044 1.5193934131618994 0.9003437628127721
Ni 2.536851013703987 7.257713810382854 4.899837220294853 0.3619529610672928 -0.06323139715582013 0.6758499471676231
Ni 5.278338163362075 6.13073880631794 0.9062835328435209 -1.0339629656635356 -0.13889742053056725 0.9454203434364363
Ni 3.3748150806856665 1.7170397767698493 2.6281143900528035 -0.17128406439138888 -0.9410540960479405 -0.17201117236540053
Ni 7.48922060548891 5.370275867517686 7.607056595550213 -0.4977884548430846 0.9432852993713045 -0.5795441360553374
Ni 8.182790970968771 3.848716643358307 9.39881543260246 0.2995075501478777 -0.7576691346279596 0.4314017998877344
Ni 0.7592362955384486 7.351244194855617 6.269539498869759 -0.07095936192769715 0.0020939064145512327 0.3523455198845158
Ni 9.315223932143926 5.960992614621456 4.2815913198963065 -1.1327594044081588 0.06523120119466831 -0.271665588234945
Ni 6.747795319134614 8.967190684126226 6.594877518064038 -1.545620208068912 0.4697883700857329 0.7611468087639149
Ni 7.607861318236774 1.0918894674876485 4.897955808458216 -0.5031024108568303 0.31677636453065444 -1.041094177391678
Ni 0.8908950742470363 2.4226344129482116 5.169761141156216 2.908561993866565 -1.4286838651904685 1.9323709449061752
Ni 2.3287500995160815 5.367723853442249 10.582824225685394 0.7347690901013345 1.2406894300229343 0.12253954799783412
Ni 8.595881950070146 9.230728050055008 0.5938648520581408 0.5896457432657136 -0.6198492634322873 -1.3836692481529913
Ni 7.717691062680393 4.69103031097221 11.666530483075675 -0.5787517220610291 -0.9114560706758497 -0.04933818411349567
Ni 4.631812407718094 6.009303917575072 9.352685449708945 -1.980193463706093 -0.06864022687621726 0.004379360014618264
Ni 1.748045816394409 1.0210198503343668 10.15392473019629 -1.3023951345628473 0.953421616474358 -0.6908088824703006
Ni 2.6945822486219555 4.497626762518025 7.870042577415981 -0.27576084135024115 1.0196043829490182 0.3250033804261371
Ni 6.727751763330453 6.553143705402661 10.38604810680524 1.778163119270783 0.15896539492503592 -1.3116868442774183
Ni 4.047112452923566 6.047472361666825 3.5008529086843048 -0.1921603936197658 -0.8084916165964656 -1.117291390679547
Ni 7.397459865812982 0.9696256398662623 2.36947707742726 -1.2845503930719426 -2.2227233109173463 0.23141856778944017
P 8.309711758581832 7.922047781034993 12.108516036141383 0.8217330549874042 0.14848326444678944 -0.002605298833330997
Ni 1.228599185003205 0.2682474152643606 1.8507709026747317 -0.7404594556178926 0.5361732252688701 -1.1649141347638325
P 4.646658796171548 1.535707068614081 12.532072135736046 0.27545282319151915 -0.1954465205702053 -0.0002046598116383572
Ni 6.468824787793427 6.8166624434914755 12.642421596914735 1.3354425519361195 -0.3681027827187725 0.5123408987359628
P 7.816474498023763 5.749501433559612 1.7302376013862508 -0.8794689762462917 0.05761019431430078 -0.5843816666532967
P 5.660283394039138 1.0374123495050562 8.179077511071412 -7.1222259797041785 -2.3706172785195685 -0.5461848438686012
P 2.663604150757346 8.919969109810662 3.197490152298732 0.90156323704217 -0.5805239834701035 0.9861502170556307
Ni 5.254671492684391 8.220717253140958 10.9222989126304 0.023733853281830093 -1.084174810631236 -1.5622722148032966
