# total energy = -340859.1572656782 ev
CRYSTAL
PRIMVEC
9.36085072029301 0.00000000000000 0.00000000000000
0.00000000000000 9.36085072029301 0.00000000000000
0.00000000000000 0.00000000000000 13.70055123844270
PRIMCOORD
 96 1
Ni 5.802678952546264 8.264123976890973 5.303483512109625 -0.15655292882880137 1.2973483161675594 -0.7829047692662968
Ni 4.753093579778522 8.465307377841022 12.10192949910788 -0.5738182893151538 -0.5327104635312503 0.4036426274965952
Ni 7.126321948132478 5.512689162018087 0.3296479701515245 0.09534858940533902 -0.6061080025867949 -1.1453485539270791
Ni 6.3637308937030745 0.7545060877720164 9.550845905567304 -0.14823875253615115 -0.19742035646712452 0.1040034368668596
Ni 6.796922976606734 0.145238277379513 2.6415487258438266 0.8784091675232099 -2.1928802594139847 0.5076854022418225
Ni 7.0590267932176305 7.504004187018187 11.241096317702358 0.22321803425651882 -1.701769730811708 -0.8572957825833621
Ni 2.115879863844428 5.795639592900143 12.694218598694352 -1.6407042309589548 0.10265206504528773 0.8116561303673764
Ni 3.515027480315766 4.295750502344288 12.176446550255418 1.697100864581129 -1.279106596348552 -0.15411038082557973
Ni 7.856159386336112 4.533637798470457 4.81679884849086 0.07767816870876945 -0.39233157335915014 0.5408042962829783
Ni 2.920763241254118 4.9672604805014045 9.50053788622402 -0.17078372771620265 1.5404080677403535 -0.6696044804785435
Ni 2.78362678006306 1.7333206217996382 12.533524620900332 -2.3125337441132756 -1.0657654548861129 -2.347893868780124
Ni 7.207059284499228 0.0948769011878479 12.089517011221236 -0.18555960047379652 1.949211413502282 -0.11678670467445694
Ni 7.54193435362202 8.437917529005183 7.256633413156001 -0.05889368901241469 -0.024136230926571335 -0.6036777958787475
Ni 6.580855823213422 1.8690903988040823 13.449310675713509 1.0602157287124774 2.8686566730311953 -0.5362608998866699
Ni 0.7258328663198438 5.1480185054569905 5.959027623494901 -0.7748420468628203 -0.9673500536299919 0.6924489891768849
Ni 8.419748118003692 5.642758181011245 2.6400687753650343 0.6887098338494269 0.04122686786027094 -0.6541076703945251
Ni 2.031950477425382 6.537533806667879 1.35243603592598 -1.2177901568272576 -0.6356790313756924 0.8169870556619865
Ni 0.12225083657767806 1.6456936993962594 8.57685969827568 -0.18608821928375693 -0.7739961539227573 0.9170495056032271
Ni 9.216393946891326 7.478364817243285 8.82893617173109 -0.4599287036828337 0.6214975976689877 0.432776568748074
Ni 1.9302261140285741 6.494904493066235 7.7780627459217175 0.9489057308818754 -0.6056349196051182 2.9563354045961026
Ni 5.28936734941501 7.432178380416207 7.539180391377487 -0.3949229882354102 -0.5478951416914886 1.1264928546731567
Ni 3.4535454136193247 4.898186763973841 6.947247940198617 0.3545885502824216 -0.9501560583492087 0.30046760006830187
Ni 8.994307766566557 7.282891535155116 0.7371454542617819 -0.19251546296633942 1.395758060996725 0.12120668811902352
Ni 4.269502677280825 8.416499902847837 2.5301770698256196 0.061071156279707724 1.2346236834448285 2.3615045175850233
P 1.580195827795315 3.507716656002441 13.36531201900007 0.6944811891155652 -0.7400377946994416 -0.42068184236706896
P 3.506920983702015 7.188702656485871 9.263449070653456 0.22195048039800483 0.4766254476122243 -0.5457313012709504
P 2.5039058426356737 7.72809358936991 12.328180321861584 0.7577858627114821 2.2560514927558306 0.2523445193088299
P 2.094069081962164 0.9629507005272472 8.289984262739875 1.5951113728205044 -0.05018819081861679 -0.2826233727980294
P 5.348874276636276 1.1409753571096053 6.252712141752232 -0.6563563572193858 0.3665480366371429 2.8974820819033194
P 8.638567361471418 6.231536961625251 12.144031796821125 0.3143276458798458 -1.0876712538202689 0.69827768004352
P 5.55644177769092 4.162274133735189 13.107440242942381 0.9384020031370742 0.812947081264658 -1.1647408424107617
P 3.8458867445340568 1.5476107068802247 1.8429436709270268 -1.2837983453972663 0.05938194150274289 1.3129510557018227
Ni 0.3510187920559058 3.3501080145639532 3.8218508884657783 1.4065610651495002 1.5994087146442777 -0.4746295002281181
Ni 5.3156619787314385 6.061300532736473 11.81312198400963 -1.1729048662787929 -0.5917517338651229 2.8972342275585716
Ni 8.962724256664945 2.2471377108629276 5.601908365107377 1.2698285134807357 0.03309009768574946 -0.1686016324632193
Ni 1.6259984697480692 8.806969063643919 9.827556393443901 -0.46481122858611557 1.890103551596532 -0.2875328942845048
Ni 4.251342627129928 6.640634215101893 5.402223636337306 2.7641860667199296 -3.633137174154033 0.2261920292831782
Ni 3.8722749823564184 0.07390859585897618 9.509155485280164 0.857955013433916 -0.6865976726024304 -0.2777668160366764
Ni 0.8629711996810208 0.8892564681468563 0.028767766043164538 0.3625006060406467 0.8702965657184044 -0.16298582893833866
Ni 6.929706642271933 0.8512383095474458 4.981219380906054 -0.13656645840454545 1.5436288886704963 -0.6224825872900763
Ni 4.149281273111763 2.327500613205947 8.01382232070804 1.635289487701287 -0.7806041461575782 -3.1247539745142374
Ni 2.66568942343875 9.081410481336714 0.7400856974331206 0.505639061235755 0.3362473287710725 -0.28021939134222706
Ni 1.8913598623654155 0.21052927418234665 5.206483570007229 0.194847967754258 0.33370399352392854 0.08806491125973219
Ni 1.3241297598170625 7.913241853253728 3.459498914596629 2.3923580126307704 0.5597551263538683 -0.8793915860411371
Ni 9.305490522837845 5.419380203304608 9.944599788836557 -0.5940824388808285 0.8735783217934697 0.22207775000448848
Ni 7.436259711274863 5.918341622476416 8.417166395410074 0.3512900820368079 -0.5655817603379742 -0.9823195304556308
Ni 1.6477718082279602 3.9177406336878158 10.934286950828236 -2.490891941742626 -0.6683978617649521 1.12831499548356
Ni 7.628709438621414 2.557459268879636 10.783525771598706 1.109416101696528 -1.5075416560296357 -0.40463918708190955
Ni 2.467005369597097 5.036025288959392 4.680999116764518 2.9157479700920432 -1.818452305808133 -1.3947579018669851
Ni 8.09626520405288 0.20592373569046948 0.5847283405623083 -0.31405202362095597 -0.4715619170463879 0.6354851701973314
Ni 4.066128837291956 7.303794314529834 0.7368786700198744 0.3968883394918971 -1.9763733186290544 -2.753616775844516
Ni 5.256857115304666 0.3655487043467427 0.7104436279445467 -0.13382849064809207 -0.9682301422421004 -0.04878822514729662
Ni 4.449343338878274 1.068026248436437 4.402877948703517 -1.0221636590357621 -0.803029822150946 -0.893657351931532
Ni 9.221439445361085 6.841883142006096 4.5539807989796985 -1.7532987519289354 -1.524796843565658 1.2592126856381023
Ni 8.871306189771301 3.450765240993131 12.527441004099781 -0.08261725788159965 -0.8626624462119143 0.33928123050138986
Ni 4.386635000754116 4.866921522992397 1.1717454090946653 -0.27472545810719134 0.008274581303966395 0.3726901449791388
P 6.499350897098028 4.216201994002881 6.5820867750664345 0.24163587464207414 0.48912306585860277 -0.5253861619556951
P 9.235125008928412 1.2347336366515602 11.949675264208729 -1.701966420203546 -0.44775324466256433 -1.1558875057851898
P 7.5603658684401225 3.369981100373415 1.1347550718903932 -0.6791877532916045 0.6716292242180563 -0.9575173838102865
P 3.5656509603240423 8.314532157335604 4.559858477067198 -1.0527842121350965 2.0584714707823903 -1.3668272368949879
P 0.28665264729168494 7.145586578653379 6.696719751431329 -2.837904993670635 -0.7706012693085954 0.02897838951022106
P 6.729215944265783 7.902008832541832 9.179368974539859 0.39681300616927145 1.0534763531061149 -0.41457084437332475
P 1.2778122710816797 5.19619880346043 2.991761548663654 -1.165651270040173 1.0686252929324114 -1.769813975975139
P 4.853273402827444 1.0522438543362236 11.338657910840347 -0.6454294258942368 -1.499545782308353 -0.25763584961475633
Ni 0.17929398792280238 5.132872649197118 0.26553456835332123 0.3281354982972155 -0.5135757995843284 0.6294993849275416
Ni 7.233775152092353 4.933168262640802 10.922243280454964 0.26805678783776415 -0.4080968066132069 0.7679103527399936
Ni 1.6142318805523586 6.733456409584524 10.478811363087353 1.2101586084239289 -0.4916010950854502 0.8558119989489843
Ni 6.064155592167413 6.474769303440162 2.1014594735055323 -0.6450553303842697 1.235202438766434 1.3507061629634094
Ni 5.315212657902963 2.9536947136411587 10.959248595020185 0.8685515580028396 2.414211361060436 0.43442618853635506
Ni 9.328302915733586 2.4650583126737016 1.6884418958004375 1.030084713655052 -0.7160355182475733 -0.42853630541448134
Ni 4.3000564936171815 2.558095806719977 13.624814455231105 1.4996527401998623 0.4267388471944264 2.5054747246528075
Ni 6.584150842622245 4.1668983939282525 2.8827469548248263 -0.982493851249966 0.8949318477685814 -0.023969109221087755
Ni 2.207428982646377 1.7156192533278094 3.575666134373757 0.2646888998067958 0.7615772114331143 -0.8475014222007599
Ni 5.558426278016688 6.0393493380953105 9.651051938997886 -1.9304428746455269 0.556967279196086 -0.7932161784946339
Ni 6.750951839343301 3.2389198312173737 8.55454155829126 -0.8831158289702598 0.4139386101059645 0.46095843049892865
Ni 0.07714183365388347 8.180100981965994 11.84516791993055 0.7559637219010787 0.8077809636826864 0.3210240840634148
Ni 5.7630357502838665 2.0802431056359394 2.766784737675691 -0.667683866417063 0.5849419100321409 -0.5749009808563712
Ni 1.7018213595533642 3.395667274401283 7.885516885966651 0.06564874834806113 -0.257837166992285 0.006835534864594679
Ni 7.771144141248249 1.470505380543655 7.208996980572029 -2.407933241361208 -0.7945508381456575 0.5609712581491565
Ni 3.12278911875756 2.3650469849354585 9.87823416638562 -1.0554206213166792 -0.041347195488219114 2.5422864941645185
Ni 8.672444279768376 4.082135891806407 7.2565238912040595 -0.8123891518786589 -1.0717013607545736 1.254913544042116
Ni 4.803164769601797 3.5769775895418703 4.755899962786378 0.39404418517488266 -0.2832527788519122 0.9657150891297303
Ni 6.852816615499007 6.336593787833253 5.956575080639471 0.29694364607544343 -0.48273567427502023 -0.10551036042968925
Ni 8.912063333254295 9.275488996686489 4.88804147410088 0.8063285475068758 -0.8289390858175402 -1.0522188265499297
Ni 2.131418875829217 7.037122402829434 5.636214946446565 -1.0835885991104628 2.0684244682300443 -0.9510572300072395
Ni 3.5747777896524577 8.86573648366832 6.754426587083515 0.3422698808160686 0.9928037178164063 0.7210291148074228
Ni 2.3324150597674014 3.4580105393523035 1.7894698119131076 0.009544706265641627 0.5384885036656081 -0.24437204262631462
Ni 0.5040106619818048 9.121119209553266 7.054290202817448 0.7686207485434569 2.1278138659319548 0.9088530858353638
P 4.442921795371306 5.241084082055045 3.4505658548754945 0.6152359330299921 0.13848218737001955 -0.5927665482828824
P 4.696095360516245 4.111313663105556 9.186836125058091 1.6352725184204224 -1.6165939681743127 -1.0351176480932687
P 7.359613066617363 7.391346350128467 3.692833092994243 -0.8974828963252092 0.4525568366987948 0.44142961643738177
P 8.332055669646161 1.6377931414955598 3.4807208989765783 0.11946579416851684 -0.22643834096602938 0.21826506112661767
P 0.8174858905633776 9.17358677712841 1.9290101395365116 -1.043005792592094 0.1258462437735639 -1.5164991223332398
P 2.0596398734802044 3.0695352397325815 5.738448540115645 -0.3464751771466678 -0.028768330381944006 -0.7810512609973258
P 9.296036063738665 3.4810195101105026 9.511566840392984 -0.8857501812693133 -1.0665802374779243 -0.3126849680701002
P 6.0231176231666215 7.760454049870763 0.1563318214175692 1.8901007233830547 -0.1975442836394985 -0.6528048924227016
