# total energy = -340892.8839211156 ev
CRYSTAL
PRIMVEC
9.06188795141198 0.00000000000000 0.00000000000000
0.00000000000000 9.06188795141198 0.00000000000000
0.00000000000000 0.00000000000000 13.26298900656612
PRIMCOORD
 96 1
Ni 6.5420304605757265 2.0310137036345117 11.443717882732951 0.08223467773120031 -0.3527414697713538 0.7927232980186154
Ni 4.5402232209853235 9.211318224075836 5.959087380792948 0.38581434106592266 -0.7512143801415515 -0.1647974282257807
Ni 2.773562905217628 1.531758062912779 4.87539526119614 0.2710500661381332 -0.3011638548043781 -0.7375566801488007
Ni 3.240241059672351 4.196560192003384 4.594776691103829 0.8057305089115607 0.806676674874914 0.09200152730997704
Ni 5.084733928860728 4.722929000711457 2.744842158354023 -0.09721546741074871 -0.38963937123896764 -0.6906247914839525
Ni 7.2062940143533645 6.195313575440245 2.574319180446351 0.03749722561450961 -0.44234930003817363 -0.28340010306305385
Ni 5.269252086126055 4.309090713411931 11.755225709414514 -0.3915245040768225 0.48509928941119035 -0.53460125279606
Ni 5.668111073064143 8.03054519540334 12.450750057176938 -0.6181204536666386 -1.34351761563477 -0.279607468789841
Ni 1.743742801784589 6.702579924885215 0.1670540872976549 0.5266735133085511 -0.8216970595431462 1.5258291414849139
Ni 2.858037822319454 1.6878581403635464 0.3157361034805016 -0.15189074746644163 -0.7550723204350609 0.561542300161278
Ni 0.788497503145529 -0.08504400364913271 4.645441705211993 -1.2783077545963404 0.4276297344398119 0.15417671528714094
Ni 8.58612046815552 2.5987590915623806 1.5018873625005553 0.7458924537080058 -0.8158377725488918 0.24062363132747594
Ni 6.823257083332438 0.5995689251385736 4.884917492787065 -0.8292874702958944 0.1594598180629512 -0.8570013912713951
Ni 0.524322634466323 7.471236424920418 2.3210629802520186 0.4615631539624632 -0.5350704791229945 0.20447314954884785
Ni 7.725739540861716 3.9306572213405566 3.989970901065754 -0.5632088892304236 -0.6608046227987264 -1.3286445551776795
Ni 7.494471104972884 3.904531799113077 12.830084300885291 0.5693396847185097 0.3639671632838441 0.17022374144767458
Ni 8.108196511070101 8.923258937996364 6.675885416110428 -0.08813098861097725 -0.03836008783543716 0.7500249878191405
Ni 6.715864652247506 0.776952658220864 0.4699087174183361 1.0943342676627412 0.707571189530304 -0.4750843283773495
Ni 1.654247598899196 6.628952087355463 9.220456231628452 -0.47551395971560034 -0.34016311888571094 -0.594723157788621
Ni 9.276291958855936 4.986077157514709 1.3359143584050297 -1.2780447307429408 -0.25998738056606835 -0.6212728832526914
Ni 6.613003165010558 1.9215189146041147 7.071705952104058 -0.008425247949217748 -0.05327300039152761 -0.014106614604711187
Ni 3.3232298271920384 4.701832926155241 0.547090627302446 -0.021710137983581967 -0.2569807325292606 -0.3211184435494341
Ni 5.8268209741713495 5.493995962873789 4.840473464582183 0.14955335758251664 1.146565457053316 0.5972078718836875
Ni 5.600427833862948 2.4579282948793213 9.330115040826145 -0.8295160413669327 0.6350331702615772 -0.6404659112413744
P 0.11072086243566172 5.555000590843054 12.403772325172262 0.382903852287347 -0.07148798073765752 -0.44451853977535055
P 4.0623083257875985 6.098858842804348 12.305878564770245 -0.2801425153577046 0.7476724284265639 0.31570601428461115
P 2.1358597442768765 8.715759833534058 1.2528458462736183 0.6584016697841887 -0.440796353728757 0.23226497495013548
P 6.272765529577694 7.592013264132297 5.870225603857502 -0.5803044112601297 0.580992952686722 -0.6779654508487292
P 4.899119283184188 1.0504630836044575 12.61072771637281 -1.107482117898609 0.8113411702301188 0.10436827640544606
P 4.0349957962719465 5.927262937393473 8.300243284633238 1.136792436826952 1.2039923317122168 -1.108124379468298
P 4.773684633696581 1.0891845297293343 3.8571553440497803 -0.3968430880762585 -0.28858627524968367 0.01949976059582448
P -0.006064215246142657 5.634083684765778 3.70061214029068 1.0067501526941693 -0.10628169137807501 -1.2901643968246101
Ni 1.3050568184227151 1.1175210525546304 2.6361783444253466 0.19943610134557266 0.7886082474089774 -0.8912351156432844
Ni 1.6615152328313634 6.740386120352798 4.584775991842557 0.35055577497394463 -0.31572581177895304 0.12504971601419754
Ni 6.39444855755917 5.76413989697833 9.16038769665818 -0.9629354695020643 -0.7180201527777699 -0.11910172596087876
Ni 8.706154232576331 2.344346594498042 10.267091573870132 0.45927512925923486 0.0735716027395636 0.38907347143316867
Ni 2.559140518555603 4.869260363225969 7.271459861152619 -1.797622513546975 -0.7670927419347048 0.0022348028677896996
Ni 0.6275701581191189 -0.007924620790125155 9.482333911776728 -0.6942497898310496 -0.06259324935118897 -0.5973161153267778
Ni 1.5705338803638316 0.9952218162098286 11.47472675623979 -0.7851328872658672 1.403883518317337 0.44030604435589976
Ni 3.8144838210782304 7.104773686495419 1.6360033004009011 0.14400286007793264 -0.09158552281848098 -0.40702722769811184
Ni 5.579648925376091 7.712182956868546 7.911983081544356 0.6776160379291104 0.4850815487993774 0.14140630299535
Ni 5.200164254331984 2.8021531608984116 5.148705418861653 0.03909619467051331 0.031289554141900947 -0.6262862773068827
Ni 0.9386575132115882 7.676859718629658 7.17896426725109 0.19486827946923213 -0.9660169366408653 -0.5741155088405983
Ni 5.10064660365485 4.490473457534452 6.978666644940772 0.144091563136997 -0.05645319789172213 0.8186135355218159
Ni 8.265356829381297 7.33307888510767 8.753771733852341 -0.5312598471276527 0.010508612840807709 1.477387501043759
Ni 4.888571245906079 0.30991112206953253 10.467787013050303 -0.6210965055758272 -0.18495976210626855 -0.43414825228462
Ni 8.024147502689987 7.1998963216400105 4.718798592299634 0.6131679947573697 0.9770559680638464 -0.3750804995881863
Ni 7.498693944639205 6.115858944121986 6.927152531955495 -0.6663983148364201 -1.3441701616171045 -0.9400274545556392
Ni 2.104650603051958 5.448858700260166 2.481027952805117 0.7162774590550502 -0.31576720653984974 1.1026533290513978
Ni 2.256174427216261 5.546437106970363 11.063255434006452 0.6824929064054375 -1.594100415057487 2.017161813400326
Ni 1.021057258031037 3.377483348827807 3.6996443306847504 0.2710444097111784 -0.0735669747538733 -0.22843171724697434
Ni 3.661319795240957 2.8069197138264914 2.671404620465888 -0.1525414936765631 -0.771636138331013 0.02708091537719207
Ni 1.1394598826665718 3.1119609774482098 8.367049333105465 0.5330912439094367 0.6749027527630054 -0.2634306019196624
Ni 3.6888951194997914 2.4688659933283565 7.219137427784862 0.15020101846884454 0.699357286260944 -0.029396707994562277
Ni 3.591652002634345 6.545963319835777 6.061570081124204 1.398664436010243 1.0979433251702382 -0.23421155715354502
Ni 0.8317254260216113 7.562426200804958 11.569835798552834 -0.9250278958230134 -0.015100603086864317 -1.3520279670986264
P 0.3299532990867079 5.506175139937172 7.848838035701303 0.2637401627402813 0.08105402715953783 1.0274555035623207
P 8.758096972849627 1.503784015595322 8.133328750406102 -1.4917687094660954 -0.10751376401296321 -0.30365551087798026
P 1.9038301098215826 3.228243120362888 10.445731284587083 -0.4300265168067626 0.2867114268244739 -0.5620776038394577
P 3.770153066469548 6.121993842092157 3.7897530233671604 0.13297822683265487 1.549410785459596 -0.13621396016113313
P 6.929969872840172 3.9273677561069196 10.378395115684645 0.4822931874209629 0.714449404707376 -0.38555594519821346
P 6.479938406082945 7.735037037637781 10.278869309308583 0.24819038793114032 0.097647926962477 -0.7802765876148303
P 2.4304526513851425 8.437931418663336 5.904774956887156 0.70889505054805 0.5292194196588563 -0.42394817182316663
P 6.83991283291763 3.836322970425516 1.7516692349522531 -0.6074640023940571 1.901954794508163 -0.9124585437984349
Ni 5.056179920730728 3.03698291865176 0.533522262855271 0.8972077882869517 -0.6542398250970153 0.32037822294929985
Ni 1.4563178478438346 1.0780746554140759 6.996306515529747 0.9684031774848548 -0.28493633720192213 -0.08857733211977648
Ni 7.082698928068038 0.5379254340867425 9.184009319315264 -0.17888038868140807 -0.37046922606842003 -0.24618801278913086
Ni 2.730863290394221 1.1888109230588209 9.152058915676815 0.6823887767274054 1.2540578809100402 0.7491371858975485
Ni 6.391322206304061 1.9312513819895858 2.596256198180754 0.3079585091287083 0.5358801195084836 1.3679011866854571
Ni 4.301007509587126 6.89016100019178 10.150324619963719 0.3407256762574003 0.041163104501871044 2.236883404467812
Ni 7.881540576018517 7.011934647050214 0.19731988601342276 0.269990000304735 0.6902370691272306 0.8203382315224067
Ni 7.738389936085289 3.874672879154858 8.218278510423197 0.16880552094390927 -0.1988987407848639 -0.41577412065280656
Ni 3.1160207031360043 8.494613526201624 12.487315680218941 1.3764303072023907 -0.4953651901135727 0.1850273821194104
Ni 0.10327289693834454 4.875186837779133 10.141504684669233 -0.4818321886241444 -0.31420371870747177 0.029206960581259378
Ni 8.848480240729225 2.3911965538862034 5.817067664444177 -0.4909338938150964 0.06482856643961092 0.41697456871881095
Ni 3.6263952800606916 2.4985980468588322 11.41411450800776 0.8998987048555535 0.09146288119768764 -0.1751124369985436
Ni 1.180501172041617 3.3273258004306165 12.69899322109786 -0.5957575125904062 0.7245540972415457 -0.7884331552836937
Ni 3.2499554032824305 8.037631591581588 8.363719995565965 0.12462111311721118 1.056634182008806 -2.127274448488717
Ni 5.459134880907395 7.9105929879717936 3.5152358222605447 0.26708053996742387 -0.4193065592860972 0.8843538151424188
Ni 3.064938842193825 8.577402932192 3.3553904666250336 -0.5214207495500439 -0.17188724519302653 1.0552673835682667
Ni 3.976646301397601 4.223890845294427 9.446378153776664 -0.7782605856260661 -0.9351331025778153 0.879737142306014
Ni 7.188831756763231 6.042104240164492 11.410348387481315 0.2340179530855002 -0.5949525001906075 0.4087156711441283
Ni 0.19748299999195024 0.004117721769048451 0.19860033074486325 0.6222049081486574 -0.026554353449760718 1.1838752492473674
Ni 4.625577141193658 0.5658034253946225 1.7315228462265744 -0.785896247794453 -0.6725753901814094 -0.8210514555393473
Ni 5.620699276638831 5.836879669513875 0.6037183635145581 0.7762736371030243 -0.5160893100348015 -0.6853761414905035
Ni 7.904004995616825 8.919634182917976 11.50532422004523 -0.0010754924523658897 0.3653609583075772 -0.37830620561433553
Ni 0.4678815731407478 4.832170056886366 5.748059577261833 -0.24565348044189947 -0.09347888318645191 0.32964962094889677
Ni 7.961919519881764 9.087985932533694 2.462565262813349 -0.49628410238341625 -0.7063306322549835 0.14528815454825947
P 8.46420183109395 1.6151364916033926 3.8118495303250115 0.3394943749534605 0.4856088820577572 -0.6341050020203531
P 1.8896482555773906 3.223839042942647 1.5240101489327254 -0.8019430168446705 0.48434132819924336 0.8793082822987114
P 4.815613988065831 0.8407447228454096 8.0239354545179 0.15287033777089157 -0.4873867998937864 1.3946566004024303
P 8.542143127166982 1.852122978628382 12.613632957568138 -0.4307199433293615 -0.5719203009614924 -0.7693357723326105
P 6.126044505892256 7.9369268336162815 1.3991391488598077 0.6955769932829052 -1.0636412094542584 0.6597538129367089
P 2.0231117375636267 3.2033138673112767 5.968225388345563 -1.5570171370519443 -0.8259319235601001 0.7172452222849582
P 6.984939283603922 3.8870604796352484 5.975162263376827 -0.13872104285370304 0.1669900650017253 1.2461928763396668
P 2.504633264064348 8.364711366079904 10.401949680372777 0.31712989121533125 0.37285675246399014 -0.46964438830870087
