# total energy = -381165.59804404527 ev
CRYSTAL
PRIMVEC
9.28842396822085 0.00000000000000 0.00000000000000
0.00000000000000 9.28842396822085 0.00000000000000
0.00000000000000 0.00000000000000 13.59454736577298
PRIMCOORD
 96 1
Ni 7.675080230770555 8.594504138769596 1.5851373092615568 -5.61523505397169 0.4735565788789135 3.751391207402636
Ni 5.224506118559792 4.893271641127088 11.336601930584395 -0.3049418337895716 -0.7953725627160043 0.6054634270242605
Ni 1.608857156854723 2.679728813221454 0.7219436606350003 -0.9512269228158845 0.8772043485818313 0.7326055067911125
Ni 0.3034360829945065 7.2508686321381814 1.5212571041328256 1.0751420110050063 -1.4328112570952807 0.4398121354386168
Ni 8.106889759986478 5.019380569651353 2.682027698086281 0.5424382323419755 0.7819897136511952 0.07519885393034145
Ni 4.188512493172557 0.1384002996015405 7.152811672019023 3.025016512012584 -0.9543587835766467 1.4072352083983894
Ni 2.8920993326129842 9.18537792378415 9.83485237389848 -0.7876412555100177 0.8351644979019617 -0.9187443768071468
Ni 5.78613994577849 5.334490343547333 0.15471820235114864 -1.292339292988742 0.7731206932963395 0.14581163115189724
Ni 3.668472227265761 4.247475406796483 1.1237878061643847 -0.2833913613123055 0.08593475229060685 -1.6345762636843464
Ni 6.848261907023334 1.0947707705372354 12.513698786868789 0.14154797077953685 -0.21592047215384103 -1.4166225631505602
Ni 0.604174807747616 4.666476199735249 9.407915551753618 -0.029544289316020083 -0.5632379426961461 -1.3980383723904697
Ni 0.5354934164102825 6.117346557940106 7.310236521035265 1.1954755524904572 -0.8797728806399558 -0.010386999661278885
Ni 0.30017863280422435 6.0705329025109025 4.321448413113583 -0.3532893718550238 1.8762892714212591 0.05419216977168731
Ni 8.110735167396735 3.258016784127564 10.662461142502252 -1.8247029147035347 -0.5259937136327071 -1.1347119001488395
Ni 0.7575712674067853 0.2734595531995324 2.032955436718002 -0.4527165022051107 -0.11295318986097967 0.3061731350935114
Ni 3.498354747268565 6.243297583261534 12.73545340072066 1.656428583672747 -1.3428905235737323 -1.845285623950893
Ni 6.524365284310683 7.5932770832775 7.837542191957285 -1.9558518016369348 -0.7019029355009331 0.7986648603140309
Ni 8.629382169749091 8.096170919040983 3.5226328291258775 -0.036662645528356214 0.28729918100714397 2.530732470778332
Ni 0.4419896415870354 7.027379869582215 9.733247235927346 0.5521582878432169 1.0527749561637159 -0.12301803029614941
Ni 3.869882406695692 8.93659678350324 12.94483676305147 0.9812404384588391 0.4576905583809343 -0.3054977062930416
Ni 5.539885256742964 3.2070604917298233 13.362487948027168 -0.5076890017862482 -1.9967022599943933 -1.3630474581375818
Ni 0.14597222259874026 0.23629006809416644 11.565492840362115 -0.22456400676145197 -1.827512616238188 -0.32167894403859437
Ni 0.6404841848187073 3.9564969576634152 11.633030826742436 1.1886451598321852 0.09087049902932737 1.8157840149473503
Ni 0.5875085891093976 2.5094812952925105 8.30924550094869 0.2789919466930292 -0.9892900482361929 0.3079189141400245
P 8.831944113717359 9.086316885063425 13.853251102443318 3.298428136404358 2.01665813429103 -5.9651861054821005
Ni 7.6172690816849675 2.7486767823188702 8.338595990986535 -1.2899034298537397 -0.007527932945928972 -0.2672443192387978
P 9.13108708727945 3.4110156992525327 2.039059788771191 1.033398351409317 -1.7908553700264707 -0.6449447729483344
Ni 7.462022368025501 2.992757980209469 5.058273057352378 -2.1431628375841996 -0.3107687248839939 -0.796157520511145
P 5.743924060078939 2.2060284931353507 7.142343618513326 -1.4431859154613855 2.3971160961410454 -0.423161157145497
P 6.852785369363418 5.416860084885861 4.592061064450207 2.9173004021808273 -1.0522967309757167 0.22226055543925594
P 6.204982835514419 0.25123235529435695 3.14353510438629 1.0030572772236144 0.8800736997098263 0.26354964399603
Ni 7.539302053178472 5.56983113473974 11.098778343737976 0.33595165190752463 -0.15831927670060475 0.6427955878158156
Ni 5.593516615165231 5.476686821913539 7.013494604998661 2.0193271964827613 -0.37393558735046567 1.8319904495038837
Ni 3.0681242500810084 0.24255046566545282 1.6361446879896266 0.3524956723091349 0.25389797983887885 1.2831514558418868
Ni 3.9375950154415045 8.647485307533122 5.095888386795164 -1.0746149348569427 -0.34911647142425684 -1.0312643357854498
Ni 5.097254713920886 6.299111721252425 5.0426118461580955 -2.3955585218459388 1.2813167166259931 -2.4126650996192383
Ni 1.9450423641175403 7.797510943511098 7.9654122056143635 0.9613493559618669 0.6476835120357362 -0.17339134054237879
Ni 4.228062601271278 5.605572989122989 2.8360130438077937 -1.1195418772766204 0.6161227065103195 -0.0132442666044159
Ni 6.659614021752078 0.4608014860990922 7.11688126263474 1.0430970667543196 -0.5435731172773671 -0.05563790107927837
Ni 1.520013384199895 3.6270179923093053 6.446453057503995 0.781315570402306 0.7414609002992134 0.046140246001488285
Ni 5.606548273611097 0.9212880946348808 0.8643064017853697 -0.5461763592281691 -0.168812977143077 1.4611478992564448
Ni 7.534880763499047 6.539468261240819 0.6435168551555396 1.396683143914156 -0.10206585352451454 -1.296661831623496
Ni 4.021571654079487 4.07927134208072 6.309719101113566 1.3918289011456482 -1.8903028120915317 -2.294873350719035
Ni 2.1231664653409212 7.476781673278875 3.4052847418319336 0.12141109082034574 0.5338535759967581 -0.22833504376810998
Ni 8.368999788271537 1.53364879018602 3.292503772469447 -0.809585878101909 0.09834803835329514 0.37345530527993753
Ni 6.450187932672265 6.415634996522139 2.6478778795245725 -1.8523846968895195 1.764077587711994 0.6556094517510321
Ni 4.458647719531195 1.6544633172034116 11.72370627655017 -0.641640648275766 -0.07392872896866623 0.6530481187817592
Ni 7.759335522119426 2.1650665446347976 0.85887638929253 0.02497672454999569 -0.4666241134251384 0.7944546788874253
Ni 1.6483608228349618 8.604684251140707 13.615211095324776 -1.4077833675923754 -0.10386716839931144 -0.45507111848021625
Ni 9.192557875301368 7.076441323545916 12.337119350506095 -0.6058838023911307 0.5556922691384042 -0.49934217248344964
Ni 3.1049807153078097 5.1061344469745205 7.803732329702861 -2.056589166158013 2.515233089591152 1.5589459786435411
Ni 0.021277921003416637 1.7970870630596463 5.974354990505499 0.04035834921238856 -0.645273874152979 -0.2895398974122046
Ni 2.085241831389048 1.4294884068560418 12.486210625782043 0.3947882624297588 -2.1093263486507285 2.166766335935752
Ni 5.822764200412885 5.806528035791803 9.312903336922098 -0.968381323107984 0.47738135194164233 0.6309322607193263
Ni 1.4444706342781264 5.044737966342172 2.2517739798394834 0.46198070111585593 -0.23906811391489796 0.6251009987495298
Ni 7.644772104249625 7.746731131163586 10.292649054931827 -1.028327621754629 0.4727286836609795 0.18209272497111864
P 3.65223606264468 1.8217478279732446 0.3836880637302843 0.9731275795437176 1.8900163911993642 -0.6452129390080564
Ni 5.3689039533420155 7.752777894989859 0.6417214028550505 1.0158004358218957 -0.3793523874906628 0.27104158149770097
P 8.381167623313653 9.085908194420789 5.8049257827041965 0.5241867423309553 0.15949889883100274 -0.28753880782177577
Ni 1.896705407202148 2.149666338146381 10.591429779969763 -0.47989769060559284 1.022393001437749 -3.980962951791325
P 2.9744504971041197 4.18860537740952 4.190614463455024 -0.283748230431092 0.110424509901855 0.150769746488121
P 2.3077924631516913 0.4043752409866181 3.9283075205876035 0.42098343276788786 -0.9771297587245751 0.38546904191136194
P 1.4541863254644254 5.7234988163708405 11.05545249140672 2.0262316369120783 2.0303492586248777 1.111299177651854
Ni 8.439573231515801 8.761444977862666 8.16538825242559 2.279365999112055 -0.07572155920303088 0.22722407009211834
Ni 2.3738145787847826 7.9442030189462995 11.586455883802227 -1.3253617706613499 -1.374996660079658 -1.3701920396021627
Ni 4.8685830109424 1.017082394741628 9.508230527673343 -1.4981874685082455 1.00852267121356 -1.7522553982660858
Ni 7.9185483926972 5.7706189897820215 8.583719350015855 0.31979715363484923 -0.2748604410231589 -0.43156146539405027
Ni 4.613708664716736 8.226385330839 2.7988723528158865 -0.23747660105806198 -0.8957060069304446 0.9020903131902336
Ni 3.8217033529831363 2.616744012137043 2.7934757786483533 0.35117541083581455 -0.831030164018614 0.09878101212565568
Ni 3.2061316493601963 4.556705608492723 9.996804400624283 -0.5085912018855435 -0.32882069728969815 1.5655956227495746
Ni 1.4753360662208335 2.1876838563352163 3.1169581376641506 -0.05465445412008652 1.3121123618506114 1.0857501255381559
Ni 8.079154526829415 6.926581895630287 6.167900661591797 -0.34083700502428393 -0.798432946808883 -0.7560997332583107
Ni 2.888820519048201 3.6704227962419775 12.392435628986867 0.951581992162458 0.7420697375278059 0.2049467467511567
Ni 3.287925508429555 2.1619456342728505 5.5149681313353485 -0.3102087386154658 -1.405405354278502 -2.2547970515234392
Ni 8.96294804152956 2.169850082838377 12.504590558592223 0.41750190197719067 -0.2856606169624564 1.1934670067008606
Ni 5.239265423813167 3.4227376899572266 8.920605833267741 -1.2396368203887038 1.4557364984328864 -1.9065460134232712
Ni 8.449874093394966 4.149575421037792 6.6322354640649515 0.48571404017705383 1.3949651327817845 1.4566741797558076
Ni 6.132133728464568 3.6959009424408475 1.9058600775971923 -0.012711791139713591 0.19835598090751644 0.9135934287338267
Ni 8.216270237433761 4.345941986400648 13.28041822277403 -0.3045217155330175 0.22502963354396083 0.5472348823996704
Ni 0.11668582268439913 3.9390068558433375 4.444628701646414 1.1977221824327888 -2.0674515627938135 -0.6092712308061249
Ni 2.32602563886747 1.0090571966680504 7.209922473957913 -3.3568819096658764 1.315371235107541 1.3996633095884023
Ni 6.957865306639327 0.7914582235778892 9.853340981265905 2.5296137837928563 -0.2547690695899225 0.31264537308141643
Ni 6.387296015824817 8.335821538828458 5.151843708826237 0.011460692341431876 0.32225872780146436 -1.053926810379972
Ni 5.288317589353172 3.933684589065374 4.215464712212026 0.28441774569429085 -0.5734418798123415 0.5016893325593875
Ni 3.1108974412023342 7.153145126429719 1.0457808374359954 -0.6682371678173716 -0.47554327029163906 2.5056372183726006
Ni 1.2551168288059542 8.389675819419436 5.762551993801811 -0.5011673986176466 0.2761866160337501 -1.0370557456562461
Ni 5.239664826032107 8.183992965089221 10.33824499801445 0.5294600749147527 -0.17021397125566168 1.3184087363822843
Ni 5.606390370408262 1.4212495750374499 5.021159302789189 -0.1554859210168677 0.12969904186075085 -0.3447743924054772
P 5.827064740584258 7.034123265185708 12.278785263166407 0.19379201568591786 -0.6560887053802958 -1.3581034838687447
Ni 3.615035925741116 6.905162790586687 9.438123363298631 -0.5381519462617957 -0.5865501350595254 -0.14064242824613196
P 2.7762169585783125 2.9098587987202538 8.561791239353699 0.05467913671043487 -0.008841252440713807 -0.477370553308365
Ni 2.1903217686649574 5.9835468145953286 5.536964047490486 1.7027287522908676 -0.2620077534302068 0.17361194119361714
P 4.250568451887342 7.149903466559721 6.832320185433424 -1.0017239031241716 0.6790489137208952 1.3591008147850079
P 5.961914075806714 2.713715155526108 10.67484632665886 1.4955374324799082 -0.4113446241265432 1.9583483428065436
P 0.47375976599775926 0.6031224293428284 9.488708118748521 0.5333583815278944 -0.0335814354998712 -0.2904238426790547
Ni 1.3491063881885161 5.776517138829154 13.486497692796075 0.30692878231261334 -1.2642435631937905 0.009596128328867344
