# total energy = -381161.0770934364 ev
CRYSTAL
PRIMVEC
9.32739100011050 0.00000000000000 0.00000000000000
0.00000000000000 9.32739100011050 0.00000000000000
0.00000000000000 0.00000000000000 13.65157955580244
PRIMCOORD
 96 1
Ni 0.6956927641197561 4.927473968696334 1.5945724749092405 0.9533431978279386 -0.12779796818329603 0.14044522463366135
Ni 5.8914038350947475 6.99434913275963 8.290603670323495 -2.349203588730483 0.7850634674805125 1.6520304546050515
Ni 5.705742122845749 2.8464771350854376 10.955623880895772 -0.7815983917500474 1.5791610201388353 -0.09421190469773452
Ni 7.767589823311848 7.351672143789364 7.464233229500414 1.8660267131529864 0.7427734484630498 -1.9598526952662119
Ni 0.06920550817395948 0.64448632181502 10.619276306113491 0.36247103835429184 -0.870785589539681 0.15023418569962513
Ni 5.576996148760197 3.7771828357450454 1.397184367049118 1.1777105151975524 -0.916783396426034 0.07512866281403835
Ni 8.90208035638623 1.9095500648166823 12.863568701769825 2.3153555298327864 -0.8703855258877848 -0.7297546676058786
Ni 7.357800239491328 4.922418522926982 8.296146938627418 1.7367153936489572 0.8860363450511642 -0.048551940766774444
Ni 0.25332167178092463 4.099873245037501 12.099449266601091 0.48340647508979967 1.1455889520726594 -0.7614226881331209
Ni 1.961233136787127 8.529507061531975 6.7728217377203865 -0.18347057915525175 0.47179460188248423 0.630367646465108
Ni 9.25504747595049 6.211445265423188 3.4396245656475206 0.13905965714004437 1.441331635861466 0.14115484910617626
Ni 3.6998960762526973 0.748790801262176 5.547387279663829 0.29685545723701134 -1.315106925702561 1.362380513977544
Ni 1.6392702639707035 6.2508628185989865 13.383913049557876 1.1758359238826588 -1.344385362951704 -1.886600166428964
Ni 8.393634960937595 0.6099255409862728 4.607980988942133 -0.7090786273137659 1.3910318591656496 -2.2125363430820153
Ni 8.72066260691409 6.301361311948198 13.602365203877277 -0.40836960065861927 0.10376201028001485 -0.3717303521690308
Ni 8.44468377033919 3.3497738108575383 1.1387055809400108 -0.2763874191906466 -1.3870204240134112 -1.9783258143697346
Ni 4.112045489924963 8.937375202864514 7.843938247297929 -0.8118440780084664 -2.545151474417139 0.5234974295734146
Ni 8.485658997764956 8.956216532115606 1.3140148222306987 -1.107272315880648 1.1310118255894328 -1.5192751424164803
Ni 7.960219096427463 2.9483508965113883 9.616077192051701 -0.07293242649366795 0.3459460441160752 0.6923798265018464
Ni 4.353988677768558 4.066303965842115 3.248338436795351 -0.6089958656575511 1.0083846029737986 -0.43260379061563564
Ni 4.656168154871335 5.0823366367933 7.905152047104396 -4.3959544286418355 1.0926815625506667 1.4149850275471372
Ni 0.8439656306741993 1.3646812086128415 1.654352654762295 -1.955850516085354 0.689545956597477 -0.4004493173702781
Ni 0.04495802326250535 8.555530481636206 12.809003466067406 0.03468006788068866 -0.21649202838659487 0.047811977276956366
Ni 3.25899031699572 4.856856293567614 0.9125070286290115 0.2382458751239187 -0.7167749675167592 0.019322097367379627
P 0.37621097723441727 3.280331386959333 5.619467489657188 -0.4515281383239644 0.59115420949044 1.4714886190608205
Ni 1.132121375831919 7.544478637328627 10.978503970327914 0.37601278159446855 0.3883949573089053 -0.29803559358804155
P 7.799759993899479 6.990468938220792 1.7818450275352993 0.3205438019928866 -0.9488921040351207 0.4611571767732961
Ni 7.341188156621925 1.0063788215576797 11.054338455085416 -2.1838919398724452 0.21086002691179817 0.5345768273160277
P 1.4354854315559284 0.6861042064612799 12.231064346071612 1.7031090184484219 0.7565476194290067 0.3375897017315799
P 2.663296508767524 6.045529639324962 7.092527381982966 -0.5920088441812513 0.29996263540742535 -0.6505981145793698
P 3.553894429338175 7.600069886010065 1.8520280462565433 1.0247782138404737 0.7603865335591228 -0.7970905738483756
Ni 0.023959268538256747 8.72339553239457 8.75807477108544 -1.0237199477792884 -1.744492466491215 0.20850078265100216
Ni 5.724751345129771 3.3344955448608613 8.506162468042058 -0.18698887672115538 -2.8586142011935283 0.44243440355281227
Ni 8.205184358863807 7.484820646293983 10.688298997429373 -0.8874404244875427 -0.5400622759106312 0.1635969801597763
Ni 7.388039640200258 3.6583332232116756 12.321123101674615 -0.18017596756438004 0.9498457261976417 0.06556878703974514
Ni 2.975997282600614 2.6876130163702943 4.629059026487488 -0.7712183340673041 0.6167485130197765 -0.10304981470433866
Ni 4.297856440425456 6.790582955126291 4.617660022290577 1.7571703190691996 0.4152820115077364 0.1091387012108959
Ni 7.018749586878865 8.466183405945015 3.15385569977463 -0.018929489914651272 0.47633722694784414 -0.5784264775111264
Ni 5.390756138286662 0.06251217259446283 1.5416591201030443 0.5121051285760728 -0.875408175913357 -1.575993678154447
Ni 1.1124685635883302 2.5701158754910867 10.313563613406599 -0.08912934796850457 0.34825669452712277 -0.018575963229974457
Ni 3.0520341717367017 6.476576346592631 11.378836512699088 1.6201305205726615 -0.23863848257664708 -0.09367274436481286
Ni 6.581033795247568 5.58227545190679 0.5323272466439312 0.9134034242102075 0.4450013929490401 -0.4512342612326293
Ni 5.981972798970043 8.3891671407835 10.49051540820279 -1.0666365446371566 -0.39108690231877163 -0.21303595151719437
Ni 7.355048659229411 7.054464165939474 4.970649527592561 -1.7973054965271886 1.1274647316681228 -0.14856862507174412
Ni 0.45466739152284824 2.941206115221123 7.894434875168998 -0.5058696891893224 0.3426339490237067 -0.1297124115971895
Ni 4.15899024741048 8.933495008325675 3.4810848173906406 -0.8352164341858196 -1.026322161288826 0.25420008446032993
Ni 0.23926809218556844 8.64173422665531 3.2383460031187696 1.2441064261242833 -0.9919423982573755 0.15589369797824762
Ni 3.2672730399536256 1.8178431592737463 8.145282922931413 -0.15807245079712132 0.7336619730800849 0.31787731090431703
Ni 3.7665589377168307 9.116852855067236 13.30115670814828 -0.6847775886745561 1.0221538888437494 0.5682695915827827
Ni 6.97811947290968 8.51296959778832 12.809836402058558 -0.31371520910682743 0.6385887488233196 0.6231988966308106
Ni 1.6266036673751678 4.821943870108785 4.546439797721452 -0.20383011664821024 -1.1831499410455688 0.559180999017953
Ni 7.977185620144163 4.368623353805668 3.000876231863701 -1.905475406066912 0.6770064293695696 1.3200503857507653
Ni 2.4245526159403274 7.307600222645103 8.938467440317634 0.44402694485091276 -0.7105117602158667 -0.13733547536008606
Ni 5.149493849965507 1.7531856868140598 2.9899547900715713 0.16476271833310333 1.0211565579274864 0.18134530528213286
Ni 5.670988265029132 6.447045827578297 2.4422130975264746 -0.9140248598442904 0.08728998076692064 0.9252412973854002
Ni 1.7335048923983158 4.597023170326201 9.614561491059968 0.4896051477013439 1.4970317576372478 -1.5777913934848182
P 6.058056325059724 5.100683614336318 4.284684299252984 0.09391982737861244 -0.19476312134993554 -1.2374367274135913
Ni 8.082948903499672 5.042284821048653 5.430584096654068 0.8384038307748658 -2.510784566901495 -1.4871278682599745
P 7.26194264507872 1.8618964256365702 2.2641140336719245 -0.10539466078743139 -0.24936358230363503 -0.007124012639290957
Ni 4.59993331623033 2.2574710660023074 13.605860177179446 -1.3862789178616963 -0.2922071598317225 -0.11458866858187364
P 7.257474824924626 -0.013334437770970469 8.995435411869103 -0.5776721158436051 0.28634941549936493 -0.17639875991013493
P 4.0122703914106435 4.298518685166458 10.004177794234815 -0.11602488680776792 -0.5033073277787847 -0.09426461231254088
P 4.3221636206375065 2.5941712161537427 6.520772322033446 1.0689433383934623 0.8234245837572142 -0.4847190232536362
Ni 2.066959110579761 7.159807716712656 4.849040872884699 -1.0435840336930673 0.47248520019160567 0.8863538762915831
Ni 1.952353460823246 0.7482805929898817 4.021099699464646 -1.33879038536243 -1.1341920230896272 0.5259788012343716
Ni 7.810430528881286 0.4179081447017832 6.607746509525885 -0.1537519690448965 -0.3220599815270969 3.121577376558469
Ni 1.5182287146185185 7.8881090387838055 1.1205432857332163 -0.27978204669449236 1.516941352076981 1.259362066731773
Ni 4.918902096626159 1.0920882148687088 9.700198130723393 0.6915514170632798 -0.7044938361565609 -1.363695890354858
Ni 3.412826972113667 8.904384221893666 10.994285915423383 0.7091099947723336 -2.9424095385436293 0.45465331421650734
Ni 5.535563879189232 5.850419280278264 10.158782093608883 -2.2622367956309364 -1.4062417341368685 -1.7311695241300635
Ni 3.207689668044728 1.7740697146324729 11.141517845173658 -1.36661126422944 2.193624336668861 0.882968504759118
Ni 5.930634840456179 2.8107159190712374 5.012914733154675 -0.5715598322982801 0.31874043023556076 -0.33275062847172376
Ni 4.069755100407909 4.631338640779055 5.451962476180554 -0.32857747093064055 0.2539188057744853 0.9960355944901427
Ni 5.664738913247829 0.9906435134158026 7.325887504887524 1.2693016944429882 1.6390970343728355 -0.26856535204306653
Ni -0.0012414757046139966 2.5072306072678896 3.714990592652222 0.6393598226613892 0.35058379999840267 -0.9564915136489334
Ni 2.4154304278177694 6.120624461998496 2.833821731358764 0.22593723295989476 0.0487134060453032 -0.8501961954241034
Ni 9.203159201384242 8.16632644913111 5.619085999376807 1.834060444659035 -1.1323791382506048 0.2881085642823167
Ni 2.511903630017789 3.7236436130216473 6.967342605673684 -1.1488892200904857 1.141317835501131 -0.25277157954391954
Ni 2.8633597122856727 0.8195334634265217 1.9863732529903282 2.5756306168426026 -0.0982271965047147 -1.337965061247657
Ni 0.39423522705858016 5.258820196575429 6.799906614888367 2.199704738534986 -0.07712640997035748 0.2722021774647054
Ni 6.092455742029042 5.352784330672209 6.40197587562717 0.8377217171061766 1.2146516111982757 -1.07897244049469
Ni 6.872356189554172 1.6249900287808914 0.0189970966760881 -1.1576515396641482 -0.44293679711052747 0.6846307786840466
Ni 5.21747187352093 4.47026393046366 12.797263079370204 -1.7647257628189543 -0.06287684202987881 -0.5897789264094682
Ni 2.1631618184489483 0.3341770909621184 9.360328533205859 -0.7393952760194362 -0.4236717782333284 0.06842271154877248
Ni 4.5092617510571325 6.980880380562315 13.574379300765903 -0.2026427812083284 -1.0029554615384275 0.6556711582269031
Ni 7.404623740897505 2.838119793001785 6.7370819747048385 1.2953418272604917 0.3864077516755474 0.6593892305084387
Ni 0.12699615558678742 6.480624434164401 8.594979747940446 0.9155770348227587 -1.2808585460426523 2.3324356252435248
Ni 6.15875483525516 6.518223146150118 11.99640678311813 1.8967634801152105 0.2460869684348923 2.1467510691560903
P 5.058178694832742 1.0047651829634028 11.913610333928444 1.4225908649188532 -1.5646689971702472 0.8657986778480509
Ni 1.567234825452793 3.152648735415674 0.06600061672313026 0.7399930575044351 -0.3430710365611253 0.6229055337601078
P 5.782767715397984 7.825419645765694 6.403177243551696 -0.9923946553034457 1.0569126324811735 -1.7465449781448696
Ni 2.6725026434065478 4.194443659530974 11.65454392220408 0.2770008844049294 -0.7715518061473229 1.6854820493952778
P 7.503494082512144 5.159380884126971 10.423977533774282 1.678181916189439 -0.4677286593432267 1.1715851190261048
P 2.322296431494924 3.027624390226748 2.5827423643065335 -0.5722360324296983 0.2276058789115693 -1.385590376435104
P 0.837259236747697 0.8920268768287039 7.728513652636342 0.9905174928853907 1.354666433162738 -2.02805454905343
Ni 5.893232003675547 0.2010257902402838 4.844740945763534 0.9900418388005531 -0.003726042701335518 1.5632826583456818
