# total energy = -381167.56981670315 ev
CRYSTAL
PRIMVEC
9.25435520198899 0.00000000000000 0.00000000000000
0.00000000000000 9.25435520198899 0.00000000000000
0.00000000000000 0.00000000000000 13.54468428266643
PRIMCOORD
 96 1
Ni 1.128290994225399 2.56925888987709 6.81568551033627 0.7064707573772736 -0.3284535437582666 -0.9816448729861095
Ni 6.022419760072883 2.409806348616397 6.035985719459653 0.9829005997700814 -0.05101197227149278 0.03209919452738988
Ni 5.686838329359289 8.728550564357729 3.7765015651969374 -0.5239378595449428 -0.5048098804662402 0.7731487183207975
Ni 3.469300465782482 3.6148992372075823 5.596907281175364 1.7539083604884762 1.0511441054285122 1.4525812406333565
Ni 5.925619203973821 3.048467914343786 9.05013848447119 0.28176333879057924 -0.9009217468034291 -0.3326007331574207
Ni 6.105773737968128 7.017225933918466 8.207373964188008 -0.8175169600235276 0.5199755324630851 1.1929504720757584
Ni 4.144729584988032 1.2055741150650996 4.967824898585464 0.46135540882703124 -2.4842027026479085 1.7944749690569288
Ni 7.378497454854909 6.818766285204854 4.195967248362609 -0.011720630871037878 0.5566847149586607 -0.6284927980398982
Ni 3.3954692194575946 8.292698194319724 2.219336910240828 0.9180902881629157 -1.6335997587036897 1.659410806229523
Ni 3.0398798726554563 1.302596775690584 9.125636440179772 1.3898506943733548 -1.568523337919331 0.6177880100278844
Ni 4.610871459816882 8.614148224539697 9.54465421255049 -1.5419317034737314 -1.4731996882146563 0.9552959506789356
Ni 8.827960848642254 6.222739534195283 1.6077535880264273 -1.534397085659583 -0.2674350950933652 -0.24496056813993294
Ni 1.4043299031472753 7.09576764707456 2.76348096931367 0.6542668216802088 -0.4512108641938616 -0.09212391182045425
Ni 8.820177935862205 5.761974439776908 5.925799663901539 -1.1722849733066067 0.8961119841196117 0.7017998342641656
Ni 7.978688665734897 6.70252232868857 12.305846579806486 0.10104075469410986 1.2399265837149807 -0.43050525621539404
Ni 0.19589526686896178 8.339876897473932 0.39946517056134156 0.9086129448000998 -0.47058155541098956 -2.357625237135275
Ni 2.450738361964978 7.547213605738466 13.762754176971084 -0.6712260752423665 -0.09125076518688155 -0.8648409419204719
Ni 8.18443149204411 3.4678105145843987 5.718741793708802 1.4867913108561621 -0.7247312462493583 -2.2139599629024196
Ni 5.687152977438387 5.34388117749742 11.661770290812028 -0.8311700320305879 4.822315323671553 -0.8564372912378088
Ni 6.627691611994782 5.300755881950419 9.621371892283342 0.3705653853266522 0.5977629730562093 0.838902110567523
Ni 6.367690500751651 1.9762768217505589 0.5712574691358475 -0.5512542879717087 -0.24868558240000396 -0.6994889267428017
Ni 0.3256404022851418 4.257901095555473 8.246274646555351 0.25067510202620696 1.3785758927904839 -0.4789075587781817
Ni 2.4693396160528476 0.4902226326706631 6.784924958862305 0.3982098865167981 -0.9220248473306314 -0.06519854818451996
Ni 2.6470047284801703 4.947137712820279 3.776447889936385 0.3972434088384707 -0.43119739718641226 -1.9778851272878906
P 8.088908036971976 3.375507575145389 9.643977505895501 0.013684696575944174 -0.40137748561150227 0.7795103988727672
Ni 7.058666936806764 4.809914132912354 2.730947283370434 0.42759245344397334 0.2754993601587384 0.2593813715509533
P 2.680403696640927 3.620590665697154 8.508919727098435 0.30134588890819713 -0.6449486296030764 0.8539988569996453
Ni 4.463440326048798 3.7905839176076395 10.681866405253853 -0.42804573893130793 -0.955837167894386 -0.17048265153601605
P 5.361288619755769 7.540291347998304 1.8747472901097548 0.9594408260852444 -0.3273577395909265 -1.152684168356544
P 4.916422507687125 1.233013278433524 10.608156390982971 -0.05125468440991818 0.8994407913825284 -0.07384671077782119
P 0.37479398485345533 3.1969910620334465 2.6056988391787788 0.7338890014892264 0.7793702737504772 -0.8317665279640063
Ni 1.533946403025236 4.909435469460089 1.449525397967638 -0.3037005051833027 -0.9399631769766069 0.6380071652882368
Ni 0.33405168578786054 5.4499731062851495 13.102585489601802 1.4739471079036421 -0.8564902559629315 -1.004893559101405
Ni 1.0212181037793042 0.821731221630988 11.060331592841964 -0.8511727004047599 -2.6980282399459345 -0.8143745577398039
Ni 1.6073519490078136 0.3399596661906943 1.9721058838314531 -0.8805735221643802 0.6894371989337545 -0.32371500063201664
Ni 4.7731928512105295 7.238719672893128 13.080778526849237 0.08373080266075258 0.5495023382776085 -0.30818528042753374
Ni 4.080319272325559 2.6576750001037097 13.135824357416428 -0.5887222030101795 0.15135827200173932 -0.5348871594675949
Ni -0.05175220552745469 7.5671752500506715 9.645210186017145 -1.1863067415069954 0.8832888642130142 -0.4785514609903436
Ni 2.8960024113101293 5.1743876607713855 12.319431973339318 0.7826255474629812 0.8722583174304656 -0.0270829722597211
Ni 4.406044814679163 1.2177435922419892 2.536662274318034 1.2900967768114684 -0.8349456970229362 -0.27345121938045813
Ni 2.2386470479421954 5.286226544180292 7.19098108124523 1.9629210497788903 0.5728415272241812 0.6500388996417902
Ni 3.8441203628306866 7.577114427608071 7.428297916856428 -1.1892755943273323 0.3659484553799311 0.5278734471539231
Ni 7.0885122325447645 8.184015046057068 0.2816646314890487 -0.6651970954394673 -0.060993251853920766 0.7067191259426538
Ni 8.688109031838332 1.3403915626034493 0.3565758610736643 -1.5339031767423001 0.1294463024199964 0.42509796915689363
Ni 6.868749058005144 2.1581711745351737 11.629750221586141 -0.0886925175414021 0.5221231749337072 -0.5403816069232629
Ni 6.3920479638159655 2.5672229317182187 3.636572011808767 -0.34626768912155204 -0.3995684574272216 -0.17083155023500257
Ni 0.9546607806947481 7.330023141963237 6.974049739417493 -0.13468878176585836 1.0480353845962016 2.7537450738922638
Ni 3.4157362574936316 6.943552011633128 10.806517943530748 1.9930651774624386 -0.5462779178030399 0.3769491773658089
Ni 0.9717535748739994 2.0943809036756287 8.944096529201905 -1.2542707682517948 0.7611059282236505 2.684318860779641
Ni 5.529708631270763 6.943811133580621 5.971824348953877 0.7882004704475973 -0.5951345342944266 -1.4953564268173538
Ni 1.8796891158226514 2.4455189055940534 4.453979598658734 -1.0701461004523118 -0.9410571813717342 -2.1173147661728438
Ni 6.450822374120473 5.765944558186707 0.6700366063911221 -0.7093473075941203 0.5911958613616529 -0.020041234921591294
Ni 7.606497005582691 8.315130751488379 6.983761259835309 -0.4347581179544771 0.09661845725669813 0.47551344549496816
Ni 4.295927241350029 5.506026736140983 8.905684476792691 -0.06852812677838521 -0.6580496857614087 -0.43634525993593887
Ni 6.504849300172703 4.843914634165504 4.947994666118058 -0.8058423518990766 -0.3333900618279355 0.6177782398358715
Ni 2.895641491454693 2.859512488489995 1.75792401095372 -1.0670643762031946 0.20529975921520127 0.17275653517185732
P 5.613691905324204 -0.13990826837105483 6.342339119931597 0.5874384512017495 0.9883526240235881 0.07291905675722925
Ni 7.926457084604582 0.7079257877277166 9.351913755392253 0.942472573662022 0.021560756889911256 2.600456160526715
P 0.6788411999927135 0.9530690315887215 5.5167497575895466 -1.3234167311198368 -0.7020415179613264 -0.9410731222113342
Ni 6.9864644570089744 0.3975134270354054 2.116072186987349 -1.3014458832757005 0.6795114551796104 0.11452156278936407
P 4.012151691424441 2.8132129490862083 3.7693497994461382 0.6329914572412002 3.0942030983105746 -2.594032773498874
P 5.811235372866324 3.9547654344100738 12.937056538672406 1.1420917375526782 -3.440755922772713 3.331690498001914
P 3.655738707003487 7.91837803245597 5.24810507852648 0.10494497484452249 0.3326683531705626 -0.7012709583438891
Ni 7.292885414274371 4.506528604174728 7.6325785550333585 -0.4716971570726715 1.5029221549797536 -1.4000978260226598
Ni 2.0723555381387486 9.171204885517419 4.162281395188557 0.3274544130697909 -0.6399306075631946 1.0934950595908974
Ni 5.693260851915001 0.20605007090409572 12.428115121601975 -0.5541987153120133 0.6951954415737706 -0.3589900217842269
Ni 2.457762417613084 2.708555445364957 10.91964318232185 -0.28822966324121324 0.934198763689004 0.9022756897281623
Ni 2.1071056421685745 6.512206512610442 9.021071480011196 -0.32576674095472286 1.227330749327841 0.7623408290720162
Ni 0.11178983532598877 0.46738103299918077 7.593528877546207 0.5510082333991737 -1.5730631347712134 -0.6489438668053984
Ni 3.907179539624091 0.37240821206546887 0.517151881063843 -0.06163757030613901 0.30743066164969635 -1.6409196894038707
Ni 3.682030330318729 5.780362843693622 1.2231786750906488 0.8586283853518567 -0.07938152455312135 0.8348461953305946
Ni 4.1921396470239305 2.3226210676403682 7.341354174552882 -0.9726089880360863 0.02069609489677081 1.3884797821677572
Ni 1.3370970121281849 4.366399156712778 5.555948430196508 -2.13646974183474 0.5614834218988846 -1.7247461371022232
Ni 5.33483041804571 3.7104782184113216 1.7244010344323775 -1.2567182013510227 0.2816638370982375 -0.1005159925388914
Ni 1.6059730500729417 1.3330436045209775 13.524706247293748 1.9145691408380638 0.7351588693405855 -1.6359618311779631
Ni 9.398723209771285 2.6690856201486564 11.90694222317436 -0.6430059040544087 1.0649265039245852 0.2936593188972168
Ni 8.739553992770901 8.351472604624231 2.443122027579746 -0.16799382367589133 0.002310907521363762 2.0345766664426637
Ni 3.0942954816289254 -0.18943942863428628 11.742930061073322 0.632269234363195 0.6319468180267697 0.26464004884673126
Ni 7.952230464024838 3.929945253582379 0.652796667963116 0.5618911988602645 -0.7845564459371068 -0.30975776712097625
Ni 4.70633938875741 6.344138166595617 3.611242841441354 0.2596048004156691 0.05402556228683599 0.18145252028395847
Ni 9.016749696101227 8.195610753207367 5.19901905275162 1.3169298378439127 -0.028152036954183772 -1.8199993385802784
Ni 1.9085441955470182 6.746184376841092 5.0713061737522045 -0.1441722957762614 -0.5352843949060136 -0.8615543007494001
Ni 8.080754949981221 2.432257414495587 7.658475942814201 -0.6288144430453751 -2.3067955560779176 0.7614046904109919
Ni 9.172324662504797 4.962620249182968 3.7551286317064223 0.5333311278343847 0.275028591169907 -0.6979449792944497
Ni 6.415609552327267 7.794665811238736 10.918654817179272 -0.17226828268152913 -0.3679562298385792 -0.7678008237453228
Ni 7.932833335383956 4.591307752781183 11.466685705464505 -0.44488055110045954 -1.5181469423493081 0.7438247725456996
Ni 0.5127357027301458 5.333247923294952 10.281512816586824 0.05354270911314649 -0.37183756717085636 0.8458790561059883
Ni 8.780125086264047 1.367988050011423 3.178909902711616 0.7367449828807828 0.38653270728918593 0.6389199069104932
P 8.246935407521457 8.889863231027208 11.60069709865905 0.14199354295738773 0.009250572063990522 0.17695308975170812
Ni 7.487347181512382 0.7154181137523631 5.126689788286664 -0.19709922568227992 0.4807839498652881 0.15921350638009998
P 1.7549774242365173 3.600462442990131 12.98194293802683 -0.020188044912100717 -1.12122877806074 1.1272209910884328
Ni 5.932254576700688 0.6601807180311315 8.462813603719741 -0.1654808274460505 0.8554417600937589 -2.262206713723949
P 5.352302640790932 4.367990905818805 6.779290907375392 -1.4013173002520576 0.3888459288033948 0.25380464879412423
P 1.7234848532608855 8.696872906276745 8.905440161813628 0.6198137822086617 0.6545797249349372 -0.46708202689816336
P 8.223040662220523 6.437329524140317 8.05086523333794 0.6129895601979767 0.008592883875333588 -0.16374738969471156
Ni 1.2917784343827634 7.212890767341265 11.477427235623605 -0.4123869493481285 0.5644792713024148 1.5727954829321233
