# total energy = -340888.17732315324 ev
CRYSTAL
PRIMVEC
9.07759989346029 0.00000000000000 0.00000000000000
0.00000000000000 9.07759989346029 0.00000000000000
0.00000000000000 0.00000000000000 13.28598502194207
PRIMCOORD
 96 1
Ni 6.4564884062363905 2.389287869948558 11.374278220126717 0.6921512554308079 -0.8495279657124853 0.16808561205874922
Ni 4.970957317240498 0.5790047322754024 5.6920882175973375 -1.0815756824454923 -0.8217641653356555 0.5758152651405244
Ni 2.820646345566933 1.9270292438429057 4.89034550573281 0.5977730003585383 -0.4605948765119229 -1.620751699096428
Ni 3.5834189205213884 4.828202979237289 4.660033176682292 -1.204464643362945 -2.698432160252572 1.6203071553598414
Ni 3.794119094716512 2.782130088658143 2.445272152586686 -1.7075860803831688 0.6394675518838472 -0.30473948797077843
Ni 5.270881222087636 4.504150813522001 2.618295747875392 -0.1151118880751953 0.9164710073919378 1.0078922367184127
Ni 5.39999192725231 3.151897048102552 0.24311265284667313 -0.14007472866812007 -0.40634485691910666 0.2969870977188692
Ni 5.841644401299759 8.330785871530356 12.056725835734294 -0.48327072084288375 -0.3477977526128333 1.6916544967545768
Ni 1.9029736037749603 6.797561071999753 0.22508453919575264 1.3178181539861369 -0.9568380983550746 0.147142691258495
Ni 0.6879023454629843 0.39753352240283585 0.1772492181006415 0.03659476840489826 -0.019781553502301416 0.23577375943434234
Ni 8.22378820002814 8.769715065570113 6.536956791663674 0.17659673485355393 0.8579822671274256 1.0143724451261174
Ni 8.828129421735104 2.527848356739923 1.3844265954303214 -0.326986729404753 0.049446170446269685 -0.441888044131039
Ni 6.939743521201348 0.44875660382751575 4.380003740051347 1.2795915064047705 2.2161919375567316 0.7622917210016356
Ni 0.856654929939627 7.810403372460531 2.3625806629131234 -0.6546596862432531 -1.8125212850356784 0.5155406366201831
Ni 8.091327860454005 4.2170807903111704 3.9406896557705013 -0.823850101330407 -0.8995603476795281 -0.3380167619666695
Ni 7.708035276971392 4.199606410261813 12.507426861487303 0.0595385216852652 -0.005989127703899363 0.5399131519272765
Ni 8.23946521527242 7.226868010012332 8.86928544473135 -1.0715051855833675 -0.33102978912587505 0.6431313738886796
Ni 6.9286416163699895 1.0434156573471338 0.24098940220067602 -0.5425379911446334 0.20646755427105734 -0.34764631463663354
Ni 2.220471742271736 7.047512788705743 9.093406850564381 -0.02630752754627727 -2.4738550408649975 -1.2277683510858919
Ni 0.2971724842793655 4.910582199469969 1.2516657872953376 -0.8078876644638795 0.9630915354639542 -0.2178714252326248
Ni 7.06579507515738 1.8757135708979644 6.9632644906277825 -0.5867478528926281 -0.399949237805408 -0.013085629539364561
Ni 3.618394913420178 4.746123319805454 0.34286639952842823 0.6102040270330394 -1.23331062106036 1.4795605974356776
Ni 6.398791180473425 5.840600477296811 4.698907091032091 -0.44277147517725685 -0.014633690752774797 -0.45333819494950955
Ni 5.773244685106564 2.8734689001161304 8.836096831277608 -0.34593858791690746 0.5780870918938367 0.2616840515422009
P 0.34553249065595865 5.801693883586919 12.20600696815594 -0.4675365979370787 -0.5191856895719381 0.5534530953952405
P 4.1156930756248 6.515619892803407 12.526518869861228 0.8370581153802488 1.2306541572741192 0.5076956866544675
P 2.4658483485648035 8.654638330045078 1.2960906540608157 1.3061990816899698 0.5709363397816684 -1.2185038950648306
P 6.460264687847057 7.938152437621359 5.5985281174130765 1.369462617635306 -1.6062085111749305 -1.0969341671794333
P 4.706018482892178 1.173297958513987 12.416590041310732 1.3645623521202113 1.5914429228299818 0.4175795492926615
P 4.26000876083242 6.399245060474707 8.174122834767859 -0.4975442000427625 -0.4349494080296767 -0.24838502044044963
P 4.78807998712396 1.511320550668734 3.8099159342811304 0.11913592163292384 -2.1834679649611495 -3.0098058657104163
P 0.4507809086332334 5.857121709343476 3.541525796403061 0.6491621534637917 0.06684199732521393 -0.8050021153859684
Ni 0.8002912036204274 0.45116670663432307 4.838370799026007 -0.4600294909267561 -0.25193211436175966 -0.45540536189118347
Ni 2.142812874052388 7.085629631213403 4.38306016797998 -0.5044368133975377 -1.9977880368594045 0.96178747194055
Ni 6.199946351911786 5.759927845868951 9.05431961261398 -1.0179264810259632 0.6268316082873914 -0.6630183426205937
Ni 8.826295746529926 2.7016208540307445 10.270876874050154 0.24972147986368604 0.7999416701439256 -0.2385577499373827
Ni 2.4854831974202622 5.764620965082207 6.915820414093776 1.1354161253047155 -1.0568730374924895 -0.08116664147800215
Ni 0.7197029938728055 -0.31272785968330175 8.777917584953281 0.18849502895303666 2.744838001210621 0.3942452454420952
Ni 1.5951884973056194 1.2541249091422835 11.405978107176255 -0.02814972296133862 0.2733805140435227 -0.8848880903793342
Ni 4.138278144488591 7.052441925519664 1.5139512391561645 0.46663954004410607 0.4560034004864985 -0.5960259357604445
Ni 5.9585366568299225 8.033194909889808 7.57363596203178 -0.07108354621038725 0.6362914681487106 3.259888842678579
Ni 5.327107876646448 3.04587067980308 4.932342114491431 1.156429237221273 2.068029546784471 1.6608580801990107
Ni 1.3378022261786304 7.894071611896853 6.6743072343716205 -0.10710598705158328 -0.850319094155213 0.019758413573849845
Ni 5.146935671337551 4.7538574350272995 6.836463126909631 0.2513271337879091 -0.06288712644252395 0.2300610253202812
Ni 1.3017641540768408 7.502554722791011 11.183996291669265 0.6982272864215588 -0.19256508525735222 0.49380015961929796
Ni 4.77415494868463 0.8167134898268121 10.202268373056368 0.375283873848244 -2.3276598011214364 -1.1559525546951703
Ni 8.33951852275502 7.626109936739994 4.3833524667008055 0.7816343871943054 -0.8401457531666369 0.32470976044511823
Ni 7.630539805552505 6.260276081682187 6.7628056647815855 -1.2411501717094366 0.10466318193804555 0.8862857420578091
Ni 2.597591557736913 5.407635266473899 2.394453024363147 -0.8469702322876381 0.22061067854065877 0.6653919850590927
Ni 2.77576669104017 5.17671019942165 11.597150548196222 -1.0492016369901607 0.5231246196150281 -2.0585617165033514
Ni 1.4128285903905429 3.6389556774782523 3.6476138923827075 -0.2429823613676396 -0.3447515095873418 -0.01940668666138593
Ni 1.3368763109760151 0.9866080363866804 2.4679116870506315 0.5191692345117059 2.195283212428522 0.46335649841746007
Ni 1.208727831414059 3.5856156997275934 8.166018353464969 1.386685923492128 0.40964795315041064 -0.05102174246350568
Ni 3.6069117493877436 2.742324812545713 7.013379197089332 1.9297466199094508 0.46858457958561883 0.4823749485014918
Ni 4.523313627176127 7.054411764725229 5.969459732940775 -1.3797323749924302 -0.0496189485787081 -0.5933195925728749
Ni 8.699872010972841 7.396918691292641 13.481023065997231 -1.9073556538087604 -0.3679104642023083 0.02142140309856956
P 0.6090688358003186 5.878989647805242 7.965970742899932 -0.650478301172054 0.25517736077193476 -0.08631681822037393
P 9.035561659920997 1.7898031642553098 8.162683243215549 -0.6814487814116392 -0.8650466301733747 -0.3718105705876629
P 2.1365765628347733 3.454262827356586 10.46967540685166 -0.2852335567273669 -1.0421748120503664 -1.5579298786742009
P 4.4062216644453995 6.352676972343174 3.769672210087462 0.39546060590643506 2.1112379638511447 -2.568056404039771
P 6.974955531700804 4.174679320591407 10.291138077307382 0.6890083389264522 0.07986412061649471 -0.13869507471177403
P 6.35957594836266 8.050514970738728 10.066976730034238 1.5781742307455335 -0.7245096171568555 -1.470069884336423
P 2.9058033114074586 8.77898329519629 5.500158704735231 -0.7241344932056238 0.7582100947330942 1.1426044155230386
P 7.011874131005081 3.9869908624612798 1.555310600392984 1.7195429956347288 -0.505505363871368 -0.4273271155977286
Ni 2.942494970711095 1.884791170923604 0.19325484246584948 -0.4992336719300435 0.047822004579285385 0.22107039178589669
Ni 1.7728825178075174 1.2439579971135668 6.932574032701097 -0.9902071607338238 -0.21343832916193564 0.24684467253652326
Ni 7.4259397785746115 0.9225564906057664 9.479085027333733 -0.5046450727536019 -0.9620844343556787 -0.9295437814154959
Ni 2.6712562819449794 1.7573779769637246 9.0588230099867 0.10957116076262419 0.33968926457308596 1.0454395988445673
Ni 6.736595910227556 2.101437173135522 2.7881703237152036 -1.046944208414552 1.6244623151787958 -1.154760077048966
Ni 4.221628667924016 7.153620855405445 10.315717494896806 1.006651422332776 0.47455982333244723 0.4888644128805774
Ni 7.404171693713128 6.2533407952625994 11.120463076849814 0.32481517567473095 -0.05903844212039509 0.6041627059349659
Ni 8.010709694626298 4.172900110986381 8.247341848814667 -0.8502069940573809 -0.016303879366346113 -0.20878257555747914
Ni 3.2291292691206954 8.622412849954058 12.42224992492672 0.2796699465966603 -0.26011567861381657 -0.17484709915229887
Ni 0.6273974180120878 5.151556169750601 10.086971959610713 -0.038886392652552386 0.08686317764214717 0.16027460065476268
Ni -0.04745224637402916 2.7951201342948337 6.065251107211338 0.6067266100074002 0.21338999242250345 -1.1464430725428385
Ni 4.182631298213868 2.865889104094721 10.886748463309686 -0.9768189123523758 1.1375737950776665 0.9696159668460332
Ni 1.032477149316238 3.6025363461753854 12.286799423904139 -0.33420458730943087 -0.25204447156990784 1.43826045313531
Ni 3.524541606755089 8.745668503102193 7.966768663942186 0.4429511952882307 -0.4031610598744863 -0.6591118084773359
Ni 5.795239709968689 8.00037938579712 3.1431716589579075 -0.5323186274094703 -1.018610137356549 -0.27064717427275964
Ni 3.2427002811590264 8.732378896664656 3.3203137613782463 1.4814079350570615 0.9441486758128642 0.29349373985363
Ni 3.634507653465689 4.221074934322451 8.925963256011437 -0.02090769668694464 1.1894828252421321 0.06526951063177146
Ni 5.378187531990723 4.921457164300685 11.63824393575229 -0.36691853260268426 -0.16108192704740645 0.2499675344362211
Ni 7.869562091827626 0.031226036328198127 2.215252122256993 1.555661137244682 0.2527733793161324 0.4120244238023872
Ni 4.627134138669368 0.6856556394566384 1.637364842544747 0.7102641629814348 -0.3753121559830182 -0.7323666513074291
Ni 6.29399936577744 5.783003105134128 0.7189323056306287 -1.07153423904909 0.9424594610358995 -2.194370470806266
Ni 8.401137271729063 8.434524684623366 11.16924882266761 -1.2374195010224107 1.8962369181877796 0.3705108779396329
Ni 0.3650357143110456 5.477124294670171 5.72295114992451 1.0194966537265604 -1.0810712320052478 -0.8185631418998547
Ni 7.75985929551777 6.4626430190537745 2.342265901815744 -0.0170978360225512 -0.2234540615267248 0.8464506123387423
P 8.76010188714296 1.9210924934261375 3.611874473321761 -0.21042576758785694 0.10951125405896622 0.7137004423564934
P 1.8527290876330444 3.4661726385902254 1.2849115896292405 1.0620504679283709 -0.36592145879673754 0.2197904966322086
P 5.092179587982892 1.1638572544873218 7.721309451488885 0.2099323728912062 0.7825859524742973 1.7600584392502718
P 8.528877259289866 1.5604848324075988 12.100423586737719 -0.12742412978364506 0.00744977140982588 -0.009244144306087304
P 6.5525566473077355 8.049607210736164 0.999472811143017 -0.6750102248751472 -0.9809316489691686 -0.2503668267571688
P 2.026601438524148 3.6679041439600173 5.970801402224565 -0.6647561512473068 0.8983241612795819 -0.6630203995031226
P 7.133813532149499 4.032106534588709 6.0985595449854175 -0.2167306267599622 0.5748459592487197 -0.40995288598533913
P 2.640038415456804 8.917816109988426 10.043315057807405 0.15945750407010603 0.18701947284877468 0.8320624619378703
