# total energy = -340898.4784836773 ev
CRYSTAL
PRIMVEC
9.01233315210028 0.00000000000000 0.00000000000000
0.00000000000000 9.01233315210028 0.00000000000000
0.00000000000000 0.00000000000000 13.19046054869766
PRIMCOORD
 96 1
Ni 6.360922582869416 2.0501074625829467 11.475317859687406 0.5751989717127642 0.3346643005546688 -0.40254708043957127
Ni 4.52755271410942 0.37807998226554757 6.080129832986062 0.052757494207689784 -0.4241314914785663 -0.349488767162011
Ni 2.790795053997686 1.627726456732381 4.788321862763791 -0.22691450927149953 -0.5789059882507063 -0.11485349220748607
Ni 3.60678969909385 4.484032158553221 4.843695438545193 -0.4040650597459945 -0.8741645333142429 0.4720188020781484
Ni 4.97058998695829 4.568666976782309 2.7121957951092455 0.48269299396254284 -0.6240517315494092 -0.922793864286172
Ni 7.314652711619626 6.168527300199352 2.640558563383191 0.007375466528464717 -0.5974053326064743 -0.5902304121245899
Ni 5.035668042802421 4.494964118356425 11.515561531002511 0.3922215301438471 -0.20895946745497557 -0.03220769508079614
Ni 5.566764820380969 7.856519227009244 12.335586491369897 0.3782149314521099 0.3978419616544181 0.5056053797843422
Ni 1.9751699145502701 6.31690634900392 0.42187271027521467 0.2625083472157092 0.09898464349602952 -0.35816238367660896
Ni 2.6446961254158796 1.4581323762899387 0.30252599066276453 0.10418624230162701 -0.3998250535227179 0.2245776336082068
Ni 0.6394457473576521 -0.08326674609543058 4.602217188455339 -0.08807956654775154 0.4336116630548597 -0.018978083764399575
Ni 8.51834890558142 2.3847263706894104 1.3813445963136533 0.5285427053068058 -0.016670261566829353 0.36474415065918475
Ni 6.925860670473544 0.7332551204751664 4.789891811154324 -1.3852718167534208 -0.5819404042016558 0.3542399086937512
Ni 0.8170265572127894 7.276548568134099 2.37123580957695 -0.9956692122896594 0.29667650845698584 0.48416880717712096
Ni 7.562978532244084 3.910270997043621 3.787482467498077 0.38387547217199697 -0.2331682034906952 -0.07757481036168576
Ni 7.568061487997593 3.95243069033248 12.679804435244204 0.5062085605859798 -0.3184239274364064 0.06740198359374198
Ni 7.912341616968884 8.722171826363983 7.136949334037099 -0.37552735731761777 0.6629314393337422 -0.5326431006284246
Ni 6.813476879256771 0.7962161793219592 0.4261788029330635 -0.25557253932782437 -0.6746952647378897 0.0728421807727068
Ni 1.8141105133606172 6.428109524611281 9.15242510499946 0.22904698223347003 -0.2189402328167713 0.10184550998359235
Ni 0.11634921769114305 4.722895029636571 1.5235510983175506 -0.3511054768298276 0.5736108012900379 -0.31870983410794146
Ni 6.340987302502816 1.944257612715985 6.913977909549782 0.5356813732341161 0.3650907353653261 0.5449280886433648
Ni 3.5078252715596556 4.19139269707769 0.4857016567799205 -0.3916083220398804 1.2080441331840872 -0.6841322417810733
Ni 6.0082069103071944 5.556112242897551 4.682270136639951 -0.15276620809285946 0.8722187224417818 0.8526469709574412
Ni 5.492286901326004 2.896131200889559 9.242780050917826 -0.4545622971645978 0.19020121301086598 0.03866039268467536
P 0.2748698447039101 5.558121993133425 12.540737830021374 -0.4374346363453757 -0.4725214527461798 -0.6879212765098603
P 4.07673779797105 6.170825445087907 12.572197180462464 -0.2956298123600264 -0.8421962079377625 0.24013306484430255
P 2.284157747899677 8.352494943290939 1.2626629868689496 0.5784753284711909 1.0590664455993826 -0.9772382592779814
P 6.2928614448366105 7.855275525069556 5.858305678476443 -0.2502418711435303 -0.49464862366252227 0.20994754239985777
P 4.786486050552815 1.1083186749203247 12.618099695603153 -0.7576236261020048 -1.225996861007766 -0.39893082384322265
P 4.0061622190601796 6.172754084327713 8.165330418633884 0.10676840120650645 -0.6622979195148013 0.5184580673772942
P 4.657005863831773 0.9131566060510989 3.7439673193416154 0.5646602769649695 0.5127787576043298 0.36739187269467694
P 0.2362925537413278 5.680491449199292 3.679518324333645 -0.08197448209127817 -1.180461338469812 -0.31965779984350756
Ni 1.3824738416255589 1.0941963492718336 2.531077644592313 -0.053876438303481405 0.47987686466998647 -0.306160279577705
Ni 1.9707809084297754 6.459111949774528 4.799282662032262 0.3781923057442906 0.9110218113519083 -1.1922135939097338
Ni 5.977204485143947 5.626768932804489 9.234931210198443 -0.2359758481428194 0.04488426210720012 -0.21480821292626873
Ni 8.597116695095021 2.3675038025245945 10.225060349050203 0.6244844482114535 0.32573511638583896 -0.09938830669235141
Ni 2.319495105186042 5.468557428810065 6.847787731826247 0.17982192665907093 -1.7871738074098253 1.3018577740021384
Ni 0.49925800792252445 9.168336378727865 9.070670628364027 -0.05389675001845557 -0.6996609335442918 1.042376129427895
Ni 1.4282564927387273 0.9703038089464932 11.399749448351988 -0.5033381810167202 0.19476903488720648 -0.35311787927416605
Ni 4.112904289883874 6.781681368798648 1.5269145009544471 -0.08513848164155662 0.5939788234234287 0.4262976458919497
Ni 5.619387832162425 7.91614482145112 8.061349726609613 -0.46611503499920376 0.2425581293460274 0.2048127922764537
Ni 5.390483588929477 2.8699413614929314 4.727593158775409 -0.7025997044576416 -0.3403335830253042 0.04475596405945195
Ni 0.8503460531636743 7.404496658262771 6.849225198923206 -1.1905894280427494 -0.24098332865973981 0.38387444373073243
Ni 5.051259378713008 4.5659182152489395 6.995837830480101 0.06570814083108684 -0.17129357747308563 0.3870849802482301
Ni 8.186289500017503 7.065732077024013 9.040648745019896 0.588833017556431 0.7535846801459408 0.8392525519284062
Ni 4.689116805941265 0.27833688916911403 10.453440074508585 -0.19593374461926902 0.2436143385246837 -0.6958261331792339
Ni 8.008377036311781 7.276755851790713 4.657406011412368 0.13042974937918828 -0.2872750126374278 0.8877710683540839
Ni 7.267977839549725 6.1387415399771035 7.022495409954046 -0.5791006207600156 -0.30207145422031206 -1.1488547673081246
Ni 2.265691477795172 4.971689491571637 2.634530213908861 1.0244228873835841 1.171799806140072 0.36291558209087815
Ni 2.4589699690890727 5.216960131344251 11.29704850759899 -0.6959012093915434 -0.06058933154728274 0.9992145064387564
Ni 0.8955528162047699 3.2782541156923837 3.6920887262573943 0.6296472233593157 -0.012551354302449353 0.34933604363423065
Ni 3.6011209417020815 2.4953347323256154 2.523981333669772 0.4043648503746004 0.3240803543912354 0.32379444771970045
Ni 1.1528486117609085 3.3805531063982057 8.109718917264017 -0.5206926131347678 0.05063350588615151 -0.378365083876729
Ni 3.5447848487673537 2.6924885267649215 7.179989532249926 0.1467536833501924 0.22906138041117324 -0.6166220147442413
Ni 4.255344211309786 6.764044233320603 6.0366137835963105 0.3113996735997734 1.180466994896767 -0.6679720870814432
Ni 0.8604173351752818 7.30885778156731 11.340642964284939 -0.553248435583602 -0.06034481963664446 -0.046814389250377446
P 0.16662271428653447 5.50549898135197 7.961682337109509 0.8141760685757526 -0.3535446823989395 -0.3582333461238605
P 8.419141145059026 1.7409483949085105 7.972445766287551 -0.25155879018274097 0.17876803147325987 -0.14757797902370068
P 1.7739425456418394 3.391331856542172 10.276621708016474 0.026563095200509094 -1.4554266805019516 0.19266510117032626
P 3.991553227435288 6.247709657026182 3.693592884617786 -0.5515988157953209 0.3342310696719921 0.21730449698556126
P 6.992317613250809 4.057388319242709 10.493208795880058 -0.7473901212994547 -0.3734699605679568 -0.5078093294141964
P 6.504930650219282 7.741170378269589 10.18067460953596 -1.5778201898402247 0.0009605641410564103 0.28650445301999045
P 2.3629435620790704 8.47764921022176 5.77917559318041 1.3041028612825734 0.3431422561186929 -0.4765861097338566
P 6.915081920329578 3.951998098353458 1.6528438285143499 -0.45956386414424727 1.0805187019358875 -0.12105525014282377
Ni 5.30118038226011 2.8524754603399156 0.5655148769094915 0.43225874857139107 0.13462244730429718 -0.39441288136821107
Ni 1.313655667629465 1.0165641137031651 6.995402534801211 0.42637863564153017 0.5650292302686141 -0.7405499584491698
Ni 6.922706353959842 0.7300800755958023 9.363617410391322 -0.24835699541599163 0.13353075690201519 -0.8524078583634416
Ni 2.6773838568307347 1.4594481768927976 9.07800486487503 0.12333247621277468 0.029528091366103987 1.0441316786664212
Ni 6.2848855302233915 2.0262067557419776 2.5849740990120145 0.3700496220324982 -0.6827623580167402 0.5002096626900675
Ni 4.169582851468661 6.740233649808597 10.459586485543857 0.2308488113288992 0.6744355833185998 -1.2656209031572914
Ni 8.06495646223471 7.160785152081215 0.2723094409280733 0.2464937169550077 -0.043811597868311646 0.40490272515594133
Ni 7.512356258365606 3.9610915422458177 8.188281225587584 0.7712664136964201 -0.8361050074383601 -0.1692976300889794
Ni 3.0602457829310548 8.203881573831067 12.094082105514643 0.2456997602988027 0.31965034364433975 1.8030130884349271
Ni 0.04356381475410127 4.856746197812316 10.255649108133511 0.6157645518399525 0.02878349989059559 -0.1496294622360907
Ni 8.5891407804818 2.3182874525779384 5.661516883519436 0.41284537704178575 0.5618873422055226 0.7232423204086575
Ni 3.5637918588456357 2.516468652967422 11.459766178041562 -0.19262756306417148 0.5779125139891854 -0.6809397029857046
Ni 1.0666366352749694 3.350587099518031 12.463270520144707 0.030267283524973675 0.1240171609846251 0.13507213324720607
Ni 3.013291528541368 8.15058263708239 7.8955056778853185 0.6517772224891356 0.6718436542217074 0.20991540361034172
Ni 5.637232251297085 7.809673120614313 3.5449497744593557 -1.2163341411070212 0.4679256058453812 0.669039352003693
Ni 2.914426236669034 8.468447618334645 3.3431879742101747 0.9433732310994206 -0.8310209080472333 1.1689708213317094
Ni 3.436907223998726 4.26377074256782 9.245048455107822 0.6274674420991774 0.3097999332128213 -0.6411282274157216
Ni 7.276728814792024 6.098213078942474 11.3815598568674 -0.08073623880880289 0.055869814584426365 0.3740970526289944
Ni 0.2679691014052185 9.115343861297664 0.5501362320552572 0.9286426097574653 0.10010975823940824 -0.3981402096211272
Ni 4.497154115250224 0.2818255632332691 1.5435737983132447 0.21265002893268536 -0.08889717735304045 -0.3651231312651583
Ni 6.074366446098882 5.753148877009206 0.5311679750084292 -0.5385440394938918 -0.8797800797288073 -0.6046555864109845
Ni 7.942532932171465 8.75093919296895 11.47190128428642 0.2758490301886733 0.4862256897061497 0.17397009586398426
Ni 0.14736876628689405 4.876465182189405 5.733193769510234 -0.412349925462606 -0.5278837315665683 0.2222117044791915
Ni 7.7494436998683875 8.703074692956738 2.6424448446583857 1.0608420494425665 0.49859526701509616 -0.411404273719885
P 8.450918630851355 1.5702007358553425 3.5586809648601476 0.24664464071057518 0.3423917511059135 -0.33641496469718835
P 1.8519082375276703 3.218385188262309 1.4534171237185982 -1.1966834567556293 -0.9673325701284953 0.2902667482759001
P 4.717451580567211 1.129795064212191 8.224582001260563 0.23517366395649822 -0.9054422603816019 0.34830168883244533
P 8.510165707311586 1.7104326357216624 12.433077402475549 -0.36558592983418975 -0.34548967330494695 -0.4706710298010023
P 6.238300781482453 7.816468419618118 1.402277541931873 0.039824588196105605 -0.5208864743131287 -0.5125121342065044
P 1.9521794533318266 3.293466933621326 5.812284200541522 -1.2442126126848443 0.8039338220224541 0.37253562167914556
P 6.861341379268983 3.980008428995137 5.962827110474491 0.6798176735661196 0.026527613976883347 0.06645761740260167
P 2.406256833978655 8.373547752936679 10.062065098754426 -0.30076661936595944 0.8015074719691486 -0.0653831533915003
