# total energy = -340871.87857620657 ev
CRYSTAL
PRIMVEC
9.25039784094071 0.00000000000000 0.00000000000000
0.00000000000000 9.25039784094071 0.00000000000000
0.00000000000000 0.00000000000000 13.53889228475919
PRIMCOORD
 96 1
Ni 1.6006240394863929 5.048163953261356 6.239060134009989 0.5098047625776704 0.3738466271810852 0.5373327927946101
Ni 4.404863556354395 3.3717051546497707 2.512737289073818 -0.36860671893838454 -0.5555354318455659 0.2659921919992516
Ni 6.703929612550783 9.099856581506367 0.6231650565571434 1.0207860619619453 -0.8770667945627024 -0.15692059658086524
Ni 2.7750082606060347 5.069032850136989 2.8922320734948097 -0.22333913321541535 0.8154377088969955 0.020700208661828867
Ni 0.9408024325528893 3.0934901978982103 0.9306713971547543 -0.09355267384718081 1.1940694161715502 0.5266138637152091
Ni 1.983821758047152 2.87031510657662 7.557869887057628 1.8385791584649949 3.316783498983094 0.5791720974278993
Ni 7.186772613533667 8.839291383282603 10.109151732648018 0.6744471532828256 0.8642896974026922 0.308397653548656
Ni 6.117463658198735 6.762762140976768 0.41502278629609846 1.5057619384213938 -0.07812322666598803 -0.27057852581835334
Ni 0.026581017363532678 1.7541621380421315 7.481049960593227 -2.2058342484714912 -1.089255310477937 1.4024694115786298
Ni 8.052757830692002 1.9426112369563087 1.0006673053455943 -0.2620902858416841 0.04887230022067068 -0.5185423995609844
Ni 1.4740878513827689 7.087996868481359 8.30249543858202 1.490204450302769 -0.09835446611119836 -0.012374719515269009
Ni 7.305889982801184 6.674504097940239 3.4450793080263296 1.2855657217103345 -0.24462503917738512 -1.389165238270556
Ni 8.925495838062753 1.4621363377465468 10.225925051176047 0.15334342075256815 -1.0501051226410367 -0.6440957946844778
Ni 5.510850337980053 1.686569483135108 0.9690818229068324 -1.0932081244780978 1.9063704070773555 -1.6289836000879172
Ni 3.935618639771857 6.224638764227581 1.0146603817213786 -1.2327940864352576 -0.5433717998998384 -0.03134071909481054
Ni 1.998095121468739 2.640405725837716 11.880445606955076 2.713614781530281 0.6887139476144848 -0.7715258380053939
Ni 6.659028182836988 0.9915038615313208 2.89565749570804 -0.22922670234444392 1.7318382680623141 0.30882831332817134
Ni 4.325754156496058 1.7545414043417331 8.219150281684964 -0.8158130899585434 0.36413325654806317 -0.0405349839995689
Ni 4.270409027946896 4.304903760415528 4.797384750607064 0.10744742955140206 0.23464324537432493 0.23521171628328524
Ni 7.090642482181019 3.548804015768557 11.908809175926734 0.47580989368946447 1.3296107757456908 0.7354378340335851
Ni 3.0113744188357154 5.027026794856737 12.21863366615069 -1.4597309643042602 0.8781613131784618 0.6887208895930202
Ni 7.551266028245787 1.192996020992768 12.111175497956776 -0.2685159868623698 -0.20656371352928937 0.5560128857026165
Ni 2.437415001972965 7.498177996699132 11.108782993467871 -1.0624793279356735 -1.3094201597304287 1.4173887518926236
Ni 3.340420310131425 0.22325464474053097 11.910284614336161 0.45059302810420465 1.8649707610846462 -0.9107701003524186
P 7.3038733961350095 4.981154073400061 5.66632454474327 -0.723684807262715 0.5403967764319145 0.7087824362295858
P 8.01657952586904 8.705549135486551 2.6503600786426222 -0.1491869753820334 -1.2240852458073501 -0.06240967258547316
P 5.521432792778691 0.4410959568340672 12.262715510641442 -0.15501643757961692 -0.2895401545225207 1.661178696763223
P 7.063520316560738 2.7256666400676384 9.969294972070585 0.2356863419268586 1.1988025599811614 -0.1817739081791192
P 7.314872118823453 1.066237823347914 6.174885500998155 1.9652057320480092 1.6089174254656615 -1.4859613587556988
P 3.7656795863577424 6.842593071844103 7.987404697032137 -0.07885624817727065 0.1845825812725079 0.13793505661729794
P 0.9404324166508391 8.626430485230662 6.5518623272056935 0.5504065952594328 -0.3978090515339536 -1.2572414208443443
P 0.1628939506390786 2.3538561608924744 12.563901979632035 -3.5770819830316785 0.4896977074151502 1.0704633745824146
Ni 4.0003806730281966 0.5833485703772744 2.4110467437531113 -0.8235888772492203 -0.40920520918603726 0.2876717338552142
Ni 6.897716190852035 1.4545232605618634 8.298798979720539 -0.2026288972512575 -0.41969171053965787 -0.21002544682564472
Ni 5.692639150657326 6.354912112941913 4.946353152772483 -1.0662886743794346 -0.05929632376747208 0.8561822378042093
Ni 5.139835392994298 3.8342712842003017 8.980495926783252 2.0197318881203477 -0.8845263361645411 0.9953509097182923
Ni 1.44248849334768 8.466491111569454 4.199940424441187 0.40278619303357077 1.0049845761533143 2.0114483079553165
Ni 5.923519823139112 5.952223806740659 7.360079736696194 -0.05091709856484134 0.1251394475145264 0.3095189116372927
Ni 5.642437243146664 8.00905895265987 2.622280496875786 -1.7216919236569315 -0.2819291749444822 -1.2997564113884195
Ni 5.375304262661507 1.322427583529935 10.31694711300089 -0.30087306303683664 0.4535636806967544 0.377451313813208
Ni 0.3955849259216453 4.568900856130809 12.47298814745854 0.39864363162010696 0.1622435514556754 -0.4874055689468639
Ni 2.911183362958067 6.666169489746559 4.7267653656212705 1.124178090497051 0.005816349571460951 0.13628466549806853
Ni 6.192484382339418 3.3861820268174854 6.679033092581333 -0.7501843962151403 -0.07988417522115274 1.2732596506494716
Ni 2.8335447763103794 3.714571139887056 9.940538261202999 0.06474526269718527 1.0964448862478409 -0.8554343038945913
Ni 1.7188348697938869 1.4388530871100365 5.708673789772673 0.07727347707118305 -0.2880658839698394 -2.7301606017041045
Ni 2.6809779694975227 7.71220444484253 2.419630187640921 1.1932762308462932 -0.049404004354424595 -0.5858083717974943
Ni 8.790412282621768 6.494935380675267 10.029841599162818 -1.1303672500268986 -0.4199148822940575 -0.18993870337809868
Ni 1.6608071259548611 3.4604349679614135 4.230294678965877 0.8395628840799734 0.061495645411636025 0.3354898817797577
Ni 2.4234469016705695 1.4251624987341787 0.5557102325736332 1.5576912803008334 0.10065920298497504 0.13972325886597228
Ni 3.3711871323869005 8.628336067126222 6.180747477926385 -1.4056501232994565 -0.9019627864734336 1.4920201633552692
Ni 5.179695356042658 8.800726475891418 8.28282354314952 0.14025522011004232 -1.48965449133657 0.4813431648028679
Ni 0.871026683823769 0.15523554650639418 1.9836913274416792 -1.6866729843795856 1.4697891198712105 0.6966805107597293
Ni 3.8103682569278576 4.643496061984133 7.305152726116349 -0.30538534908489345 0.7095355123455264 -0.26543374839262024
Ni 0.6863267710371159 6.860723851044564 -0.021888290685780763 -0.09233834182410548 -0.36158837863902243 -0.25465722660240653
Ni 4.109100595448103 8.605237824440735 0.4054828513014887 1.147462257835972 -0.5157872054133504 -0.2760416058154537
Ni 6.4276572392849864 6.081747873253338 10.929825727481036 0.9282944823894269 -0.8026112465562887 1.428950488588294
P 1.4400278875990462 5.6854700925551045 10.557072632795402 0.9956460723612077 -1.9223662682849798 0.10660924992082287
P 4.621276607066018 6.503788011131819 12.425520657464029 -0.21752124098205763 -0.013542771681441192 -0.8262206584451126
P 6.708582562519065 7.124175173304321 9.049734227414644 -0.09296029167882056 -1.1371894151550543 -0.9035517282271084
P 7.826613361756458 5.645240113604693 12.976757397781876 -0.9944777630847197 0.9453411534590689 -0.8851909663317336
P 4.27330440238044 8.715604317624765 4.32264324779957 0.32517461589667873 -0.1093706147160439 -0.9579434156041114
P 3.8314314121520665 2.599130451964014 6.272730656056804 -0.12487590944049462 0.7513030832006158 -0.6388962527614094
P 0.9631791442293763 5.788538022071193 4.358412685050766 1.030735459865173 0.8809879839939795 -0.7793144808118772
P 1.931510759894802 8.545165742742883 0.4133216381864226 1.1442162400948488 -0.5560892474665068 -1.271608488199294
Ni 6.462225974934028 8.627485030551505 4.708068462090672 1.2806626279817623 0.525489520302779 0.9092171540430019
Ni 0.33034094695288513 3.6109389361203403 9.856231988000365 0.5608617291544857 1.357672052758281 0.048887983949954514
Ni 7.995118603550128 7.912383047851699 12.352113202656286 -0.06909119837070682 -0.565639095938471 -0.7455337848170063
Ni 5.03161499204216 8.042258629471325 10.883725446244602 -0.05637477924530291 -0.3489578343592055 0.12917607947774526
Ni 5.230850054501101 0.7970170281354392 6.214121062211805 -0.2844457707187488 0.8352735126760001 -0.28136378935931544
Ni 8.583351383834465 6.515332507275786 7.395633639684444 -0.7665790355230797 -2.993479360636251 0.21970282201440872
Ni 4.338417950743727 1.9111876364746938 4.213275797551077 -0.5495609594296857 -0.2836638982474018 1.7983473075281418
Ni 5.472026419457435 4.380026238929274 0.8716335099031314 3.0756561885463225 0.9107526168509218 -0.808856199024736
Ni 8.507942142996631 4.676741990783346 3.918019758430594 -0.5886759231532764 0.6334241739032446 0.2742438904850825
Ni 7.0680530113608535 8.42534534326147 7.114565860328077 -0.9742629786997413 -1.1687358225027678 -1.6218027660687617
Ni 2.106167516060057 0.7735829960188437 7.774735282209507 0.4628762163469319 -3.2750017870606176 2.44720812770143
Ni 8.875830453610062 0.7399402251646825 4.302700315718819 -0.9191554962026363 -0.032954086328517436 0.6669590724358965
Ni 8.881019926636316 8.593193806829001 8.25352475898543 1.2290790994775154 2.057193632511231 1.5220269941300046
Ni 4.594764967684119 3.5536419736878635 11.689777337668353 1.1963816092444943 -1.116946091524986 -0.3052673354497904
Ni 9.047120065066661 3.074647138086303 5.712031684083779 -0.7662013404686868 0.7279273845891527 -0.8600358072223446
Ni 4.292276967758064 5.638422570609419 10.082913905033637 -1.2355490234725754 1.4473788704968107 -0.232731887284225
Ni 1.0193753093532536 0.4841630327134475 12.221178450517039 -1.180436655879464 -2.725242595577197 -0.5568065852485056
Ni 6.82371301044199 2.8724611988085114 4.559126886078152 0.011154988175554983 -0.6652870840501123 -1.3755833858210633
Ni 8.785879587821652 7.315417892278977 5.302832023046196 0.0745985013421812 0.5243476933888518 -0.9894687399059022
Ni 0.37684269544304655 7.1871333790381655 2.5576322435093264 -0.4819448029426087 -1.6237822583926358 0.053605444030281876
Ni 3.2546783752288375 8.658871629442915 9.394582572847163 -0.7737552415565448 0.5273638545073562 -0.26688616456843073
Ni 9.072641911910573 2.7327801957845534 3.0117129833860914 -0.03223057789893159 -1.4768884499201531 -0.5624961794341151
Ni 7.672834752864387 4.531418245253121 8.69504160890808 -0.7654667762955075 -0.2174731613529416 -0.06333604105448447
Ni 8.443254112920702 5.235836018781227 1.507244051325734 0.0413245697803998 -0.6151685701271663 -0.5055837825177874
P 0.2952726898360755 4.1231889509186646 7.590295305594044 -1.550468537300149 0.3798910336029522 1.2442894886693667
P 0.2630054530977861 8.475954268264388 10.290410497545603 0.9670574620902377 1.0212604304952024 1.9125539101802482
P 7.070522867507039 3.628773702599161 2.45292236842789 -0.34447820132129703 -0.9679187816492685 -0.9148792374247856
P 3.879089460336135 3.224263068080309 0.22912772214582308 -1.2608108833631577 -1.1068557971685193 -0.9286881182834199
P 4.988489638658207 5.7754209583435125 2.948567919621711 -0.42176993322492523 -0.4260055685728276 -0.37646221042706135
P 1.988132443306037 1.6684664551273007 3.011280064780692 0.6715438635931015 0.48905287474229964 0.6764860380897253
P 1.5726323364962935 5.211627728389592 1.1095213585299935 -0.12405109954635408 0.2595415512779014 -0.36912376778411915
P 2.7036044419078937 1.6179407837023432 9.79215263408331 0.17262129514557367 -0.8220757830388036 0.5531875004386796
