# total energy = -340891.24918212753 ev
CRYSTAL
PRIMVEC
9.05988631879523 0.00000000000000 0.00000000000000
0.00000000000000 9.05988631879523 0.00000000000000
0.00000000000000 0.00000000000000 13.26005941490055
PRIMCOORD
 96 1
Ni 6.147477162641334 2.1564794479273135 11.219283079098604 0.862201961635728 -0.2687196182327437 1.1327424351272943
Ni 4.3882284316318785 0.3231027268204255 6.089748472821996 1.2153054427321908 -0.0058322904110609235 0.5417088103751186
Ni 2.7989703481655805 1.5450458380891936 4.722649674466569 -1.1496507808468588 1.15349200896982 0.8079334301001504
Ni 3.4578052833752184 4.708613192547974 4.813985106704316 -0.6911824637596354 -0.1710441804664409 0.7232083818469287
Ni 4.835361002553238 4.41938538078185 2.6095797659859477 1.2342123069390227 1.271652454063352 0.32618480232874786
Ni 7.532507288056261 5.990333433939311 2.5264788644496874 -0.4076607475170528 0.1411679617322988 0.7507564666685265
Ni 4.876347928390538 4.399571409339282 11.175233005687126 0.15068875673854046 1.4014507405061285 0.7192224006159871
Ni 5.604382275524422 7.829118907195816 12.749652807293048 0.22488745153914172 0.24617567149395667 -1.1514541526041846
Ni 1.9052850390491174 6.779449534829843 0.019780449863080366 0.5539135799714268 -0.22357413204435686 1.4701670720359197
Ni 2.901709459349261 1.3578504663716255 0.5042007950259463 -0.8980266846438212 0.2988920280510659 -0.35062159521487357
Ni 0.6376130574286285 9.034292168834867 4.7546863385809095 0.10834294478247793 -0.2931962632178693 -0.5290055038758372
Ni 8.667113094932553 2.1614261458731945 1.5336050136092332 -0.10641024653613933 0.9931839839739605 -0.6784079377027865
Ni 6.912811061868978 0.4198161075942068 4.957949418736242 0.007023739616000806 2.1064847654368752 -1.4547327397587204
Ni 1.0315314798977424 7.5258210919316095 2.493342330132728 -0.226537585548055 -0.525957718188449 0.28677544729319
Ni 7.857639429418587 3.9128652548508756 3.9328540820999542 -0.42489973710315854 0.1986585997495998 -0.46622122155976475
Ni 7.821662620731603 3.835883400553896 12.629384628003708 0.23243389642783194 -0.504063489218519 -0.21165886866400968
Ni 7.714212368647083 8.684544316265656 7.1156927208090694 0.4983052465785031 0.8630365417218814 0.36899264152289357
Ni 7.006653364659152 0.5626823614007843 0.40754811549069503 0.5834776667817886 0.6898303206071152 -0.8853274919095978
Ni 1.697260988618032 6.711201410972111 8.985732083999467 2.8900083992340937 -1.7132257951674497 2.3879231167878676
Ni 9.428351925531006 4.854087787634073 1.3595673148345273 -0.7223480907291625 -1.1003092542992534 -0.06383200685429652
Ni 6.118150310533612 2.029459841331616 6.9184490291431935 0.6458084065002103 -0.055958517643490725 0.4026854057896484
Ni 3.515779496114582 4.040211017355093 0.3133588190534018 0.06252691488962779 0.9129609373561504 -0.0009022000992952204
Ni 6.066273401306296 5.766363983536155 4.6434345581848655 -0.464570059109587 -1.3457896994983984 0.9455969782236165
Ni 5.238843041051056 3.100193449456148 9.168588676145092 -0.4317740956254887 -0.07674562959217104 -1.083373397775863
P 0.30958084644638284 5.478223358131763 12.563362518221624 -0.44507209828597544 -0.286443517875068 -1.1561029642301057
P 4.221046348856528 6.096542481594186 12.580772901816125 -1.3205404380133063 -1.0264676857277548 -0.34066756932595527
P 2.7324707823729684 8.415193895146535 1.4640432062310755 -0.7872445342922314 0.5629666913126304 -0.206043065139129
P 6.226397832616735 7.785287177045317 5.844875146648636 -1.4073712197556214 -1.2964366029865673 0.3327274885432721
P 4.837191099595487 1.1740706718071656 12.681271503106005 0.6417879724869077 -1.1784371089509316 0.1372783968699055
P 4.084051807391939 6.176613757135754 8.299616925008067 -1.6933848491821224 0.5371695277438684 0.37244923261292634
P 4.735312677614844 1.1414460210688553 4.0833161446205 1.6633574495820969 -0.4457611539332001 -1.6347125321518945
P 0.29587686235675 5.581188966474139 3.7280789069131783 0.14305977943837297 0.5794320359575054 -0.040788494771271694
Ni 1.5760125296258622 1.1102709521461882 2.689882974618018 -0.10814162740494924 -0.47083403774142785 -0.8326885255576434
Ni 1.760344977257536 6.5343343096909985 5.0268888119223085 0.37522345292395376 0.9815762245317031 -0.5331200402648432
Ni 6.0466768671360756 5.742409644032658 9.176372024506458 -0.1141847482752356 0.5912825075381881 0.5573675999582982
Ni 8.54157024981154 2.4388398658418295 9.991786257498653 0.3633007333444388 -0.1407776682724156 0.6393608511026537
Ni 2.227961951211198 5.175061441162773 7.036291876857237 0.9884827218435491 0.8920632679715347 0.04199254238170187
Ni 0.4369809682686867 -0.13263401816540907 9.545624906393774 0.8643724869244857 2.0338539293440263 -2.4834881930793875
Ni 1.7681817789483547 1.152716519685478 11.449133301730095 -1.5030195997895663 -0.8337403638609254 -0.4639151991344075
Ni 4.336333402631867 6.718277182209718 1.4677024943269388 -0.2015292364291755 0.8110642624196482 -0.04043702496912391
Ni 5.479428323016016 7.9937279822484 8.053510548302777 0.9540672204781568 0.08644768737128337 0.5681212389303764
Ni 4.999988197378518 3.1354726468943532 4.9636381213740055 1.1404706570094876 -0.8104353705863978 -0.20051056535667403
Ni 0.7318050718318262 7.591740824997964 7.317868614602672 -0.4439071314435968 1.1471010178418115 -3.019712326190851
Ni 5.0976447123211015 4.762329258703885 7.105907137564847 -0.5224962420024097 -1.5472520872453803 -0.8061853370607922
Ni 8.01173903630776 7.259632571147858 9.133038588105087 -0.8232350934542273 -0.46515087131372146 0.31137241990626374
Ni 4.3489991237460455 0.26659530968076606 10.409583822414577 0.8102139986042111 0.8326993241909207 -0.17415470107096456
Ni 8.209144899939263 7.269997081129704 4.9551915893319824 0.18167569203835807 -0.9401580665962325 -0.6152595871790759
Ni 7.0903214150807825 6.170688591464314 6.944677400119979 0.9054281193142147 -0.4700884178246549 0.524300127980368
Ni 2.2419594756184984 5.273931980875958 2.6076436682734303 1.5449632912112037 0.662929125340897 0.27307403854669743
Ni 2.4233474601871476 5.2096792668975915 11.410904205297056 -0.16001774744895023 -0.38150234395413 0.06168025061861636
Ni 1.1893003407577625 3.375296898406102 3.7588825204955874 -0.20322153652993385 -0.18674667880336226 0.21813367775507594
Ni 3.753501853993648 2.483215189173194 2.35812896232411 1.1149611998844735 -0.8724619488008393 2.0907023057916385
Ni 0.8217036060948169 3.3142242045358024 7.8216454069475425 0.3115685950774698 -0.12414880146648295 0.7015501801472047
Ni 3.6269986609197735 2.6365628254955036 7.0326978199430785 -0.28936403395597265 0.9963551826130906 -0.5696189065218256
Ni 4.040745550649611 6.935515137056482 6.22787821804596 0.49879684150294096 -0.699495354500705 -0.9293002979461221
Ni 0.704889961469879 6.998617245468681 11.054633234557455 -1.1672553813024993 0.7436748772313967 1.293626644341598
P 0.09427627134623183 5.636907267512908 8.141411377626085 -0.6392572356452539 -0.7879904113193202 -2.4580342717826573
P 8.609193241511276 1.4942017559055234 7.920737007887612 -1.3527694732503412 0.05635189642716747 0.7346765303875283
P 1.6537191748306623 3.2600098446307633 10.45537158202756 0.6851208309465878 -0.23002708675855224 -0.8949979251198263
P 4.0280707696490845 6.309621948607326 3.638215706206944 0.23586914736162606 0.3066325912284332 -0.033581949720503455
P 6.822882629981039 4.079422205468229 10.286530634061934 1.653948497563371 -0.16979179611657852 1.2132285055985041
P 6.26866220242907 7.911119938529457 10.381366806384458 0.09196398920382226 0.11096521289667342 -0.19753142812369207
P 2.47215306794257 8.4500291581537 6.003505602700329 -1.7415665510936718 -0.00725668156241331 -0.05860623967898294
P 7.136735212840395 3.9610910298800404 1.83063066955488 -0.38922799473316194 -0.5133099475174514 -0.7464714661399272
Ni 5.56377586491373 2.7968956341919413 0.7557295137103753 0.19989067238448802 -0.8610254248291236 -0.736953499347163
Ni 1.2539335699627343 1.0980672852357456 6.722054248828102 1.0081940842295476 0.2829910405500933 0.8320552628490187
Ni 6.771476834843807 0.8935340090144551 9.202308667142846 -0.6001970364189985 -0.5029005792586694 -0.4969322774903764
Ni 2.527916668413078 1.8136171089824076 9.033296487325247 -0.6986898278802741 -0.5464051874095235 0.6985144786446744
Ni 6.430317754532282 2.061087904571672 2.94809607744983 0.5455202137014089 -0.11690831785398575 0.24443709153629514
Ni 4.149581965345339 6.887606458049489 10.484238191908815 -0.07486615318127106 0.06187282624539667 -0.3059700179437698
Ni 8.405028702664339 7.043898557434823 0.5275300023714471 -0.24904965060764206 0.39132112981676476 -0.7678175359158712
Ni 7.5244349293204005 3.9795188387113996 8.145959440572664 0.19693518930058987 -0.3133673388491055 -0.3738905930451431
Ni 3.340751551762065 8.47328588640842 12.459761811846269 -0.48937786218188617 -0.4232205496285227 -0.14484386792198928
Ni 9.232295984965322 4.852040253319478 10.065697716312373 -0.7583489343038037 -0.5200914892156592 1.4246734584794947
Ni 8.380775386911367 2.351330423608745 5.690925933872835 0.28443908585052946 -0.07049707757929793 0.8128414089247291
Ni 3.570555568973183 2.545855243381657 11.601703599803765 0.4673075126454081 0.6779086294688647 -0.7034918772546078
Ni 1.3280343804011232 3.1711685991045564 12.62880117132291 -0.7561935785236976 1.0513389950481378 1.258516430902026
Ni 3.201039044393146 8.430015869211482 8.214540968247993 -1.0639134892790385 0.3938786061312959 0.14789036805779693
Ni 5.863331947116308 7.725346968968489 3.5408074321502894 -1.0909221566573988 1.277065140438491 -0.9523358396093469
Ni 3.1708968025141235 8.407964105841016 3.744348650816499 0.7002443168515875 -0.5282449715607289 -0.27502293474295214
Ni 3.104515015244033 4.29646990270169 9.041716745696862 0.07071896378211692 0.010123975807879338 0.9774835425195681
Ni 6.980080718001149 6.163866497044445 11.633925085599602 1.026427833628755 -0.757104006153109 -1.0225652653495552
Ni 0.638025282257452 0.03957177158977805 0.2968806977640826 0.2606617809252737 0.2054023462313366 0.04313025553057088
Ni 4.986434607402258 0.4875432879869413 1.6783919633215372 -0.6793852140143912 -1.2573591773691315 0.4435782873492683
Ni 5.918624433496732 5.068562477144769 0.33722165370478613 0.017140773445344672 1.3579487034584357 0.1268397180350848
Ni 8.065364503600197 0.07326277095122034 11.173575952474117 -1.1581824724669538 -0.35486160143815015 1.8016704583641037
Ni 9.21173004295589 4.832117563240737 5.957201429565525 -1.2162099568243312 0.014672000189877958 -0.5526789362333773
Ni 8.015181793119913 8.702020837030501 2.517091010216131 0.1203394550227218 0.7458603149184896 0.6046746125743779
P 8.665781291639432 1.5763839849661208 3.633004459579708 -0.628864065336388 -0.30201591839202824 0.6600137514663149
P 1.9814424436884495 3.1946971239497084 1.68101751838512 -1.7123076542285542 0.22622828183775232 -1.1216139293143006
P 4.510165441986478 1.2188446301378317 8.370293098407 1.4373741938756146 -1.14088357617719 -0.5085847741276402
P 8.686156976035559 1.7311540234450296 12.4139613683924 -0.41376506064257773 -0.6653953274932024 0.4019909508257851
P 6.464536945267799 7.611908132008094 1.3955812690555371 0.399019526902287 0.40747228565533045 0.5875924602811106
P 1.9390240558082026 3.356624472643354 5.827305309054411 -0.4745744786204666 -0.6581471305712213 0.4879673549876048
P 6.845296788805416 4.040201957468745 5.926132361313127 -0.0035638060918583786 0.014050821666111284 0.18648236939838206
P 2.2537463877569435 8.411126006176387 10.34759336205725 1.732296181535339 -0.14012769339324255 0.5982748796956212
