# total energy = -381170.31071096257 ev
CRYSTAL
PRIMVEC
9.25837242477630 0.00000000000000 0.00000000000000

0.00000000000000 9.25837242477630 0.00000000000000

0.00000000000000 0.00000000000000 13.55056389428373

PRIMCOORD
 96 1
Ni 1.1889046143407689 7.403855481147013 0.38774711076534835 -0.41547433002420064 0.8285953293248762 0.7275936553988179
Ni 7.969921618993423 6.414876157211297 1.7144033424915315 -0.14402111491037778 0.05780945480930044 -0.6670143511538642
Ni 2.369078583648104 5.227712116853865 12.292150116227074 0.6882439499566018 0.20506835993068553 0.3334679662537225
Ni 3.5256899955746457 7.639295887509916 12.917617044603714 -1.9499783735752934 0.0362713236272085 0.6163561626773643
Ni 2.5989454499154316 9.221496155106529 1.0923027582656402 0.8038793146354348 -0.8876846792878647 -0.8611858616663878
Ni 4.185284209908592 2.089716459322732 5.01030701963744 1.0892247143503178 -0.518859673691087 0.5008167001464472
Ni 5.362134423577536 0.4521437189626416 9.220670308301669 -0.40680482727466066 1.406840544063132 1.1379360635130917
Ni 8.936097572072992 7.3759970390413905 3.953539745748602 -0.0436115660423636 -0.16592588540326908 -0.8884511251402442
Ni 5.776548423939702 4.619140791999508 10.75238559784652 1.9332191518390833 3.6434529542577447 -1.5974245943347134
Ni 6.6347717565634525 2.4181572149548183 5.839872912630239 -0.8445819345611195 -0.8633309330338487 0.07676645552777747
Ni 3.864018692771639 2.482512160476979 8.331591598474393 0.4661350896038617 -1.2457012814152286 0.22365460757330513
Ni 0.7514270828621805 5.747597493908369 2.5014066465684226 1.717337246232662 -0.25152330895911523 -0.3550670325807369
Ni 3.671824143196826 3.560668125941891 0.6781257722331201 -0.4846722291761007 0.6882256951241567 -0.8556271366316877
Ni 8.710582140764004 2.461366038253901 6.980260878859976 2.7694519431045594 1.1392491258975606 -1.1743518831379647
Ni 6.598414128730691 3.7644726743204426 8.159770097039633 -0.11406287798539066 -1.40512124737918 1.1949811293525419
Ni 4.251601930348131 6.315478272716129 3.8713013283848934 -2.9002791850324825 0.020100884514933123 0.13083135569298113
Ni 6.326477218951251 2.4161944400374398 3.4613156074707567 -0.4392691184509531 -0.6045666262416041 0.5184274712496749
Ni 5.014315894822463 1.0391874766571474 12.585329435301011 -1.2905618893733453 -0.45295021548247155 -0.8822272557177192
Ni 8.440589489157437 2.8593001360078887 9.72674404563096 -0.4830604046042906 0.43807432681190356 0.5003176490228416
Ni 8.79182435727342 2.0019007985145474 1.1081716083052002 0.7674282708972525 1.7660797057436874 0.4287427649983326
Ni 7.407818064470777 0.715882340113126 2.3801840011641207 -0.31909267136865693 -0.6534870060913908 0.2925642860608252
Ni 6.239494811645727 6.944834643275745 3.390364997556424 3.1265583747128285 0.8274380757919814 0.9746897818245149
Ni 0.49663112346969557 4.379228591838992 8.231492855199765 -1.8179938781144753 1.4187249542055436 -1.9245131394246535
Ni 4.737944224734417 3.3290143938299686 12.279724454827953 0.16536075692841842 -0.5288746347249279 -0.11513451378301462
P 5.150765785069276 1.0288643915964066 7.135293248053348 -0.41930270263135533 0.10276210826059076 -1.3335805590267162
Ni 4.761673432815743 7.965162815656005 7.434720116722789 -0.15574354555362854 -0.18405961888950237 -0.23664819161949563
P 6.087064970892333 2.7040001998564405 10.417713957688981 0.31496682212574145 -2.6817320738890715 -0.7817272040184279
Ni 1.624233277619718 7.573561444522238 11.070878232494064 -1.626137903109006 -1.000570763356335 1.7217700851930346
P 0.18688672476286433 1.1900711692444936 8.590257557468124 -0.06304113552188498 1.116915752507683 -0.28133345034201224
P 8.592324951991948 2.5792343753913807 3.750050907863837 -0.5824194007206034 -0.7018790242415331 -0.49742130131165296
P 5.675974726168558 7.689966958843937 9.695536850281867 0.5977112938826674 -2.133445353186119 -1.575991621271918
Ni 1.2856175708829192 4.091487640625754 0.5123314711342732 0.21593229922838297 -0.09140426004561032 1.0061068626832157
Ni 8.52730340366766 8.322610051552935 9.887494385527035 -2.434230227384524 -0.026696535454579833 0.1451184617396146
Ni 8.701934821080835 8.588232751456658 12.27437126399197 1.0039813316997805 -0.5282452286710451 -0.0897412705208906
Ni 1.6118640922913325 2.120130212169847 4.0556975510120274 -0.5228929632201962 0.5717938026859573 -0.7901884474119036
Ni 7.037372073932341 8.166300952826044 7.863554957704336 0.6466681833973443 -0.7797412839366508 0.08445251131812552
Ni 7.7189734391087805 4.4381859063383615 6.288247548249179 0.7941320054406839 1.0073798158583682 -0.25220053753179794
Ni 6.933335744939027 7.655007345221195 13.486266268308372 -1.3233640235050306 -0.906802116843606 -0.01640158128647498
Ni 4.091746875048804 8.970223932193072 5.362351069488228 -1.0741595924870793 -0.282588662905352 0.9127274811891055
Ni 4.04899171199006 2.8421906640865893 2.7428103704986997 0.7113867066216522 0.3119182651074047 1.2904790998515516
Ni 0.31861391932404165 7.118688357419771 8.447800835304353 1.5462282739665563 -0.7864096970957617 -0.043797971021556824
Ni 2.3675694689710634 2.6726050595506363 12.19977563292211 0.329620053262542 0.03612065698195714 1.443286959815624
Ni 1.6711824833085216 3.0780939890620806 9.485583816890905 0.5063021487410506 -1.7759411719187996 0.8474762253897791
Ni 3.025062032803854 6.021219427437634 1.1408832891452083 -0.6162623174119775 -0.6675288288964375 0.6710491833448701
Ni 8.950012905567425 9.26003875879071 6.899974126366944 1.2455755544706417 -1.087109724889844 -0.1682293367254651
Ni 7.519622167783337 5.811980214547285 8.717375934322362 0.37032935805644607 0.5127689874123169 0.35349197478413313
Ni 6.361131306289684 6.351771091943129 6.291390765628659 1.2291048105091282 0.30186679440867364 -0.28597454865844946
Ni 0.9538623179846931 0.3161410080955898 10.220024564182735 2.3607537554619276 1.915822553629191 1.7375510021763754
Ni 5.605972173572808 9.371231809534653 3.7581806845381296 1.7353560514075854 -0.5172231665289286 0.42331568044549034
Ni 5.955512759566713 2.9315617314330735 1.0995270661337082 1.0744203023476335 0.5795803886099115 -0.7834141048025476
Ni 7.547471351516707 2.8326545406672503 12.530951311717374 -0.8728848952708709 2.2488212935559786 -0.0017398655092421647
Ni 9.000008115727066 4.664080930909674 4.306897558621919 0.9380487335627136 0.10157785814450249 1.419129902953446
Ni 1.99092036902393 2.003483980169603 1.5721095676793915 -0.5981213848368925 1.2646873355994284 0.3541373216776159
Ni 1.5007821420144114 9.033662298862305 4.905480025653826 1.441583861081588 0.41589676227359984 0.2017153842980526
Ni 1.709252910007863 5.4817711098151065 9.8897839809849 -0.26399393062230014 -0.2830499188124867 0.3714914966853473
Ni 3.038792198853252 4.5575633581528825 7.891577272998815 -2.1519081878769972 1.0160544608142308 -0.722217221578253
P 4.346528021045686 6.049670405367371 5.909130166259719 -1.4955680286075275 -0.8230700286312728 1.5971106626387204
Ni 0.19913462541475122 1.5708402448436716 12.431300673659733 1.1497261141694843 -0.8689449367865164 -0.38035228951008687
P 7.305272333410002 8.064921776668992 5.28465203203957 -0.2448924339061589 -0.2934734281386559 -0.21670054485297519
Ni 7.340176396799233 1.0519455136201077 11.04389933575236 -0.3758027224661915 -1.0636728340231423 -0.8058888888662958
P 5.020741205165202 6.39819257041358 0.3498035237658563 0.8622796089511988 1.1240204818732644 -1.0295967182750396
P 1.171943276375498 3.919337466976057 6.194463940687494 -0.10381317523292444 0.03227042999793152 -0.41974158994098676
P 2.43335946219225 4.22453044988391 2.5259737373385347 -0.6324448407091108 0.3476997935823883 0.10927882633318599
Ni 3.788692576131113 4.04806587476488 10.140387749421778 -1.6921522623266019 -0.37667998286482224 0.022058008241303946
Ni 6.434929791508664 5.019454291422203 12.825188862739688 0.5227986037341771 1.0264833694570386 2.2370006467719667
Ni 4.924778176775447 0.9375120325880403 1.3966976694853896 0.33225620533380845 -0.26488944585337604 0.09278879909796278
Ni 3.493498635255188 0.6383619892489271 3.2274870837168903 -1.996284969951317 -0.544180668954379 0.3241929687096997
Ni 3.022830765091174 0.2611675711761637 8.100079519457923 -0.6524613930403537 -0.0016568188771326304 -0.4263449541901173
Ni 8.61935939896716 0.42666190101405266 4.652287616335349 -1.6649268509517456 1.765718979970159 -0.8435264967134117
Ni 5.110834425547326 5.672900946580965 8.257211687478 -0.33856157872654596 0.6391153107507509 1.0911602408101337
Ni 2.802287079681394 6.9634069380128265 8.363665377466253 0.048212555149484713 0.12161780751451312 0.2331527768717275
Ni 2.3778370037982928 7.682773203604299 2.914373563347634 -1.1199522253411616 0.11640669562721889 -0.045880564582198406
Ni 7.095579460279314 0.82290819750654 13.441671466683198 -0.22463034122301315 -0.7705015105059376 0.8847669914204375
Ni 9.139772503240017 6.74085418582441 6.258666123067499 -0.9150715559412499 -0.346249691399423 -0.43229577245691353
Ni 0.5796768708937602 0.09081722509221324 2.5385623460892877 0.7295736619433242 0.44186207598911004 0.1624939769035847
Ni 5.70435163712028 4.466738726362868 4.516348788236835 -0.3048315334639524 0.26832212568400887 0.8064324200745918
Ni 2.178819033873914 1.9028362154204437 6.314427447465552 -0.3665647488076913 0.29954380270245184 0.6979220964763142
Ni 1.9396752786102978 6.7509272948343515 4.9225135789226595 0.33113674701738455 -1.40075062911531 1.196980676281074
Ni 3.0912686527763715 4.153990911697558 4.906808602071957 -1.0836716457425724 0.9282376610095627 -0.1258606419512671
Ni 7.272951355879019 6.784553702852836 11.185149692011723 0.5201254277773881 -0.9961111849230846 -0.6358551519422404
Ni 3.3769820204664684 8.589103038448327 10.254470338145502 0.9944476811777325 0.8693683974771801 0.08679581473932148
Ni 0.036348369460509435 6.06703911171172 12.572727864829107 -1.3777114879076595 -0.25503286477427045 -0.5067451498157403
Ni 7.237834349927997 4.376858448542535 2.803110148974578 1.6366568003624586 0.18044927583042472 -1.217877060114109
Ni 3.6478912509259613 6.353632024765737 10.807916388775503 1.9489373339052887 -0.15767881490312843 -0.958627843265646
Ni 3.2294961504955273 1.6716639186656144 10.4662926368941 1.4838283715730962 -1.3696677916675766 -0.2768910982999425
Ni 4.492152958194018 7.950766046804479 2.109443273079611 0.9057011704699435 -0.5466579268502779 -1.4246305210567014
Ni 5.2789849823842525 7.936128560274406 11.680626296461622 1.545627407157764 1.0210426580574417 0.5792412601029379
Ni 4.762738145624699 3.7572048521027908 6.695441869929401 1.086164330257439 0.6188694160175213 -1.2633555041618825
P 8.883176716281785 5.1308602847279365 10.37736041639235 -0.9656904065393821 0.8790144052073764 -0.8247517872090699
Ni 0.4322817329708864 3.859898717119594 11.865604870703393 -0.6743275969858258 -0.4887332866193519 -0.8131100892050835
P 2.4453027623970534 0.3155706923648798 12.469377581219652 -0.21024321926340564 0.6453882882436562 -1.0940447614467803
Ni 7.288885014524341 1.2515282442518452 8.043546972651296 -2.177226869147444 -0.14170969316838175 1.2487765779064428
P 8.518609792123232 8.772576201361957 1.0012040786569727 0.5333460402327201 -1.232914671173522 -0.9290892103765805
P 1.7567391012872704 8.135887199978928 6.877845690847952 -0.5419957454879182 -0.3993938795225702 -0.3913162447207583
P 8.472679007382125 4.402763374103031 0.38479831920315466 -1.4716380001544913 0.2978846698324741 0.30510869838473903
Ni 5.236257594442263 5.257255582709311 2.051446977619977 -0.23136894549842732 -1.2487899476428816 -0.07161987832983148
