# total energy = -340857.74178010266 ev
CRYSTAL
PRIMVEC
9.45336481680510 0.00000000000000 0.00000000000000
0.00000000000000 9.45336481680510 0.00000000000000
0.00000000000000 0.00000000000000 13.83595497015022
PRIMCOORD
 96 1
Ni 3.60267722157275 3.2200144788489418 10.361497264561862 -1.3460444958216817 -0.8099610020531406 0.9706894024158702
Ni 5.056642499417871 6.946956177140595 5.34120389709012 0.24679222203203305 -0.42946010278033137 -2.5833655235930153
Ni 2.1665409892272 3.62139488333794 2.646555425195507 -0.6918740905100214 -0.0912538505106751 0.2707700730038692
Ni 8.825689483316673 8.763826665846265 2.757035005759864 -0.06488075983378502 1.7535337507578768 0.4111654182362015
Ni -0.01372533995802014 -0.03765936826969132 6.828292818904457 0.9715244967226558 -0.34163970343123745 -0.5044560966712474
Ni 6.404645014270051 1.4953710144772077 8.59976541513792 -0.018965228248593143 -0.23891410483553693 1.1102162290003204
Ni 0.4068331051486763 4.5527214498950235 7.021566856676839 1.296863920331973 1.4389693062768767 0.15211006256609932
Ni 5.929622900108915 6.495028632521054 8.406144438887365 -1.1497860208731423 0.24719999899341297 0.010538437637478625
Ni 1.9735316456615986 8.044321638265254 0.13942483741225406 -0.14306929252006972 -0.16723663379489262 -1.8129761131849098
Ni 4.853253361600663 3.2853750411946616 3.473392062953094 -0.1620643455653338 0.5912588533891042 -0.37083740804111615
Ni 6.574607055116696 2.4143325802318314 5.493884242243358 -1.5377534037263259 0.07627023261764929 -2.2236681913291187
Ni 2.5441461819285958 5.733352145781197 3.625656460067106 0.3013199207662682 0.4174774764971585 0.6138254258357106
Ni 2.6601767781437204 0.9669562974626394 9.512246699508687 -0.05063967653373859 0.4855785430404541 -0.10212730289006927
Ni 4.552428395594659 1.2895996287989764 13.740527733470625 -2.2666038143503804 -0.6870159910867716 -0.09161843293894543
Ni 9.491177985985413 3.276006756947539 8.999583178470461 0.15884069642171356 -1.1240469642358255 -0.9637103999948758
Ni 1.093839356155763 3.2025919280240704 11.438225085585719 1.8870897044708728 -2.339963558189454 1.0950246088615463
Ni 5.778964629628188 6.523747953956734 13.439941937587175 1.5709196060656494 -1.5966452929665278 -0.7282451729398877
Ni 4.3271736256244795 4.404672308023989 8.347037277176833 1.503650805615662 0.6776923996930007 0.003481787901013358
Ni 8.177368290630552 5.844485899170882 7.990471492568673 -0.2130063838308396 0.1039818396003048 -1.4238453061512448
Ni 5.648820160172948 7.355974900168115 11.109746192326327 0.6372790288729605 1.2385435873245252 0.9906465622640873
Ni 5.219249822661829 7.298243202996389 1.832876925524268 2.4622174566260693 1.6242725677654928 3.3600250832805494
Ni 2.837115402011937 0.1101865262639928 7.227708814244563 0.7707897311703178 -0.4754823351467166 -0.18922727913337087
Ni 2.388203480676788 2.7114612807074363 0.22718609234322434 0.8437319278559986 0.07052613104502048 -0.6306309274288237
Ni 6.677686541928633 4.8198829848172675 4.0106418944554125 -0.5300398586776226 -0.918682927441592 -2.215396952459262
P 4.20418535311684 6.384480987732096 7.034489605986443 -0.976083833958564 -2.055346037779531 1.4210993679749913
P 6.045265908378397 2.302045516369745 0.90125352332101 1.690598544686237 1.089199003318705 0.43077779315049036
P 0.9680056209252335 6.793641511227535 7.289569741042064 -0.38523841395779457 -0.17695386108265654 1.1414543610789956
P 0.13314874870219856 2.6377061306609644 13.621649783859702 0.6842032042283248 1.4806826268552629 -0.18085499590927565
P 7.327728246958827 6.823466876312977 9.952851949433192 1.8345499827009437 -0.6754645388037464 0.3602192662056377
P 3.8430762815165838 7.578724528538408 10.005345537320023 -1.398185182380979 -1.4271903113640776 -0.9420347147936551
P 7.663956063121719 5.5030492791531325 5.645180614829717 1.0706204689855692 0.6306126725963784 1.941668053937385
P 2.2511486017516718 2.987244284079102 8.72017953648462 -0.874542742589268 1.6524641997083604 -0.17315274216901147
Ni 1.265096507942727 0.8596955875200236 4.295496346428027 -0.8261270702900417 -0.3052843047306549 0.5317943794748842
Ni 4.306915065441245 5.445468835813852 10.804289077701664 0.33059527269161776 -0.253788193733892 -0.4254219281552157
Ni 8.2781789699558 6.041645269764221 0.6731646346653738 -1.3720406627751272 -0.2342812340492159 -0.6395038044384213
Ni 3.5195916007372663 6.846117137721763 12.598079176912533 -0.30309398194755544 -0.9529153662619009 -0.5559213544300748
Ni 9.09261468412572 8.361264590791283 0.43801691871677406 -0.4164696040579343 -0.15850233924568832 -1.035563734491752
Ni 1.1220765560005226 1.3020024430595467 1.6954855068219596 0.06771411551752209 -0.5705303625925012 0.7157375273911802
Ni 4.656982607272944 8.353909873188597 0.05357316211591427 -1.3239237526632424 2.9032683495677936 -0.8955252583782062
Ni 0.08322269462113804 5.228192705505197 4.288688978631504 0.8191336696913442 -0.6678322190694692 0.021973933167929897
Ni 8.69359762076869 7.577022922923391 5.162014427127817 -0.8576703923139616 0.09417565214316038 1.8617154873721422
Ni 3.8104149070727793 8.813749883917968 4.209851699814847 -0.12797228897763122 -0.12540761357424854 0.037587214225154625
Ni 8.196823314828917 1.6132355634107398 11.938395040063906 0.9225457528311081 0.8931950675831327 -0.11065565207605459
Ni 6.406365526614124 8.423940397611087 3.9323859975572195 1.3635531941294066 -2.210816532177431 0.6532280960030491
Ni 6.99735206343869 3.772724342700146 8.385141898915787 -0.43683968307385407 0.29452655199351857 -0.14454150619022202
Ni 0.22225332673257975 6.275426974538543 9.71302009136103 0.047276673598776645 -0.0833425660833984 -0.022293778401193867
Ni 1.5319271751064962 4.794273820311258 13.468485426442637 -0.06263952920809211 -0.11378288485112663 0.9240827583009246
Ni 1.0834122950815182 0.771211150202671 13.171123227863193 -0.6833282578225393 -0.3763012593691648 1.6412377348649216
Ni 1.7257116945633835 8.211532750034287 5.736746848983156 0.04718077145086068 -1.2129780801505947 -0.8174912489919147
Ni 5.073044086873731 3.1506929567660418 12.322550469046668 0.44835411147135684 3.0631002062581825 2.4299570539304667
Ni 1.1681995215320193 0.30355037099938986 11.062399016088468 -1.8127251735163683 -1.4208178321788305 -2.2829300623142297
Ni 1.9477050537714469 5.405036795728135 11.378605551517778 -0.48656687509565233 1.2638537839545394 -1.421158760458017
Ni 5.487432320953085 4.434450406286792 5.894670030103554 -0.7795384238972253 0.4252951727693643 1.5462506425640594
Ni 8.28786866859687 1.2113730373308196 0.6674604745092547 -0.7090788844240821 0.17104829423149895 0.4100757847164486
Ni 1.5263591433995785 2.144656450345172 6.860751891347364 -0.09363417781739357 0.11967379641426486 -0.34932961587632744
Ni 7.87439741087672 1.5984599546536729 6.939906803212158 1.989831501016489 -0.3113893891871282 1.1972208173163381
P 7.067316414309485 7.908334989531787 1.2309916047355163 2.3711808643325227 -0.6473490115144529 -0.6654323513787249
P 5.760729089453919 3.394154906816907 10.221947642737838 0.3379853945081018 0.6301277625401599 -1.3183179764406907
P 0.7654067843825564 7.429607156475726 3.762272702878129 -0.9841182742272665 -1.5906168273842605 2.093535661475375
P 8.901325852904192 4.399189356597823 2.090059488850889 -0.24551849752593197 0.8401002446406822 0.4834085319723288
P 5.58838480074625 0.7839968257266203 4.072419631645069 -1.8899148326244934 2.8824107893924937 0.5189350070137128
P 9.182175859662799 0.7980019852746657 8.824889728677615 0.061274787650081576 0.044287766173781794 0.01482678060018737
P 0.758810226615006 7.589019242509263 12.032064647824798 2.8257699009699975 -0.6260350805280251 1.0781406886220142
P 8.896135955778389 4.084477398100372 10.794881089323525 -2.20536810746835 1.8113182658665128 0.4190893010689685
Ni 8.578739241755022 6.167119777142691 11.776403130850712 1.6824656311664572 1.226234945160501 1.2650485755935892
Ni 6.592540087626073 8.213744837333811 6.499854575112534 0.5932961955341073 0.15749652368899325 0.27230116493641493
Ni 8.028751946887846 6.533324212223471 3.185452032798582 -0.7257784565669501 0.48534740086625444 -2.0418621443604836
Ni 7.238753180022479 2.374845876598902 2.9796834831297083 -0.08889640602209206 0.5373806153134101 -0.21613027417180194
Ni 3.422070692267719 6.38615423325353 1.2645283607346016 -2.121252667774669 -2.723701733452638 -2.7536041774390254
Ni 9.08532614007473 3.170497755451938 5.5316977003548535 -0.5785151805701907 -1.3011193531742173 -1.444174247516584
Ni 6.499367726839348 0.37838414993849256 12.951491319114192 0.2967384720431728 -1.294469194847551 0.7037703277269751
Ni 3.2402068654804803 1.4502595589501934 3.0515611949809456 0.4458159184305355 0.04750858710392463 -0.5754751081922863
Ni 1.7473504459676872 8.048906520061273 9.068804494889365 0.548191589885985 0.2695583120839551 -0.19914196714392154
Ni 6.9843442338483355 4.851816450192426 11.540804489414132 -3.041230145657969 -2.0381548707122255 -0.7409716193676207
Ni 3.576245614352814 9.11778899386345 11.474295343278275 0.594085267094306 -2.136089732787502 0.9609102115419194
Ni 3.9914562911460925 2.139844687800484 7.871427163742063 1.5061476038955868 -0.2950662265470725 -0.6727967621635961
Ni 3.9617821798930963 1.9721609078050566 5.438263481370707 0.22985919372212024 -0.3769689748601508 -0.0873992526512753
Ni 6.330625170016798 0.291064367130974 2.035185543775939 -0.5470196810650708 1.0737656994827702 -1.541910620427809
Ni 8.188920302083615 8.202570960461864 8.473580960083407 0.17888090290204034 0.6406574584268901 0.42244279092223375
Ni 8.543809059824529 8.62965506310215 11.58225749286886 -2.285907656885315 0.7120932457703736 -0.49959979702021057
Ni 5.4876213882436415 4.634852280913192 1.1358727961925017 1.1630202601752295 -1.1393116037043798 0.7462428950688891
Ni 3.004940982475282 4.597237343456781 6.214003738518682 -0.5295531488491912 -0.3547536151053761 -0.24077995439968208
Ni 2.2590516144969746 5.361400065067469 8.831946665297673 -0.2554486121554504 0.0761344783707334 -0.4079309704593039
Ni 4.781492871469571 9.448127363925474 9.195417187356991 -0.3868589802803531 -1.9651332269388606 0.11507512129998891
Ni 5.163947640173768 1.394342907767819 11.127940137696672 -0.8044411006761759 0.013003097127887282 -1.3360431616345958
Ni 7.6179654446936125 3.7658612000529095 13.65410885630261 -0.04476496292051646 -0.7955849358371266 0.6000003470271602
Ni 0.963080418006211 6.086161163325978 1.4963863058275013 -0.500438233761106 -1.0027556868227956 0.8095475686648059
Ni 2.0810920272597477 7.8186698269849035 2.3705975345800754 0.7166240437611916 1.1818070538644294 1.1766262809944381
P 6.735002291061133 0.17475206065291887 10.761328262604742 0.9371812433560955 -0.7493637000860578 -0.7427392527910047
P 3.991947866101542 4.6353911226912805 13.529543762591722 -2.2993074752309886 0.8643583458570984 -1.3318571485777064
P 8.485236013209821 1.2396102371755788 4.391711745256274 0.6452975283020628 -0.4613831767411732 0.5817331732868563
P 4.580854662729976 5.630783140653764 2.822907940462995 0.20178686096593632 -2.7017447695655727 3.5220225801636893
P 2.7581419947460777 1.453001034663277 11.95288137586642 0.9304030440919976 3.157615501128949 0.35170865763146525
P 3.098472571114067 9.311081938364888 1.5216778372853752 1.6365860950255233 3.081157063759894 -0.9635839017193406
P 1.946646276944325 2.886565951857245 4.783531962198234 0.38533585876760734 0.9255698843694125 -0.6374271244150506
P 5.169307697861072 0.21435787667889944 7.072483623360421 -0.6203460005630477 1.2884954937626196 -0.1362774664092169
