# total energy = -340866.85574577254 ev
CRYSTAL
PRIMVEC
9.22162206377751 0.00000000000000 0.00000000000000
0.00000000000000 9.22162206377751 0.00000000000000
0.00000000000000 0.00000000000000 13.49677602618168
PRIMCOORD
 96 1
Ni 6.9161334701671615 8.708300367004814 9.708270919697576 2.32321590641747 1.4060854110646621 0.7232016969787094
Ni 7.844898346787488 -0.041134889045834754 7.665926030085478 0.7376207006175167 0.003544008597516477 0.6999620097244783
Ni 2.266029162515519 8.842871496165229 9.286470242917677 -1.0033082168921559 -2.865796063653948 -0.14696914179510817
Ni 0.31222567608533935 8.597115271117255 13.35334569285303 1.535018521293666 -0.6694872381743889 0.36406152276986337
Ni 4.217379697506195 2.9835727883019314 6.974756243084703 0.3564181472919926 0.46472818195400606 1.3206417394778611
Ni 8.368631143987287 6.769565010845867 5.436082512113608 0.4676983203259235 -0.3379645685724954 0.09672798625136889
Ni 4.534096303482655 5.260133043087798 11.680082389477613 -1.037735031111458 0.3101966544306077 0.48166121026391884
Ni 4.680028470889192 3.712744879371101 2.2444865314710696 -0.25527969067775386 -0.9564377775928624 -1.0399217543501316
Ni -0.17077706127236153 1.1138059427296196 1.235095169791101 -0.6191051861774113 1.0206485079428165 1.3455773263772761
Ni 2.8032993007423497 2.3825259126480165 0.7459388441041501 -0.3524668759537285 -0.391007712341404 1.0639032048663934
Ni 5.048183284119595 8.672981554924748 6.6907164544987685 1.1726559834927806 0.24040200223497304 -0.5184431549789588
Ni 8.681373230901995 5.886511714246658 7.604231534895386 -0.6038806559181729 -0.908007707115933 0.778278326237879
Ni 8.77999847768954 1.6561571946525644 9.167415414855412 -0.3205836540918866 -0.4014890714887021 0.30721391765319994
Ni 8.18128467238974 7.5907227808964075 11.905424710008187 0.3324989174722338 -0.2293017785567535 -1.5302853774840548
Ni 0.19800758873743327 8.481411580472717 3.6835667453495513 1.3457022819909148 -1.5004538959449192 0.7136251090338677
Ni 7.70198164975959 3.836268505431799 9.51603698846493 2.4746456550870928 1.2626929308772188 -1.16381318839017
Ni 0.7928483128169659 4.884370391746154 2.269523235073518 -0.5750056247550356 -1.0726963776779914 -0.7358034449031199
Ni 1.9235473448023221 2.1204197518773387 8.71866085926903 0.04560159988919889 -0.7138220555360223 -0.6743147414700194
Ni 2.7702582292846802 7.057860577963121 5.2754851993151854 0.9768057997262533 0.4180552033774994 0.5098723825908121
Ni 1.4997123782195858 6.409811095214664 8.735167562564936 -0.7151824262186587 0.9424759160961316 -0.1861751225706084
Ni 4.417129250630554 5.7488421201100275 4.311383067370887 1.3802440245215262 0.06085184118005004 -0.6723331922636163
Ni 6.510640309648981 3.730256739459885 7.102057045497358 1.8086666871762784 1.0093917040820746 -2.8780288582747144
Ni 6.820772677550986 7.590298586286569 3.486325473396414 1.2979846641999775 -0.5788987891618546 1.1959964579909337
Ni 7.338419204261791 2.582948644174945 4.840658981526645 -0.12447121780290821 -0.28411666951410425 0.31781534731813005
P 0.27313706495087964 1.33731961562691 6.743717726673748 0.26012082082013915 -1.1865862204206274 -0.4068806748179187
P 7.386445411393117 1.9643530219444343 11.020036498730473 1.1833893107498845 -0.5353823539364586 -1.077834470235505
P 4.212086486505162 1.0178549663084502 1.9718520449166297 -0.6760198970865842 0.4880925677115594 -0.5276315063464462
P 3.063376704683363 4.506117902477194 5.445868497330153 0.5776605458793792 -1.1369739567101385 0.03899463609564252
P 7.853502120069655 0.4298105776082929 3.268824298012493 -1.7724061621823475 2.1649166843215233 -1.2966847144416314
P 3.302594799766646 6.8055385580845975 7.7764508578412 0.5258121937495203 2.0078207385050586 -2.3378084595196644
P 3.461695443322094 7.309112889695094 10.964308392943986 0.3253234827697171 -0.1464865457317348 -0.10798221900894951
P 5.892588763113698 5.294741790277481 2.669216917545444 1.4822533137764924 1.1364684778286298 0.4795930148809805
Ni 8.195043332343646 7.883518499526734 1.67315448823637 -1.353694813278088 0.41199228501287105 -1.2549603381196517
Ni 3.0222574923948486 2.847775183421764 3.5389892342079143 0.216848126174433 -0.06744672078874836 1.4148924678333308
Ni 5.6161522018280285 3.5987471887878724 -0.1041259442825214 0.8151924256554091 -0.06130949754275892 0.22974812206555273
Ni 5.273882481419751 7.840241427701214 1.9929206845926937 -1.5853501796686826 0.5717778618463573 -2.2261896721993915
Ni 3.2838749072020157 8.36934120887767 12.869945503589152 -0.4658201294666043 0.2350286537382017 0.07998290558254612
Ni 2.9151391317885724 5.516890663125725 2.631830617823512 0.3745392823727356 0.1546289723332111 0.5008413827367955
Ni 6.894637869394672 5.753517482440209 12.038732476961039 -0.11126191820148582 -1.7541610999292307 0.4963972309225128
Ni 3.83859235416396 5.755638455489403 9.44034683763674 -0.4026314126232614 1.1054311489068511 1.695055809126642
Ni 5.12552502743957 5.808238587109428 0.6059527785329213 0.8832217584205047 1.0850230175641442 0.08458749423409302
Ni 0.501469957480818 0.16615518434950807 11.090544098021066 -1.065895552706074 -1.5339813382784033 -1.1879815581062572
Ni 4.887727062137053 8.047377500009942 8.888828371330296 -3.2012365802530094 0.6904532989030948 1.331183005328817
Ni 6.6581862608972955 7.120373953182641 7.9952061738107325 0.717134664849023 -1.1427759081038964 -1.0958288499303965
Ni 3.930476595303848 0.9066643374477203 5.0316922575810095 -1.0712005098587551 0.8219199741872296 0.2684355113334216
Ni 6.253117294988954 1.0399776373737442 1.2385440564015304 1.725111490861442 0.08268282101221244 -0.7508567396918165
Ni 0.15595238182068713 5.589105184639822 10.419605627423019 -2.8849703225895538 -0.8647836063199752 0.47094382384641476
Ni 8.05256927316949 5.354737662703827 3.4351722142608185 -0.8584841464645085 0.0893769452029364 0.5455739497574797
Ni 0.46595195836656755 2.319984872562637 11.497916625093273 -0.03715501178374246 1.7274221412724893 -0.5497921016038855
Ni 6.291091934191489 2.2445243401210773 8.675902964759464 -0.8847932166726827 -3.5914413370771436 1.0495736756175988
Ni 5.052609662657044 3.5874507018954227 4.662488023772353 0.5344549570261828 -1.377600673361408 0.37211678897417205
Ni 2.6716790906069003 4.489260777547074 7.708885878115816 -0.45442217204230767 0.3200753469969004 0.20777701711110022
Ni 1.283465343421275 7.180222279657738 11.47319069015064 1.7741817660255315 0.1767386597480569 0.6724357792797516
Ni 4.666795443386609 8.005262352550501 4.32666145062265 -0.40567097078053366 0.9275455200385446 -0.27554538290532543
Ni 2.2255001340319978 0.14426213167084412 1.7152650248848342 0.10153723471455417 -0.1166272962784572 0.05195608135231697
Ni 0.9447090609770982 1.3573674217527745 4.413513452662775 0.14236043937850318 -1.6897757916746252 -0.18364027196389662
P 5.539253096361797 1.7327888730821575 6.119640772354362 3.362217205835861 -1.0967706450183756 -0.9036512299194501
P 6.415030533240074 7.495684745048587 5.559928894942663 -0.8443690472193651 -0.7645632906446317 1.4108560929804284
P 9.346667146702599 8.522023603553816 9.103493897963665 -0.38284934490032774 -0.7105048182373312 0.1026842038348038
P 7.190707263818322 5.992348269401465 9.805475114542162 -0.14147340878785958 0.16973908850177216 -0.02714467873559196
P 0.22732128060169213 5.697957210173265 13.007153094465936 -0.30462970186579147 0.8661720020270696 0.03336700549621995
P 2.363658474132138 -0.3914098994715285 4.256720981082168 -0.17980007228220005 0.8639986485248345 -0.8016568530628193
P 0.8002108557842568 6.35849276904611 3.9543937940012 0.47448886088519576 -0.6982465696952684 -0.39571565934003466
P 3.692558748915941 3.373601288804897 12.49169762513117 -0.36890419557414533 -0.24628880003305326 -1.5782310521253982
Ni 2.726879719617676 0.9955939709138607 10.820216861279272 1.2235242310975574 1.9076842407927725 2.584443587148543
Ni 0.8859571853522147 8.368492819657991 6.176178536548326 0.07673200274541624 1.0107320201600527 0.47072630851896996
Ni 5.318985434391969 0.99110304102274 10.935749029755483 1.029867455437923 -0.5936085845682034 0.6030956981230323
Ni 2.253792070183862 2.457368596418724 5.995578603571607 -1.1931641307484613 0.17078064239240912 0.6230307464840625
Ni 6.107517105972727 3.6125888433393545 10.979694669172597 -1.6690848389841768 -0.013736375749486022 1.3522508817427097
Ni 0.3008987578404453 3.3460286391653686 7.431230218407956 -0.2948821355607244 1.355474273776014 0.12169956859504201
Ni 3.1682357679111495 3.535376202726721 10.074033644193367 2.1099963781345594 -0.4436302236331263 1.883813347712446
Ni 5.341191100054841 4.317526511915989 8.838512435468036 -0.18030118028833464 0.7187506031858911 0.5659921084025155
Ni 7.726594158752199 0.2053387781900839 5.518872389683429 -0.3052061431945518 0.24979038542840853 -1.9692606188436728
Ni 8.185609613085706 3.8345071756387723 12.516477967643324 -0.6451404338989083 2.3282845791896287 -4.380776949570449
Ni 1.6113677768267478 4.427236148291064 12.004221478964057 0.8052219447062584 0.10082118248413605 -1.9078693602203851
Ni 4.925784695937165 5.819820944282419 6.634839880598836 0.06521474613443608 -0.030710798820295496 0.5407503031165913
Ni 2.9012421475053713 4.887182986441825 0.3777351562773957 -0.3496972836283913 0.18349988973129042 0.6404463708573487
Ni 0.6477359476020533 3.3483617095194824 0.3596515556275241 0.7498804918214763 -0.9156279426653521 1.7620003934679913
Ni 3.191483476854712 0.4568705050672338 7.526841839141255 0.21757960502381882 0.8247931819699665 -1.4317550479166243
Ni 5.720162875836137 0.9486374719290847 3.396625834497197 0.4055179901424371 0.3227428665267345 2.806354986778496
Ni 1.1405855328811887 7.26200884475907 1.9240333242792462 0.9750492220464627 -1.0768816194039326 -0.8748415047766095
Ni 7.771033154943802 5.367767814523443 0.9450548718003364 -0.0684409663812176 0.5594483937467268 0.09464590691135959
Ni 5.732667395204431 7.444882829709402 11.130683051895975 -1.8250505278509408 0.5833069455318793 0.5282871376525741
Ni 1.3270743936371052 5.684336874548656 6.00516079094299 -2.1918716156438123 -1.5823201345931073 0.7536039634196505
Ni 4.520051773248206 1.240732347290982 13.160504056733675 0.06635837282057604 0.34038577641947826 -0.7244381404889717
Ni 7.249541211878587 3.373868715841535 2.3756890021320474 -0.3107792664069551 -0.7926569635570543 0.33642344933762064
Ni 0.37344064693387446 3.461566340614752 4.3807158320246655 0.026848230541095697 2.3599461719589683 -0.06383226396461264
Ni 7.197669588392851 0.4621978360694933 12.600562560935346 -0.16241555825716544 0.19370459817843413 -0.14588747869515523
P 3.191003952513155 6.990828607986621 1.1191175969745588 0.5089879231033299 0.6284017809879887 -0.48212760837737606
P 8.311032893268726 4.342341896591565 5.932049005612865 -0.8483190330060487 1.1229388187733111 -0.5785221225487261
P 7.540630930447605 2.6492889925049687 0.3717918209286745 -0.5730461870358196 -3.0489647952980654 2.5894143008902564
P 1.2609276993680951 4.091246352432792 9.472239817161256 -0.9296427688872053 0.08029915127138429 -0.39050943254874676
P 1.3330961127724268 2.5824230117236233 2.4457908500567074 -2.3677972925722703 0.19671638842156444 -0.9709105172877408
P 6.626058130012976 7.685124524829471 13.40344584276159 -0.6549455929147882 -0.7073194785308141 1.146174135152168
P 1.5933671707744534 1.0025931819762026 12.796549692302873 0.8105868085625976 0.12203252645442855 1.3290803571635175
P 4.240009557778905 1.4423538896718036 9.254631670962679 -1.172147676397794 0.23973068719956134 -1.7349310480550248
