# total energy = -340851.39374602254 ev
CRYSTAL
PRIMVEC
9.50363384607754 0.00000000000000 0.00000000000000

0.00000000000000 9.50363384607754 0.00000000000000

0.00000000000000 0.00000000000000 13.90952877576601

PRIMCOORD
 96 1
Ni 2.481512807056241 5.959443594782151 8.171958900575007 -0.9499367432495511 -1.3521380103139293 -0.4188833557057495
Ni 6.472896413598702 6.706533744892059 6.133949317089693 -0.5533093707285245 -1.5667006828882954 -0.8914834842086646
Ni 3.2870312972569207 3.4256798095510455 7.896620574895787 -0.7835925393619408 0.5372476892799715 -1.8784363996712488
Ni 2.2988909815545684 4.239437950184175 12.872642408115968 0.21956989598097024 -0.5930231443783787 -0.6128316944638735
Ni 8.65403737340235 2.1635117192590165 11.610463863826851 -2.503814563341565 -3.723542046400852 -0.13576941642454682
Ni 0.5978422351314563 2.953928935483731 8.36352174467743 -0.24146463917153255 0.6057948422217503 -0.25337296057334424
Ni 5.344330406097188 9.338745671795303 2.465296756845297 0.07659547716755195 0.3890511028356654 -0.40246737624157136
Ni 3.7616047505381203 5.115492409830807 3.3451308116210923 -0.7484388742789432 0.7026822368691188 0.8968357496595135
Ni 8.487514703416904 7.781926921748182 0.8573712661228113 1.785677939590589 3.279496075386546 -0.6119554625065075
Ni 0.9382500401427365 2.3848418448891398 4.15605591904325 1.183418107105291 1.4970741808394088 0.8877384153439356
Ni 7.226506056438323 6.827334433066068 12.810147463157783 -0.8621870492373925 -0.4400911001316163 0.410400515045719
Ni 1.5201157166329116 0.9432736609254271 6.908974448146707 -0.220493179126188 -0.5211119600603734 1.1947929246011357
Ni 5.073514859703784 7.202024695983893 0.28378610569006785 -0.1795632736810456 -0.43453108954533554 1.465858674468553
Ni 5.659594447383979 4.0893185519938955 8.885267434275244 0.10186633591919877 0.019488961962547083 0.30732421797881915
Ni 7.338439854354575 6.121946227705397 1.2837755519105034 -2.570556544753805 -2.808647382357098 -0.8257899986655971
Ni 0.10592369995375946 2.4755350214483856 2.0391785304324794 -0.24122655501879744 -0.35577999948736144 -1.430160449735995
Ni 8.2112630785375 7.625981796089515 5.118873802707237 1.96938634578826 1.8311016191410268 0.5572418730137113
Ni 2.424861646470507 8.428373590797374 3.362545270043723 0.3482682644913486 -0.3088177718052101 1.1470007448185213
Ni 2.7773324137584976 0.5197888914155302 4.965632460840995 -0.42748421000088316 1.3439989261465626 -0.05401296388134569
Ni 4.168806944401055 2.135913166945483 9.568337306215426 1.5926947929592121 -1.018140396808982 0.975791499529126
Ni 6.35754130754441 9.00645111888804 0.009592967873719207 0.938977673134886 0.8257953979822359 -0.40056347435063916
Ni 1.5298094230240287 6.9359324555477295 10.338131637274724 -2.2162937532419185 -1.725673276902183 -0.5676067611878031
Ni 1.0336532175720188 5.442550460560124 3.918954513260127 0.2111024819399074 0.2552105280027153 -1.3063628609613438
Ni 6.314651408580575 2.197848347877748 10.561087834633787 -0.150141883096135 -0.6177962375580005 -0.6108522021399997
P 0.7300577377626918 0.7909142562681019 10.90476393928027 -1.3179893894566785 1.2608767036040867 -0.2354487719947558
P 0.17205473517198328 5.194762218662481 9.04379469721476 0.5722835978381822 0.11886852690415012 -0.45852179603297805
P 9.281761884029482 6.298153100448243 2.1874124076933503 1.8732779953987606 -0.9331016739700834 0.04555094915692155
P 2.8192054239146365 3.7261086786059407 9.941376787956644 0.5230287174671121 1.1332363440445772 0.6959500603516078
P 2.7496673360089465 6.69725819838448 4.687983801805225 0.8484920682488032 -0.46473949480791577 0.26665785060770847
P 5.713917217709102 5.7372486384838 11.449405783228555 1.1028543893186105 -0.21392761009352834 -0.9464300156478732
P 4.601146249444878 5.072003781942815 7.0897002987218825 -0.9781965094261929 -1.0501814844049269 -0.06900506641480374
P 3.485543198333052 8.640732286198855 1.447647658452338 1.248019388025444 -1.4004593231271365 -1.2576288860907503
Ni 2.666168410173305 4.174376073759089 5.238328776346951 1.104716896448646 1.1865939337301112 -0.41829817262624086
Ni 9.425551862164385 5.333895416276161 11.574660824525619 0.6539508331016867 1.1452631933021242 -0.09816394736694707
Ni 8.351185077749674 1.4516515393372178 4.60410948243777 0.7122230864800186 -0.921868010037793 -0.496689308241635
Ni 7.606984032289668 0.6258000247994842 1.7813373447892253 1.5334383212907399 0.04656962022942302 -0.7715379221902519
Ni 2.953387228361874 7.2997410578598405 13.33365987826355 0.3789325263444248 1.9017493633655764 -1.3537814594546234
Ni 6.541550663568732 7.577503760500212 10.56560871319286 -1.0852477319804406 0.6001774960349728 0.07047316631989799
Ni 3.661436451163244 9.467786010401761 7.26280518541957 -0.49618357224981 -0.7520147645556597 0.587451306717556
Ni 3.6759580034824855 7.614748501036279 8.996599652177224 0.812477340717091 1.9424964633759516 1.344791340140871
Ni 4.304072163092005 7.1653311662034005 6.499310813151126 -2.263541887595605 0.04139861755144483 -0.7039796155243037
Ni 2.0781880957497525 8.886249159638188 11.122504542455564 3.356394685616813 -0.6505047835346152 1.247124901235633
Ni 7.78568085706631 6.248125972563105 9.212433826428933 0.7297976050286722 1.2734005471027101 2.826346085188442
Ni 4.472657121593992 8.522877724477048 4.43163183556539 -2.08370761964136 0.8460168672354333 2.1915386577844256
Ni 0.7735473160140555 5.0502024461965185 6.290974055538586 -0.9120610512497003 -0.3084958696894171 1.0336788587642132
Ni 2.225380374755264 0.9794064763166302 9.134915537291262 -0.3536020179994362 0.5518991206445591 1.0525960073836904
Ni 7.705204086752605 6.042666915240007 3.5439392260691873 1.206288583945561 0.02789209842457777 1.542900495144904
Ni 0.772851650025987 4.248181293203614 0.6546739647578095 -1.5196178704678798 1.5879202543887039 0.541119770640868
Ni 9.44576609107998 7.15195955356389 7.675959505079326 -1.1930623150632744 -0.9938884662401528 -1.638246256336766
Ni 4.439004754602869 5.207069424325713 12.968256566213762 0.7416005112008711 -0.5452942137335319 2.0845565979052165
Ni 2.4287771435618204 3.659250615408384 2.104525515869069 0.48076826613600426 -0.9903346874506234 0.5009714805567566
Ni 2.8879261993206833 6.017938460308941 1.3243152022561782 0.7653680459341141 -1.4893094492923253 -0.04101295207725195
Ni 6.502737823469396 2.1310568101162075 3.1396033281352334 -1.0815785106589695 -0.13975462632453997 0.6068492516281936
Ni 4.693483554637126 2.6176048418805515 12.297052931332354 0.6513895001324136 0.3578150276395192 -0.7049764322199342
Ni 7.276723256997796 3.6484829984072706 1.1899879922130738 0.1814689753441907 -0.69710217167818 0.8015794628576647
Ni 1.3977659361630672 8.407037933103199 8.604781940575014 3.3743764669062144 0.4869255439866518 -1.1802785330350447
P 3.5429926641509963 2.4517094117204143 0.07011971028915698 -2.0871464701195794 1.42494805229712 -0.33719966538201285
P 0.6282814235629357 9.000767945925404 5.658452110611222 -0.8883017440465734 -0.257209303600299 -0.6841715796594411
P 1.4542935495104832 2.854074256021508 6.199504432104679 -0.8011678292415427 1.1048079135005553 0.9408592064283151
P 0.5979401225587392 0.5445335025239141 0.9740730370747726 -0.8447791381735902 -0.6484414732476832 -0.6553474563388971
P 6.562981357600075 1.2442252298347458 12.57959691209564 -0.986116792714534 0.6840594795616091 1.1596847680440932
P 5.281197767316608 5.7252170381983545 1.928097208460623 -1.1318327788288314 1.9277342174651122 -1.8534861574838142
P 4.267226575172044 0.011115449995147597 10.478228503347285 -0.3359367395091892 0.183862929497664 -0.10263406732315872
P 7.577684329540832 8.874958842782652 3.480219262724911 -0.47701265574831403 0.30385322871108317 0.26156680923804626
Ni 8.99989361162346 8.979897966283353 9.359151874111976 -1.9697041341389951 0.4273415137754318 0.6626799854445684
Ni 1.4652227282847818 7.7782870300346545 1.523538925497696 -2.3788082989707937 0.27922977373544816 -1.7027475213439447
Ni 5.376576235298227 1.7731214534410675 0.8811075416938445 1.2278735092051887 -0.13537938007497974 -0.4767154362228694
Ni 8.502273846579067 3.935540254822654 3.431717468051317 0.01808025454047854 -1.1246745705174952 0.6354278345968347
Ni 1.115450992972357 2.9991092101733097 10.940790313973846 0.7896883678470336 0.3301921237159281 -0.5733197524121804
Ni 4.190028558490628 0.2047595898815433 12.852626805145054 -0.3618426607416736 -0.1570082711986651 -0.3889986523311752
Ni 6.978565756401211 4.1526412634488095 12.881433269303992 0.013794996901563338 0.17483758607060212 -0.7124863674437342
Ni 5.645719142157478 6.440546044426779 8.367540831376255 0.25511771117859294 1.0471660946173706 0.6576563069777319
Ni 1.6511423146861777 1.2168072465618314 13.091022605840402 0.24703570550140677 0.4219216283114411 -0.2624132163987416
Ni 2.8685482901721664 1.2290194158878953 1.6039358652881808 -0.5222609860631522 -0.5303635605656286 1.1293773753098033
Ni 8.665736346507707 0.7525290796860215 7.25131529225598 -0.32730348931422343 -1.2069208182129214 -0.4463558500944055
Ni 6.2901225299575625 0.3053517513201883 5.162952606249043 0.25556688290086954 -0.33224103582515685 -0.09674752663539467
Ni 7.6676362226701675 0.10656899668312891 11.168405192580876 -1.005029570458637 -1.0851685420030732 -1.510786645329495
Ni 7.779436969714386 5.124245256483963 7.444977489046439 0.634870676541784 -2.2670056777744896 -2.269294473808666
Ni 0.5398672183689744 0.416203085356099 3.0747429287449437 -0.3702224001649366 -1.7495580539395805 0.7049574060565408
Ni 3.431534047920583 6.026311161613425 11.126454252628259 0.3706376333254842 -0.797701467959497 -0.8977289508977442
Ni 5.995414848400169 4.429833748066175 3.236831203238138 1.1530436085784916 -1.6496321295762042 2.1336710960436798
Ni 7.304454860183363 2.5696400025119552 7.687267878838923 -0.7544724820675328 0.8855804884606684 1.700698095014084
Ni 8.70555657178102 9.451325716804297 13.150722532122481 1.0513330815108668 0.6962508794214783 0.9813443110265551
Ni 5.879822151502956 0.2994785056832174 8.664773628412197 0.6619330799762149 -0.9863764741338237 1.0861987830398003
Ni 6.675665942579952 2.6864871790597835 5.654432073549024 0.965682179009266 0.34701330903832495 -1.7909150196198125
Ni 5.870793699472014 7.1514463573431835 3.800639975666428 0.09030999854016704 -0.9074901440495662 -1.6980354605802561
Ni 7.782107490788801 4.006437362349844 10.616906476905932 -0.6762350984211838 1.5221329235802497 -1.9788346356853537
Ni 4.501937817075396 2.7776935518397354 5.734495435796049 -1.8794278170502403 1.02365875552405 -1.0479261127118469
P 7.461949078137867 4.683941906385478 5.314246653566716 0.29869816687270495 0.08321915313165668 -0.28829779747498735
P 1.2103542792681365 6.275971619353274 13.181044825859242 -0.17441001161488026 -0.9824113188384888 0.3646932428165913
P 8.123411488459572 1.7225336111666398 9.401867856578795 0.5971605635855199 -0.886831330148634 -0.01610976107766903
P 5.233717613267568 1.2253700205406513 6.8722666629156395 1.3339389708073994 0.22263336539764236 0.24997139109096303
P 9.372550096925893 3.5249547673565447 12.759655607583896 0.8556875575559778 2.638529313249353 2.5792327323715645
P 7.289182520800496 8.035417343875894 7.500365616711212 1.1399710916652497 0.7258689593982274 1.5709540588480104
P 8.93945050118473 7.597043231421915 11.852393115538097 0.2527551244836873 0.7163494499435663 -1.1151195798392086
P 4.136551611566299 1.7729028698655815 3.6407631967391283 0.4134187330467525 -0.2458486271718411 -0.42187534845453795
