# total energy = -340863.69272322004 ev
CRYSTAL
PRIMVEC
9.31367379039753 0.00000000000000 0.00000000000000
0.00000000000000 9.31367379039753 0.00000000000000
0.00000000000000 0.00000000000000 13.63150303282105
PRIMCOORD
 96 1
Ni 2.59500376748217 5.125845635357399 10.958365347719687 1.1662084280952238 1.6353321680137642 1.1290403036853587
Ni 4.452196914691058 5.7908419529558275 9.278418866070352 0.545722302409886 -0.2621525065381872 0.9489044453302946
Ni 3.164628064181328 3.2287527090926047 6.472632687359487 -1.0330862194855368 -1.3741461391539043 -1.136996582417958
Ni 6.906610774412048 4.167915645754688 12.376300486133065 1.0494245516342442 0.1774220589683267 0.21668126157926554
Ni 1.2968638970778428 5.037309851112432 4.421432918379303 -0.9429464279746469 -2.2141468821022445 -3.2550623678242134
Ni 3.5563891301076964 0.4239854463081442 9.266395844412258 -1.5091190278190847 1.9988311334119384 1.7163072623062505
Ni 8.599268558221862 3.968342241083832 5.1768221668015375 -0.8261103581194934 -0.80556518697829 0.7178538024032347
Ni 6.748511159688892 5.093424736455997 3.7844595828591676 0.05306216993230216 -0.8962503094696888 0.7136919577160612
Ni 0.7231928090622068 6.454478474162529 10.118338087586306 0.07499367989807083 2.1663053371389336 -0.004443123373018155
Ni 4.783717137729099 5.10588643215553 12.27311056734875 -0.9364983583564582 1.0377735976588771 0.3273016895420105
Ni 7.27404452406997 9.0043295505002 8.74327379020802 0.7882130688530877 -0.08630807646962556 -1.947470262441459
Ni 5.36426637393166 2.75166907642227 4.401312588618688 -2.3807708220138033 0.7233796173174704 2.6894052741636134
Ni 4.938696671690413 3.829568499736261 7.613099509306008 1.0899909030923807 0.7768238531795395 1.4128774942858313
Ni 5.582644086238807 8.403597582921787 10.230606975703884 -1.6380205134792047 0.12704129252292962 0.6019561852019504
Ni 6.675827248448862 6.508404646135846 11.081621576955902 0.29537655869863966 -1.42102506309363 -1.2974192786148107
Ni 8.809571315243886 8.681731827073634 10.49083195628276 -1.0216450675281308 -0.7384586231377798 1.0268857471017798
Ni 9.002913872064976 7.260167149935213 0.6267478529278196 2.1034228386821 1.7378636483207877 3.2515898358945807
Ni 4.045468774781767 0.23559683264294576 2.5272533093154155 -0.6383144121160105 -0.82758694266502 -0.20425177756666116
Ni 6.123358739102874 1.865789668233305 8.793110327964847 -0.6661825992811882 0.7995660319720617 -0.4423770679523155
Ni 7.756716361089871 6.207321509455112 6.144904060972627 0.5881460187917356 0.6364804442310651 -0.08449416318933835
Ni 4.9004919812872085 7.130735023525333 0.5971359580794662 0.37076978802797433 -1.2731953730704397 -0.6835519437975711
Ni 0.45031333973373583 2.337080195727922 0.49776837107025557 0.8179751306068688 0.5447131444190811 -0.17200345905591669
Ni 6.52589572574999 8.889929693790654 1.2971684542148942 1.2076468977456687 0.2923796808538448 0.21809871075208245
Ni 3.4528955855537222 0.8388714332004108 4.746966311824173 0.6700549377524008 1.522313672132488 0.28410432821893006
P 7.02216552668717 2.7052776666469516 3.326332070709954 3.0840809222749077 -0.34324895689988627 -1.8292015739048368
P 0.010775920720747643 4.4613708834982635 13.443456586585013 0.5554115046731919 -0.25932455017108885 1.007549508667013
P 3.854445322765748 3.4475122820303064 11.007793015191602 2.2074566145662624 -1.0389653039741331 1.3395997686376027
P 3.8850500552535414 7.4357485305985955 11.90336982066185 1.752104217400202 -0.7895523564898015 -1.6613252496434163
P 1.096247360928401 4.583026092188328 6.451040797120153 -0.7728784953785464 -0.6582767141705502 1.08923319899075
P 9.05097242947125 1.4720820444585043 5.941754205518049 0.0015148939826296489 -0.2168535254910717 0.39682457613349725
P 3.3087385406827354 7.351450467985383 1.9992099098139913 -0.33263929970484 -0.47788991614694465 0.2553665939646054
P 5.933713710826415 7.38923604306237 8.104678012691727 0.45664309095302646 -2.23677464680409 -0.09068897914614059
Ni 9.312602843444042 1.294488910229277 3.5486075555509244 -2.1823027410084546 0.22635118056886178 -1.3297326460355356
Ni 1.2467470177361462 0.03202786186214952 4.836279787841122 0.12778305578496055 -1.394329813190631 1.4621192620307786
Ni 6.772829162283422 1.430580313489056 6.0763246858273545 0.4083996825656064 0.21160796082141622 0.3389868391894227
Ni 0.5678640123290445 3.702809397740258 8.658689797805588 1.2123748993489571 0.9270518682315776 0.6231886122181655
Ni 8.805100751764233 8.408925004401707 3.1735505637928028 -1.6099687495483113 -1.1086933645978907 -0.5214696005101084
Ni 0.48277987563732633 8.726279129413596 8.442208349507727 0.9483336604284893 0.40324282095501524 -0.9201338009555057
Ni 3.614702042495424 8.907998221187587 13.485005817291432 0.7116569295639035 1.2307469740982417 -0.6419378678012105
Ni 3.103027424901272 7.847813405661722 4.850620051569502 0.7694435015550685 -0.8713311776305058 1.031121125339366
Ni 2.7352304419606286 7.533858771629154 9.469055800618857 0.3429291116666223 -0.6186647562058829 0.6624616987861752
Ni 2.507399350628797 4.370078251774176 13.295677453928116 -0.7608357052813994 -0.6821614912079478 -0.17290874447900542
Ni 3.1492232475243562 5.376579050848537 5.573689920136018 1.4538755339647478 2.456000786292396 2.1991342107434964
Ni 1.7320639381481755 2.6877493323371437 11.236543366138939 0.15193239933765446 -0.8223868865213192 -0.4668403432010024
Ni 3.1050671194888637 2.9658276944454953 8.966067115318717 1.7361782901985647 1.6845091439590474 -0.1511178738561591
Ni 1.3588650243362845 2.549422647337538 4.939143728038378 0.6790427430733079 0.7112159853717429 0.15120400581206217
Ni 2.5159120485879702 3.5680684771982905 2.056938854847189 -0.052885278034805694 0.3879822952515189 -0.027122053027772645
Ni 5.979052675449231 4.287847824770304 10.225685630406698 0.12366569118247736 -1.362100777953596 -0.9122009192616741
Ni 0.6681825254450731 6.826271023213112 5.35967566405849 -0.751959228727376 2.2468420583424207 2.3917304063491005
Ni 5.410480823902575 8.700508193688178 5.618769033256581 -0.13677240376776445 -0.17097784600487972 -0.1398942372261978
Ni 1.929728039666263 9.25400120716492 10.718532656179768 -1.4776088730259456 0.7112674074349686 1.0170355937805773
Ni 6.9105690858263245 8.357140977429058 12.445876424387343 -1.266848090696173 2.7534439977120777 0.021177148298247402
Ni 4.783791647120426 2.73189614669872 13.624455731365302 -0.34940237809579183 1.9187379275037728 -2.8894576689369464
Ni 3.7703055926091067 6.959391364493704 7.457454979027095 0.6974384719716763 0.243970950533154 -1.3265786737875864
Ni 1.79596505488547 8.755384360400923 1.4598382887286039 -1.5390446117339236 0.7397853123690034 -0.21773849919918628
Ni 0.4051448153435803 4.721697383122824 11.331663917842477 -0.8969211102844682 -1.6074909774317803 2.261274945938299
P 2.3182758880916303 5.132681872011702 8.918151988490749 1.2442768902638763 0.2692472086014395 -0.3592723289113361
P 4.607837719500404 1.4593129975197445 6.588596309919518 -0.6950059512707837 1.6740231568260586 -1.0402469989000342
P 6.815355397383625 7.331612342544421 4.334708643710986 2.3573961518436044 0.5425287351732527 0.9846049840556979
P 8.138269640404364 4.599241198475988 9.969277393398574 -1.371831889198431 0.13090951722908423 -1.0992882692339065
P 5.641217781496181 4.4996593969667105 0.7466632673303868 0.09516655530151998 1.8356437299857549 0.07534746369306379
P 2.090593815542454 0.995268508331732 12.564388268130779 -0.34725139319106 0.06269789324985331 1.3944316288758178
P 2.056170476749124 7.984128337095484 6.8073959316550585 -0.2523154658431074 3.422402617076506 -1.667987235044624
P 8.88351257246257 0.45739266327724515 1.289053450131932 -0.8313410103908134 -1.0086833651611402 0.003120033686220433
Ni 7.848679577335906 4.357998416705197 7.612117848075267 -0.4585385082035264 -0.7061200589060742 0.8602399528133508
Ni 4.371112069578847 5.336716526488296 2.8200035019435545 0.9622947505942716 0.36682057357223924 -1.8346852227272274
Ni 6.316328748967324 0.3111083752838564 3.595568030802508 0.8265479598775443 0.9569841370146356 0.2293020356670696
Ni 7.2755812802661 6.3124449469443755 13.323799160949918 -2.2646505472787513 -2.853716249671279 0.7037371604961945
Ni 4.918458058271065 1.3689610468611682 11.415661148788205 0.3526167712680314 -0.007576783905993404 -0.25341564088582164
Ni 7.720784207122157 4.109295382127734 1.376863699178847 -1.0678909858695478 0.9166949504772858 -0.4230940513529875
Ni 5.016586926649456 7.5712997407712495 3.405817758010798 -0.9692968929437178 0.14555323528418804 -0.4209618355013331
Ni 2.0917300837601998 7.140421244397915 12.881579403849138 -1.6552278784964267 -0.7816960936701763 0.18772318378401864
Ni -0.051363980279041634 0.38859721089712196 12.555691159428068 0.3347650877985912 0.12850065067727545 1.2195469916173642
Ni 5.208485864013573 2.1944319660313183 2.115173532374023 0.8048311370257429 0.3825657522216379 0.18188729382853192
Ni 1.484664817918945 7.247295652583377 3.3278176016995475 1.348132488698962 0.6126208640046481 -1.2568979214619966
Ni 1.984157150031042 1.1322447106135258 7.1760730567807585 0.2409285641624044 -1.0429122044370231 -1.5850902411390766
Ni 9.293006873524895 3.416572257281539 2.80008807300909 0.7396652418513713 1.264886596094428 0.4605329129257359
Ni 4.932596215275469 9.23960226729087 7.876527462344579 1.8469095327075613 -1.1478057572183202 -0.9411492268649081
Ni 3.0055784547187456 1.644385011903475 0.8842336820080179 -1.3356392413279576 -0.05229032476328413 -0.17058909520689333
Ni 8.123842759508566 6.6090295791237095 8.857055218969546 -1.1517192333401134 0.45519993074859677 -0.8080352457853375
Ni 8.40671766368363 2.578108762998647 11.134539078044122 0.2839243509976401 0.39863334720746185 0.07397192350177584
Ni 7.4426592766442266 2.26008405346481 13.509896610831793 -0.3420503086060948 -1.759496396099215 0.3790762510111407
Ni 1.1867203893478846 6.454208377618966 7.748786699117836 -1.8207220756789158 -1.9242262043118539 0.1438300819454942
Ni 8.562889347906184 1.8774224469543195 8.070422320028884 0.11693917109192117 -1.1869479746354203 -0.17952496424394243
Ni 5.490494596514453 6.217678314849643 5.863127238952255 -1.0237477156934303 -0.5040963993389834 -0.052763150634644616
Ni 1.52642733175804 5.656091718739944 1.5171592948442836 0.4917805580861079 0.2117725114237385 -1.2749406378963204
Ni 6.790161909440995 6.6197682451487925 1.9070334104352815 1.0617653325877845 -0.6829161099857851 1.5751339012573131
Ni 8.339305291880024 8.672874523179571 5.856516393206718 -0.6502289041654092 0.16087701012545197 -0.5583734155149932
P 6.295019063047644 4.071863726659553 6.088960547229116 1.4580764594199727 0.919976706552351 -1.4009802286276132
P 9.270179058756916 5.860079804846958 2.906495866131363 -2.705092345881567 -0.2701722915188702 -0.3707908710738969
P 8.754406424639749 7.291051292640484 12.267494421977435 1.8815865152644564 0.6861024781335667 -3.474651547078893
P 1.5637472231392289 1.70518467522676 9.094898509761018 -3.0309621880730573 -2.299074533284576 1.7949722204083216
P 3.1771083872286936 4.172069544321199 3.9836976952690493 1.096209373198267 -2.704292475688091 -0.03663564894516271
P 5.665191178155822 0.8856931347106464 13.570093679452718 -0.2050511335395049 -1.0487038714181358 -0.8513272237047532
P 7.196955245067698 1.0231815890578173 10.421392929035045 -0.6378302733907403 -0.9842784539542144 0.8885781376364116
P 2.0972624060662706 1.6321654717257563 2.972281139101853 0.7540695902021594 -1.0507599826162162 -0.07162296365362504
