# total energy = -340891.74058842706 ev
CRYSTAL
PRIMVEC
9.06855211117558 0.00000000000000 0.00000000000000

0.00000000000000 9.06855211117558 0.00000000000000

0.00000000000000 0.00000000000000 13.27274267800497

PRIMCOORD
 96 1
Ni 6.328443777720625 1.7348956439781826 11.56793853338684 -0.5144594877408624 1.0614424020307267 -0.9222745014475924
Ni 4.711103775311261 -0.008182554608311758 6.228102061850017 -0.6446658082553349 1.57802304987965 -0.6450563588255341
Ni 2.909880740880687 1.63791654724618 4.873990388530936 -0.33507104907478424 -0.8934501210167322 0.8173043297920892
Ni 3.106486951573582 4.4192505613477255 4.70024962523846 1.0312478807252174 -0.15913945860905498 0.08824591692228673
Ni 5.18855397765306 4.490792369288512 2.714847017131249 0.23090511848813136 -0.17315659882375337 -0.7399398356689966
Ni 7.336041538969555 6.149040610463358 2.5898306777055553 -0.41938420660156805 -0.6174925902746526 -0.9227473273189528
Ni 5.097333411538676 4.811365687922914 11.632789563548604 0.44023353924675146 -0.5385000736298339 0.2191945149194225
Ni 5.843258100391692 8.129149904678435 12.364687922785441 -1.3728780710747581 -0.4898864263871886 -0.39518421231659684
Ni 1.8159140889196181 6.438808057431534 0.4438312657974869 0.8874746201595878 0.9466866117433695 -0.16360289369704725
Ni 2.3961472613718087 1.3169895550777828 0.4911908725651333 0.7056024958397075 0.9459183661187776 -0.9848443537600136
Ni 0.7956203546554625 -0.3180758393712641 4.464764717752088 -0.8080781832081309 0.652719788908063 -0.0888868929403953
Ni 8.709872778946925 2.2550677955162106 1.266996440764693 0.34238249513453295 0.5306751782687764 0.4964247417263386
Ni 6.56199526988782 0.9428573674234441 4.925089866206781 0.399539403961499 -0.6986026674831065 -0.17739686215734612
Ni 0.45841712508154836 7.168155432947528 2.427651411553871 1.1877139062671673 0.7610532206088441 -0.6640516689811143
Ni 7.6019949679820344 4.012843396578257 3.90457576612529 0.6206419345369119 -1.1995898317691471 -0.5862714274768419
Ni 7.6865138740548105 3.801310349040321 12.620772046489014 -1.0050789356393335 0.7599908407826008 -0.4500302136221992
Ni 7.713583502233697 8.815947633489122 6.962800789991928 1.0350495138594948 0.08443759891979007 -0.9158320882563581
Ni 7.015422877574386 0.6624622691061489 0.33817628522000953 -0.7810551176520677 0.5872857276739691 0.6171889429913049
Ni 1.9053481502597163 6.5694768254146485 9.49869171948709 -0.4105542670147639 -0.16100170862877436 -1.9406655808147997
Ni 0.2143878277559311 4.717578721549025 1.4044158389710448 -1.0061222893021833 0.06284598879194336 0.21490000130912665
Ni 6.10252800646687 2.1063979515079394 7.1209064625161576 0.9843962104790015 -0.2633511548319787 0.013684696575944174
Ni 3.7313101949656686 4.502481733014672 0.510506888652581 -0.4793608442655164 -0.4372160925766663 -0.11270713528844459
Ni 6.029870766611174 5.519800982172403 4.730604789862644 -0.6763839652942223 0.8456353155262984 0.5899028535818421
Ni 5.0086792456838 2.788761158315452 9.389960686019068 1.998447010599642 -0.5031993414460109 0.5460215788178596
P 0.261986844300436 5.5710745760496 12.542131375922287 -1.0106440884319368 -0.6801609158381512 -0.7938952068395295
P 3.9889024188924065 6.40681420543317 12.668726550277945 0.07973505123779817 -0.9038587179445658 0.102546649815675
P 2.0660066202152203 8.435068443032407 1.4592715109489656 0.33221326791101496 0.17910124644296252 0.28343044208035706
P 6.440603630757972 7.615643138973399 5.79798516747462 -1.102248123193179 -0.14626337397733521 -0.8047902564854785
P 4.511205680186562 1.0799103961227852 12.796317451660084 0.13351584450367976 0.42660257872687823 -0.9766929282974729
P 3.987206599639659 6.2354911181448776 8.175664322385353 -0.2729341705347235 -0.4843040472034047 0.5348645337597756
P 4.711584408575408 1.1649915524290924 3.710183189013121 0.5515936735889985 -0.7235361974999927 -0.09919238863146143
P 0.268709362011997 5.520880139878697 3.6783153898896934 1.2177495333973094 -1.882381757472242 -0.9771166460984527
Ni 1.6238965656165114 1.2065980697104117 2.7466749146252 -1.0015745220305008 -0.31413635580464605 -0.2771458946232259
Ni 2.0386014556066443 6.594315589763719 4.727260307828348 -0.48243768341862725 0.35768338715766135 0.36664239612316213
Ni 6.008858931270979 5.851655579686047 9.277832572914257 -0.5305021430260218 -0.6830459506954302 -0.47873349509416263
Ni 8.473872777698224 2.3579867939089074 9.990658860116582 0.11424979718521613 1.1642407628458915 0.5883285671161868
Ni 2.3379724993056223 5.1658735287165785 6.888128517847675 0.032336250238860435 0.7498676363056699 1.0437627253627766
Ni 0.666288291259808 8.949627160787275 8.946359761446285 0.004337193922773176 0.3872359040037976 1.0211411313085188
Ni 1.2486217403908024 1.1657261051535446 11.382412279715375 0.7491515840752517 0.4375760470192464 -0.07850837791954866
Ni 4.05124871494931 6.869845409850537 1.6311142262756662 0.6120999585041715 0.9954388414464083 -0.9966716854122448
Ni 5.7106849364562935 7.923194016715043 8.107243003240667 -0.7575248957406115 -0.6037042782413086 -0.4331077268352476
Ni 5.028648197526316 2.9573364743011625 4.91857320462911 0.7330431085491633 0.6576997586211577 0.37612333903040385
Ni 0.8948049232712526 7.65363130394538 7.042730101819702 0.40961967101563646 -0.13402646559151113 -1.138110641417743
Ni 5.08154506223903 4.461183546506579 7.339004234958179 0.39560175946998966 0.6256054491897741 -0.4482381547187829
Ni 8.08478654754238 7.297817591641579 9.009073333865414 0.13039863903093674 -0.6639665654664758 0.027493063213946196
Ni 4.621189080707015 0.5447170947973169 10.474423495323027 -0.40774559392137516 -1.5497740823362858 0.8210583975178827
Ni 8.248147446039697 6.991989738809144 4.648976938216478 -0.966777983176606 1.7919429466636945 1.1527538452522146
Ni 7.348302221481401 5.886642053895143 6.9094178508837745 -1.4415589213809237 1.6333878998032 0.06646635915335006
Ni 2.378508927432801 5.2285100184424005 2.4982092815859773 -0.8445983896213519 -0.46392908309147846 0.3578134849776225
Ni 2.3427516262906387 5.254300980767612 11.552635351627417 -0.3000677935267219 -0.13199812230757269 0.3675191423011606
Ni 1.004550727725278 3.230508470828011 3.9341075062139157 -0.4590681554547514 0.3855317768284973 -0.2641078304923452
Ni 3.4728292529278653 2.8226049949531764 2.862439517143657 0.3102277647788593 0.20502285140473075 -1.0719566712984891
Ni 1.0224248440202826 3.478569646441177 8.263689130720762 0.9843517303943111 -0.4833895058089352 -0.6328035096001102
Ni 3.6259517560436185 2.66561022006778 7.344286666587728 -0.6376906624890825 0.10398955290978865 -1.1957743146777986
Ni 4.337288986982302 6.739013407928655 6.012658654623393 -0.5661304337525926 -0.35231826619100615 -0.17227239644658718
Ni 0.6849613469995562 7.439350485104863 11.483643620552261 0.4976755834143042 -0.7435450365217517 0.5434941844103156
P 0.22542153516137597 5.818328650521084 7.878341864617903 1.048478899891523 -1.3216470408139238 0.9309386048804934
P 8.603734444539656 1.5503234019932892 7.962955083633078 0.06986252931909258 0.47061215153860886 0.883514092849943
P 1.8273404646333196 3.3730026308195913 10.28470303628046 0.1102195929799005 -0.4166907189298049 0.6841165580517896
P 4.019445302546173 6.1563226578428045 3.637514160039626 0.519921539296698 0.3092857125805641 1.4778744679825064
P 6.760469602324383 4.1175488997452385 10.332511536379714 0.7432249341781716 -1.1394424728552892 -0.163090472837003
P 6.320254875125804 7.8341861773261705 10.28053603656582 0.14612633417883863 -0.24436947152315333 -0.0760239209347981
P 2.4996013043415752 8.702400291972252 5.724666830166917 0.4545044473434689 -1.1706294399810548 1.0307701697578506
P 7.115467144934349 3.874547976233855 1.6407495629390056 -0.17106834883615699 0.4239453436096892 -0.0003679248623800115
Ni 5.503196463178922 2.687284059715198 0.5903754411809233 -0.6148453824597927 0.9334857967823793 -0.3207741728361379
Ni 1.5768398484907997 1.1147427049452672 7.185252374322959 0.40305898707898324 0.6878312878992154 -1.8660033161142184
Ni 7.0648555553643755 0.5400331876099147 9.068336322190047 -1.7990636168688758 1.322232995224381 0.36616365671453066
Ni 2.745730878345997 1.479597763746339 9.185574564433486 -1.0038214090831485 0.6486265926752959 2.012960373724469
Ni 6.508626840463111 1.9173277076547954 2.6263306932691086 0.7138662785103964 0.3427738170356806 0.37607885894571363
Ni 4.021023230620923 6.94898666449615 10.458748502925301 0.9472887641037429 1.0449066091592327 0.4630973312188024
Ni 8.06421907125772 7.285683868859886 0.188362896785153 0.3164986853892356 -1.175796328893975 -0.22763416104634343
Ni 7.830350179765142 4.032086864248475 8.20132107013869 -1.366833150432259 -0.9086132019104157 0.31064582615288433
Ni 3.1479755776769025 8.437018181745458 12.482045869917307 -0.43720580816402127 -0.4556920398936668 0.2144932527890112
Ni 0.09312768263231291 5.100743187148479 10.126120357912944 0.2805034982415492 -0.942450462174835 0.08098949247018955
Ni 8.663224146668133 1.9989265399340697 5.920785152753941 0.04237255142893993 1.626270572032128 -0.3058427483372862
Ni 3.597213514268444 2.7454769588856918 11.548003135187292 -0.2566832558934999 -0.022483011593864507 0.5890518184354565
Ni 0.9220903829913993 3.3516099162889392 12.465388753321335 1.2426748358840791 0.09221878552710569 0.10857203007414849
Ni 3.262647419660835 8.363798691656234 8.293208174836373 -0.8112763784304543 -0.7056282068713202 -0.6694777250926921
Ni 5.853396741699563 7.866624388380067 3.5073486967010434 -0.8096709816165476 0.1356359761704761 0.6312335940098289
Ni 3.258702599473962 8.447800690256246 3.545295146333117 0.3077445933456894 -0.04855656875246476 -0.1832954870299682
Ni 3.7147510187329553 4.51071597837026 9.704087170927382 -1.2640237338735005 1.262215219909852 -1.3169900016578866
Ni 7.333420727397127 6.072728744089709 11.279641098722783 0.08694776693615348 0.520363254819807 1.3418970493122115
Ni 0.2109644493178975 9.207754429291082 0.24051976764212324 1.8335701352861777 -0.19083010484411653 -0.06924726433259688
Ni 4.801689542774882 0.3221911483386274 1.585814087702132 -0.8063403745814177 0.22265753376735847 0.11183038911044611
Ni 6.255478207091702 5.510442236349753 0.42801026971008727 -0.8567496802719051 0.7828955132949161 0.2543273540668136
Ni 8.255574590253604 8.971790702250994 10.910924650414652 -1.3107213950403558 0.24091647997754637 1.4699184463602235
Ni 9.119154674749128 4.943231504790321 5.709588548500907 0.9425057408928026 -1.4822255458623508 0.9339416533728753
Ni 7.924173420347646 8.864373701990047 2.410502779431165 0.5573524304496464 0.6022186948347176 0.8545925247195862
P 8.508297001673787 1.4659858669635881 3.86587209238838 -0.02234211514062604 -0.2796177532024862 -1.7355283153193914
P 1.8698357000257047 3.262801585047448 1.4303101827908093 0.06678183351123983 -0.4240972958065212 -0.09898361505476502
P 4.7104508395561915 0.9201497128305008 8.372791067971873 0.798528848956799 0.15398285410877996 -1.5874394580975435
P 8.324549997934884 1.756279289956681 12.193694930795544 1.4512231839435652 -0.7125889544598695 0.9594449398503024
P 6.300376608804825 7.832807757398803 1.2681962102146316 0.05233326218607761 -1.5218333900619596 1.0535542575319017
P 1.8623360073945685 3.188421320282544 5.99431569418204 -0.615299953498708 -0.04873808863565155 1.1030811606174358
P 6.898511103208482 3.8747202787247756 6.031891240031025 -0.3320805989878926 -0.12064207386480515 0.02601493600652294
P 2.2194283855520465 8.58250496394777 10.400215533049042 1.4254969828220547 -0.3292187040590652 -0.3561013873825222
