# total energy = -340865.85509080515 ev
CRYSTAL
PRIMVEC
9.26069603797663 0.00000000000000 0.00000000000000

0.00000000000000 9.26069603797663 0.00000000000000

0.00000000000000 0.00000000000000 13.55396473708196

PRIMCOORD
 96 1
Ni 2.017979715401845 6.2706301688420965 10.179868089514832 -1.6443361712845872 -0.8926461370581981 -0.5320466046950063
Ni 7.601827417909909 5.37269457600111 13.065289778400528 0.09083733179854678 0.015868077380508157 0.7269213119221417
Ni 1.2559077916535968 3.783244301237079 5.179620179969436 -0.3271862470100688 -0.04257978234373957 0.07590590729969508
Ni 9.101022950735569 3.670032294239688 0.3798431842462088 -0.008093832751727996 -1.1801324943754836 -1.5712366230854358
Ni 6.448787435968134 1.4219335471913663 11.294247444412681 0.4780508672048412 0.3283771819943764 0.6688532041348159
Ni 5.633512814453014 2.164780266315763 8.947689904955723 1.6153809217028177 0.22420636631171711 0.42239728239627905
Ni 2.437887448185707 8.877997612124675 5.013814828993346 0.10916646912503782 0.6957492571947114 0.8547545042187473
Ni 9.33431840106508 0.279533178733379 11.860667720468939 -1.4503942602843665 2.0658376813394743 0.16460819503311006
Ni 7.80148802084355 3.7434233090007782 11.45333045625753 1.3177394782294014 -1.3501415487091908 -0.23258816261750911
Ni 0.9710950902053539 8.56540282306971 1.9121521872903204 -0.4312084529300057 -0.754928595768345 0.2793822401529124
Ni 1.2285609567527138 1.1079959572354101 3.432135204132916 0.26567646053104566 0.6404219453773163 1.1242408254141865
Ni 1.1522343014011802 9.16051366099743 7.952070639950329 0.2876002571873305 0.18863129742058482 -0.9998097168205944
Ni 7.542012583292637 4.6368859857370825 6.332209166022395 0.9277640638072538 1.8571700340933048 1.1072157516110994
Ni 3.254384481555523 1.048977542462864 1.8099965250908172 -1.2595299597682048 -0.7804835614193139 1.0727884231711653
Ni 1.3215013004930671 1.0843163578986141 0.17160439872919922 0.3829804711615533 0.50792065818108 0.3464060144716292
Ni 9.627234211398617 6.259313598490291 6.257852260682178 -1.7073451680169565 0.604170676354766 -0.8783829422709646
Ni 1.8108086881185204 0.9381547949996508 10.33987254059864 0.21900708149896475 -0.2493936642106221 0.7524140568766073
Ni 5.6878638385076306 3.873267525778727 7.507717448281313 -1.495803027436469 1.4584004184182948 0.10918086730274099
Ni 7.9201823597953345 3.9573361228766673 8.534443390710367 -0.367563879496167 -0.9352886543190732 1.7911592744201346
Ni 4.460414165259186 7.078885182888585 7.212281802601846 1.4822111476846471 2.9873207972340228 -1.0545528739997452
Ni 3.979904438709194 2.2394307357150245 6.690073940762926 0.43151132888240523 0.6614065180487835 1.0666892522519629
Ni 8.542464079402427 7.183929256129599 8.549353111059308 1.7587381777769517 0.39711639634230317 -1.062538977529015
Ni 7.3367029558789625 1.7093577648746414 0.38742213774532247 1.1440272640124942 1.8094506165301547 1.1656939503526504
Ni 8.049313502991378 0.3443478630502741 3.629521380161153 0.6718436542217074 2.0762424216125663 -0.4053413553552568
P 5.109450035231552 5.829432096255616 3.570032522038467 0.013009781996106628 0.7321576206204164 -1.475392067880285
P -0.271914404242029 1.6663325718676982 2.090115905872698 -0.6213852404608395 0.2548104643508193 -1.6359392054701436
P 7.477530357957436 9.200269828362648 13.063541359020476 0.03724680016660037 -2.592610439230051 -2.2506159235625565
P 1.7335374417883582 6.593782151187615 7.880559546450627 -0.42437651760983686 0.5430797225807164 0.02125942359940855
P 0.4667131418444934 0.4125408492201465 5.690930054909826 -0.7036068055659173 0.5547108790617415 -0.07583391641117908
P 3.633452545557504 9.305517636912779 6.806963370089861 -0.13921032378529574 -1.248668334463353 1.1205253242358122
P 3.5234540000266237 9.410070893272742 -0.48499838583765076 -1.1635223966226285 -2.785286596143971 1.480956706452256
P 7.878055454287675 2.0593009403689093 9.764113778828175 -1.3444067031079425 1.1927524971323393 0.7209105869516875
Ni 6.0639499584398235 6.599801603502405 1.4485256353789338 1.1547413079958886 0.5430897498830454 0.4885252843736038
Ni 7.9735054466085025 0.43125486343203434 7.0839656006422675 1.3008517013351273 -1.0067321549720403 -1.274924182836088
Ni 5.807271251041321 9.331169764469651 2.1298155829931167 0.30546711016542233 -0.6373407353488314 1.4346565378341358
Ni 7.726309691779761 5.999254737099638 4.301892351583992 -1.8373663691038162 0.8045465159057886 0.23313426492896622
Ni 3.3762552391903426 4.344044260970497 4.21440192736249 0.47429448548620257 1.5042748123529062 -0.9405884692654318
Ni 0.5329919421782627 3.7218921911055687 2.5456921348652433 0.7434087680542035 -1.3572509060604625 1.1541268143403414
Ni 7.1134924033506906 2.5458671620171662 3.327552313546173 3.308167475179309 0.6633554142450382 -1.2376866386408685
Ni 5.0195379390403305 2.770059348307542 3.1244596967235148 -2.4223386181532605 -0.6817431727236065 -0.17688984061394053
Ni 6.7074664536743205 5.914010031626346 8.318637690598873 -2.842794460552452 0.9122101752330549 -1.0916580063821586
Ni 7.902522212773328 5.043560184124276 1.891211901791547 -1.00788709451209 -0.35403781998527417 0.9900282119537982
Ni 0.5447761776714473 5.8054376332592765 3.472010834474844 1.630570484959063 0.03854906391779168 0.02398222184721031
Ni 2.2532013904720896 3.809072382015462 11.077153581505822 0.7912634256436373 -0.182127434863796 -0.7625115503219255
Ni 3.1383757444057223 7.9662265396555405 8.842795854987784 0.08535136898331108 0.8792907987972148 1.2658137358943877
Ni 5.41846093498525 5.836701742512708 5.649265258126024 1.2680444249971194 -0.5098358729259219 -0.5545884945512642
Ni 5.05870142186994 1.9025266200041782 0.9682992861225309 0.6907859996521651 1.5014003190185885 -2.323834513838075
Ni 0.5759939834455337 2.5157513790514794 9.039776412536964 -0.03734270231451633 -0.2746544956599399 -0.13687190546010622
Ni 0.2867833775291465 6.3442249189123014 0.9572420152550556 -0.5335589275744747 0.22273723796535835 0.16259733525066836
Ni 2.665709827256695 6.383212448520402 5.804336536520465 0.17351141106001086 -0.18235317772135692 -1.154466457067947
Ni 0.9077750822017004 5.28506061099364 12.37246563408162 -0.09558204557238377 0.2421876333804861 -0.13009319197537592
Ni 2.3864813254174027 5.544267488364355 1.6875497521729517 -1.1618388382726184 -1.0806166609663326 -0.028002141639880806
Ni 3.2569219122236035 2.035778772861885 4.601069318394497 -0.7289332001458478 -0.9853050954465159 -1.4438335763477135
Ni 8.723779243819763 2.5264474827800676 6.575258907310627 1.012863207570443 0.2046497843360282 -0.8445513384335003
Ni 8.38472664666733 0.13996337915390378 9.20327770238087 0.6199001712748808 -0.30524445263165495 2.3892418355992917
Ni 3.422660586189437 7.694138034331177 11.565638619338117 0.7167603122287397 -0.2527795499637195 -0.17403514477396476
P 1.808752813635623 2.5601008515676766 7.032637267719262 -0.8729666563513997 0.20116156867711163 0.2477471297461346
P 3.158489975832988 5.794371101695933 13.038859752390664 0.036776031177768925 -0.8842759107166318 -0.24884884745074562
P 4.341090098988316 0.22447185930561706 3.8766504579796393 0.3484865511497418 0.07838573629875532 -0.7681417520245094
P 1.1315459068300413 8.089495662366566 10.822786343796198 0.4775147921957131 0.44221534556347064 -0.1421033290623746
P 2.083860305813251 7.4022316398473516 3.594944719995414 -0.4454469651268909 -1.5108576077767464 -1.4957307794376369
P 4.3239022474556235 2.713819142295668 10.484940415315483 -0.4403322696081449 1.0270754945150826 0.02245010147340005
P 6.440545416644806 3.710408928228124 0.8763461325618029 0.25194034189187575 0.7043953629054837 0.029931240341793612
P 8.341988535232323 3.9375552765006816 4.610150356763548 0.9780653831649672 -1.1259660356354093 -1.9644423715194235
Ni 4.45529300044368 0.27400454329964136 10.608349374534129 -1.1145752772999642 0.25413580688129783 2.824332140082207
Ni 4.6047421103761055 4.707832176788782 1.7847722416830876 0.06985790133340228 -0.4287368514610616 0.4016957881828695
Ni 0.8133974784624928 4.514830014184885 7.658721429050128 0.7347050696326185 -0.057403477620133404 0.7369930943358469
Ni 5.925252516411199 3.3517792200088206 5.226164437406564 -0.5994048795350064 -0.06508439120415889 -0.39166848585385455
Ni 5.446604189730859 8.499688925183944 13.518507308155261 -0.02832250109377703 0.3825341276527541 -0.5905816248164216
Ni 6.27848323893893 0.9113274851370133 4.816659244292246 -1.4493809885285038 0.659927876620728 0.030895661137591957
Ni 2.8195855498144584 3.3159958911713634 8.929893625704445 0.8636003846451514 0.6772727956570788 -1.1015325851833933
Ni 9.201251462124752 7.862006668346859 4.402232917393189 1.3338862631925932 0.15200850399122853 0.7155945740554128
Ni 3.7638709254793254 1.9316422478160225 12.325663929299337 -0.32966119091312257 2.5304200817442357 -0.19389614536394995
Ni 6.963422826795049 8.233342051298303 11.029281340281093 0.01575623439299222 -0.12220967546224115 0.27484218619071377
Ni 5.84940741724485 9.094345989014087 6.928109015238145 -2.0231712528191994 -2.697700681403186 -1.566340214225083
Ni 5.915871431495996 9.204344534544967 9.107138714287396 1.6185037836025158 -2.1398083192896697 -0.09294409372890444
Ni 3.677987231991079 5.587903887298646 8.46934347696071 -0.4971081409466084 -2.253238448787068 1.0863160253439548
Ni 5.850972474846694 4.368196155796607 10.255471484519004 0.823854215095465 -1.0925296103538347 -0.8458142643063239
Ni 2.350623911012994 3.550597099618391 -0.036142643837171286 0.11967353930394872 0.3619460190887573 1.3401692679878272
Ni 3.514989724002443 1.1058382150979547 8.80386944597242 -0.8003990693963183 -0.5079893066354865 -1.9053918452141705
Ni 3.8171847515966246 7.223583555840261 2.0317392573238675 0.3055794673735705 1.3920009079471383 0.8213211642609661
Ni 8.956111581778908 7.311652773553569 12.356214038901273 -0.8934748036070805 -0.04703576123256415 0.2367451222086761
Ni 4.02215173326315 5.3515431466365255 10.924210411022058 -0.08868583267318275 0.8945675224506271 0.5166482678620651
Ni 5.79397289177357 6.467234742138998 12.380245544681088 -1.12116835713645 -0.033022734782923766 -0.9225760918484112
Ni 7.648047550991625 5.954006977084156 10.353737654453566 0.09972974919217019 0.31027018798102046 2.1151311282579637
Ni 2.1296729682767355 7.641935491718146 13.494706393702582 -0.6118875853830494 0.4837414898317153 0.7479459938029248
Ni 5.989392095999252 7.85640394734617 4.226803851270131 0.09108338637108183 -0.13961887207762405 0.0038283726071546968
Ni 4.770962340527122 4.1751384290174975 13.015818214999237 0.3837960250843132 -0.01469539722864566 -0.8463289991592134
P 0.18784951142243636 4.895861345711074 9.984067344619351 0.6332927905317028 -0.4590221327081643 -0.07029087510576282
P 6.232865051088692 1.8476940397643782 6.794479952058573 1.5115865155229709 1.5125964448447238 -0.13826775736636832
P 5.183304084786087 7.137533169826375 9.881680165023127 -0.040037732648176214 -0.226849460361519 0.5091630152286135
P 2.706521713950969 3.2306956215228584 2.2974508474729025 0.3515392219331365 -0.2017287540344913 -0.17625992033942547
P 0.8448551362595839 2.6519576938913674 11.990433221332001 -1.4045882576938455 -1.6447354636055351 1.5642517071271704
P 3.8180645177041708 4.566310222520141 6.3331982083411935 0.040047759950505225 -0.7272802379234572 1.2354852601141755
P 7.235353900289642 7.134699396890489 6.452703784251095 0.04678764977750007 -0.07711098335138977 -0.1020116032478114
P 7.701546591026302 7.87996315763667 2.586556807525971 -0.12861326499573977 -2.2976665971934556 -0.6638704062082438
