# total energy = -381165.2915480789 ev
CRYSTAL
PRIMVEC
9.30513200220064 0.00000000000000 0.00000000000000

0.00000000000000 9.30513200220064 0.00000000000000

0.00000000000000 0.00000000000000 13.61900126237703

PRIMCOORD
 96 1
Ni 5.501547596432367 1.4195350975853096 8.575421629886138 0.03397687116607697 -1.1068010326711843 0.3312452475707908
Ni 3.9122217563844592 6.22218353932796 13.169355962271851 0.8003080523444088 -1.1131819964968632 -0.8130604669140707
Ni 2.0985212699288893 0.2215952034979472 4.6655698906061485 0.2179606425123214 0.0012158746849720997 -0.11638381280908344
Ni 7.408652997276031 0.1898377187086339 13.258847138167056 0.021640718198227247 -0.2181673592064888 -0.22457531961536162
Ni 5.324452325398873 5.815484137737958 8.794987384108529 0.4753836047853232 0.4099523717647069 1.0007466268125669
Ni 6.980747200000587 9.197527391722492 3.2214794803511086 1.128740770167069 0.739016809634095 -0.5164772895018396
Ni 6.057901434972331 3.2022122741614307 5.498018159888493 0.1175094417730944 -1.4088794288700317 0.9037679580029725
Ni 2.542869235337802 2.7872592205429134 11.284799687652201 -1.1361206075709078 -0.299862105273819 0.2869443687708864
Ni 2.993051518471494 2.1632663779496464 8.868652391604522 -0.6136793871761496 -0.4746405559717116 -0.5291777677876435
Ni 9.030611935028565 2.583113930967261 6.459546288893911 0.8121356411069561 -0.10113974216581936 0.2270060405440413
Ni 3.4395675796218326 4.20986501166758 3.573503787703059 0.8941862278518083 0.014608493941794198 -0.9060876072750847
Ni 3.268948680416802 3.711742688792161 6.082136651103411 0.3303505036706633 2.8126811861068397 1.990331580581359
Ni 1.4973073903184928 8.704290263114231 2.1721899994776583 1.2401099033703804 -1.7806375489532045 0.6916262361652733
Ni 5.54895724365366 1.3436145261076784 12.27780149492284 -0.9509114484579946 0.5118876132486282 -0.5981998034833117
Ni 3.7902035612887155 7.816552760885964 11.361624717954152 0.829986810355764 0.1771070988310692 0.3559905728362708
Ni 1.7297309758520472 6.958554460329776 11.007557934141934 -1.4878835154790764 -0.599498210579761 0.4136064235775264
Ni 8.415859088449183 4.203779455380491 8.141098083113437 -0.03445329658186324 1.2558214005683663 -0.8014887029160713
Ni 8.045859127220474 1.9505510618596051 1.1426162321532705 1.2440724875625544 -0.17281541343425078 1.2096991522890068
Ni 0.07025839869369456 0.8670968585646234 11.441826580636203 -0.01549321053959267 1.728960432293887 -0.6174825629723236
Ni 5.79098372534666 7.595714064614532 13.647192167010441 -0.4716179670953039 0.3711264000364447 -0.3869451122362562
Ni 1.2717323818908994 2.5672300707500386 4.604992551180173 -0.09876918505111376 -0.4345508870396774 -0.8882572639618832
Ni 5.98011983710721 8.098730886889047 6.544883653892239 0.046158757944249534 -1.1909038739593747 0.5071153886709653
Ni 2.044821353517882 1.6016086142053376 6.620890763096888 -0.6021785856254017 -0.32334244778394633 1.111805427864311
Ni 5.5973439297283845 2.1358441541299897 0.9224977530937961 0.9394461281308724 -0.5595468669978041 0.2957046314620198
P 8.038629039705077 1.0956699805024623 4.868643228982607 0.21867309519831374 0.04765925374917599 0.050710124760357835
Ni 5.6737576731987005 7.48618335657884 4.100981010301544 0.34368450177540805 -0.6176748814887878 0.4890659873684222
P 4.740862365678001 5.584028285925898 4.7785807179864435 -0.8475993812312048 0.34526804421244406 0.28389092665654336
Ni 3.3842113497259594 8.947824176181099 0.9038204922689523 1.8864235316417832 0.2019868927918844 0.030927542816791897
P 3.3856908657040137 2.332656999738934 4.718602629057241 0.6802447338012091 -3.5987489264821506 -3.4160995576766133
P 0.9396880538350361 2.8451557514577095 9.038168632674966 -0.5538973820215106 1.190114802399176 0.26098265459980213
P 1.0972332426679532 0.9969983614377729 0.57024081744341 -0.3327994794317881 -0.20645726985841217 0.7624578142658546
Ni 0.09096045622812694 6.391229871235561 12.9735555150177 0.39485176867784255 -3.450609932748657 -0.8457152768346144
Ni 8.890830243064235 8.22997977286674 10.05112250384588 0.48148766080053207 0.30088283322884957 1.1349900935108903
Ni 6.084607163632803 8.50007053248308 11.325915343631005 -1.5266534371584224 -0.08616358047196129 -1.1329085283915132
Ni 8.497204551846346 6.290585564200134 4.1498189952752345 -0.219929336202918 -2.8121466537596085 -4.006766800228306
Ni 3.4468534979288536 2.309533746874378 13.77344047508495 -0.7557847731210532 0.9613074469803379 -0.15268033324727254
Ni 3.512678001254354 5.297002186183404 10.816183938150425 0.9991368591232856 -0.0013169190392106353 -0.9912330308951768
Ni 2.3576226687271045 1.7243619147241402 2.449595523310026 0.11016020049687479 0.17587194087238744 -0.40479936680885775
Ni 7.218437490210737 1.3247809390662855 6.936197950336865 -0.8416274799184861 -0.17980855692263228 -0.2875928009881628
Ni 6.1704377006238165 3.591250535334158 8.470419729564405 -0.33187105408024775 -0.32403664563749357 -1.0406159522036786
Ni 2.16135882590247 -0.17656208697347808 10.149287923733173 -2.1189391891501446 0.3616243740832804 2.4211867639370044
Ni 7.7335416788719975 6.178449419221958 10.032246113197575 -0.09121811217673323 -0.6860063188753347 -0.7676131332145489
Ni 4.270869456649484 0.5658990428813973 3.1589685345085328 -0.06939741675721597 -0.9311489211190866 -0.0034684181645746716
Ni 8.576679683724082 8.557241263106755 1.5228630046714977 -0.652155945984793 -0.6533507376238425 -1.3201244335218105
Ni 0.06302831117829814 0.8556552683343384 2.9085283525176933 -1.0559757224892006 2.979831687945829 1.9405539949375996
Ni 1.9834353981265433 4.876010101937483 12.525735804882926 -0.5750475337365645 0.022688956957083506 -0.5129322524630586
Ni 8.107673118680934 2.5405708677492527 9.76705729708588 -0.7880122656961913 -0.7029401185161959 0.34263420613402285
Ni 9.08895511227636 3.9904593057145146 11.357811474886187 -0.05347354643810791 0.59976791930138 0.8530611756767245
Ni 4.417602082171087 1.601655139865025 6.399323474994754 -0.15581579355246067 -0.32190185868267784 2.204409343099507
Ni 6.586228216116704 4.176254875109522 10.698311179332814 0.909453438423524 0.5130793195638841 0.1185833915635635
Ni 0.01120617039226758 8.309380463688976 4.4392634988082715 0.7242789892032881 1.5510416361947996 -2.371573471785251
Ni 7.409592815601713 8.721653639309508 8.23843348523191 0.07825975224385232 -0.6598913669558378 0.8696406773019605
Ni 8.914735127011538 6.205434301840555 1.5309259014952954 1.0609927160878179 -0.6751971440749727 1.3572082257479852
Ni 6.743010384130751 6.894907357877638 2.0698298261129646 0.2797781900397504 0.6114972919231663 1.0997040166150867
Ni 0.7498298638361397 3.437371568484595 2.286412355036209 -1.540149157652012 -0.06326276461438782 0.2589327140493089
Ni 7.557553718539061 7.116276446669505 12.096737585118026 0.3359889329033633 -0.41040591436235774 0.884064308926458
P 2.74214794091017 6.688826600858996 9.023609823245637 0.14786928501187438 0.5242967855462584 0.004193983476689551
Ni 0.5971847574814819 6.848446834113965 8.221395788654444 -0.042370751656727025 1.8568687008028022 -0.6446544954014253
P 7.575614979629645 6.479433216870623 7.925168774452203 -1.1776907177032105 0.280682961242207 0.21936960704470607
Ni 0.7920751628321496 2.9272921510695555 13.237124307659084 -0.005584693176629091 -0.47089394444508575 0.7535972785514311
P 1.4915382085172755 6.589336130183812 3.05828328489258 0.026569265848096175 0.48012831855916016 -0.6221897386400059
P 3.919321572052732 4.041442123599787 8.399710031971743 0.7707753329926145 0.7195173061485867 -0.6248780841054464
P 4.430396638585077 3.9822428742137492 1.4480534659471975 -0.1629673169955774 -0.5093687034815162 0.2922282428776451
Ni 0.024028642202069725 0.8903969089359911 8.66830359585935 1.0708330992170074 -0.32193219769998105 -0.38738271399430707
Ni 4.807059074281001 8.333248127108527 9.13392402339046 0.34304558263982854 -1.052535329349084 -1.3580379207381321
Ni 4.089428689001203 6.47339418624322 1.9330127491839046 -0.06698366510940076 -0.19760676144631775 0.6406595153094192
Ni 7.516006304438358 2.6637801197329902 12.682095519907012 -0.11302055276380536 0.20577387063814237 -1.1022674064668887
Ni 2.7220674661891593 9.066250590348988 8.151149486632269 -0.3617488154762867 -0.264551345787667 -1.9053741046023571
Ni 5.660414114000402 0.4776603377449735 5.049966751968476 1.2196614057080413 0.26252505938625753 -0.45866372092748103
Ni 8.368672764394388 3.319391800649703 4.186563100269826 -0.462966462067893 -0.4311464893438188 -1.3112626122558063e-05
Ni 8.504778929243429 7.0446176256192246 6.054354318677776 -1.9056091034312985 0.19325825466963492 4.349761732135858
Ni 4.216788029829042 0.7525832523764303 10.415321645824784 -0.24117847538968146 0.3769967427742927 1.3360225928093055
Ni 3.6962310338524365 8.376926416422904 6.298065959764648 0.3061386823111502 0.6572518724504617 0.437173412264189
Ni 1.348704433277462 4.895941694547496 4.3943345997615015 -0.7184251015256724 0.3422912209723073 0.22219447808801088
Ni 4.011693616795769 5.887589605121236 6.8532994604193425 -1.0522681917306265 0.8040626342908346 -0.13898355248647032
Ni 3.4046826399883434 7.551691485418468 4.307390238477577 -1.4442105000711578 -1.4327786040851325 -1.784031919346734
Ni 0.5487133947061261 8.456196835398016 12.761494349702861 0.24115225013743627 1.4205928606522178 0.6027396003351942
Ni 2.48426551439576 0.5532449939596629 12.582922354230895 -0.012238965268353117 -0.18424525253774718 -1.5675794859488228
Ni 0.6460227424551732 5.15376829027028 9.642920323447981 1.3963478720619242 -0.9517282879323352 1.109391933326812
Ni 6.569069552824051 4.894815773583064 3.9027286607818756 -1.1744256737986936 0.9421290742796742 0.10233299114297215
Ni 5.419029686411086 4.01107017295596 12.656655289190033 -1.7846631251728295 -1.2509627869244841 -1.0830661509480894
Ni 6.367771633621257 5.277126424365017 6.30475355808809 1.1176377182753718 1.4543157068259598 1.1650902553303806
Ni 0.1897939845885279 9.150648137021633 6.505225181574839 0.2578461658533495 0.9500627273044541 0.810461852948959
Ni 1.591894056462643 4.733567142239043 7.447510297733616 -0.07857471238110984 -0.5138221112671796 -0.25212443287822384
Ni 2.37557226823444 4.5171204682420845 1.1665899740769092 0.4920870335829331 0.9064426766216583 -0.049053820103857455
Ni 4.599619767999491 3.05229729351722 10.380742845032039 0.6774882541019945 0.34567710672540464 -0.23300288155742452
Ni 1.4592400955623963 6.794653866383582 5.929086771509475 1.2615346489030597 0.6118672736680753 -0.15694090829583937
Ni 2.007424028261282 7.037648081798077 0.4027140135811932 -0.23565008937228446 -0.16833732305823912 0.9351253892683314
P 5.563603521323201 8.991381498780289 1.6094658676133178 -0.13016158331946617 0.45253755342508517 -0.31423919993109756
Ni 7.5745169740610265 4.194883749248291 2.102024652103338 1.1492111222062789 -0.7492675408278258 -1.4632428341122605
P 8.007000896249693 4.645317270944294 -0.20518281178667797 0.5769372945601096 0.04228976190714652 0.2928712757782827
Ni 5.774755575247752 2.444532601022861 3.337363732473688 0.16721632207991846 0.5227176139845966 -0.5399180370232831
P 7.300639025746145 0.763194824837895 10.832798251224737 0.7251575351534995 1.1330005738846876 -0.1465744774598508
P 5.704697236890713 6.135673727705514 11.413254242509078 -0.9798816104380995 -0.05804728185171939 0.06194610268549332
P 8.92915808151458 4.753284716814493 5.900786143234924 0.19112783859019342 0.044207033534517416 -0.2197151633095829
Ni 6.0237609058938375 5.202061925025631 0.7240723281200923 0.2980569337442803 1.3077664261770896 0.680440394751783
