# total energy = -340865.24906158523 ev
CRYSTAL
PRIMVEC
9.33538519452683 0.00000000000000 0.00000000000000
0.00000000000000 9.33538519452683 0.00000000000000
0.00000000000000 0.00000000000000 13.66327986738515
PRIMCOORD
 96 1
Ni 6.616435446880523 5.167312968956328 2.7933759084683145 -2.3907688137667793 0.3958776388391956 0.9356419238934338
Ni 3.2406015298964976 5.762593128767408 4.144523520833789 1.2465289195228468 0.2621831026658065 0.8021255651691219
Ni 5.06848858336275 7.528138481214022 12.730938049164951 -0.12770103759411555 -0.4068765610528606 -1.0087083048618048
Ni 3.8884025657088497 0.9066712618193351 6.395139211953796 -1.333866465698251 1.4980537711438588 0.16192370622241145
Ni 1.933946362433629 8.606870223939763 1.908610127547839 -1.8389630241669748 1.5091848480600136 0.12496564094082349
Ni 4.765686035553068 3.800173842088511 8.066595086078044 0.17456247803234454 -0.36367405752345755 -0.6109126230642897
Ni 8.13714165697282 7.028760731492005 12.718176577872073 0.3134897233595827 -2.1326477969854887 0.22923210166108265
Ni 0.7276269793955875 0.8460388697929107 10.331393094087694 -0.17417218457246134 0.27290820239279445 0.49757762438385916
Ni 8.577090345794714 2.452041559077535 7.076226496516617 -0.652196055194109 0.6017679804505442 0.08859070185621518
Ni 8.459212439419302 9.305670467998642 7.148150036698666 -2.728644165059578 -1.1414921562954665 -1.1540702500707931
Ni 0.22447119936469878 3.2602058383932397 9.108693844531373 -0.04022182363452428 0.2043541074724803 1.5759587111514537
Ni 7.2764284955008485 4.610830669198801 6.561871988641589 0.6896287461192704 0.7870362749361671 1.0032429108718592
Ni 2.8203224972663365 0.46128844538984604 4.0594426890349276 -0.4662266208764035 0.6616849685211508 0.13925506098030208
Ni 8.264560326816648 3.879870023820268 2.245614725376338 0.4103202966270869 -1.7633677061291633 -0.3111317646503674
Ni 1.1704332295655047 8.252181606308705 8.852616765715927 -0.41564633682569063 0.19036267828939474 0.48249759012228516
Ni 6.135653784075416 7.273478513841339 4.089870442898871 -0.7482853794202146 0.5004372053198414 -0.07802835295933659
Ni 8.186180434369671 7.986291170782888 5.1258890651027125 0.09418259412169587 1.500105768576881 0.1678758100407883
Ni 3.9216925486133176 7.863297473428327 5.443723449836897 -0.5245891199756966 0.5588102459420956 -1.1970002166650997
Ni 4.479761863820581 6.469963256254862 7.158902533139878 0.18867114951958475 -1.2513445957439353 1.2520773601449018
Ni 7.746558484022726 0.7598471271792334 9.475784521132875 0.8696267933448895 -0.7785097255223947 -1.2472825098594196
Ni 4.094061097224675 1.088589909284105 1.645646335219037 -0.16429503466806544 -1.1062878404801915 1.4695592632485917
Ni 6.52600357240055 2.0626626507922396 10.897380682850642 -1.722832207908962 -1.4933602223229312 -0.9414194498071593
Ni 4.270266489070394 3.3496481620633767 12.75587379603431 0.8535969935755364 -0.12917505103648078 0.2746339268346496
Ni 1.9792416504461021 2.930825449492974 7.609230303003046 -0.15246564613330515 -0.4316733083815662 -1.280376207089595
P 5.504227013550342 5.39658068913323 9.53231027729848 -1.2711981401347525 -0.36946701005615074 -1.6764070836772031
P 0.47330868711384855 0.9889626805806604 8.122246116669295 2.3970921848816458 2.0822235788966657 1.5823481596175653
P 9.045343921931902 8.037299714414413 10.750282087891586 -0.7067049848752668 0.4829040815320845 -0.47826786831165374
P 4.30904567835395 5.736033958446822 2.200252222591876 1.4180109588576548 0.510057759128741 -0.1568555476708847
P 8.684811353291813 2.682000097744322 11.186522761792094 0.19812920960869104 -0.18639160945678868 -0.1093184213218698
P 6.665660931977342 7.002257573481409 6.530924253833232 -0.3820011379674195 0.12987979041298925 -0.5432694699940193
P 2.500688250304451 3.9766312893291884 9.439440933795412 0.6007583082391073 -1.399642740763112 1.6946686009905525
P 8.16302867957352 4.892563253066984 14.015928588661922 -0.08676419017043767 -0.3951423033350679 -1.4430763864667149
Ni 1.6221258327154453 7.083727478362871 10.843806775421545 -1.1430237624486443 -2.050307704024675 0.8101970293233466
Ni 6.31646152072537 7.156982244445698 1.601746687263832 0.021838178921014004 0.8031954011945328 -1.2368374032666956
Ni 0.6906896615722256 1.1330636834167145 5.6574720259923765 1.629536901488226 1.2979005891266033 1.602518721028169
Ni 1.4688574818109146 8.394247495215097 6.563115461923383 0.9810270368964525 -0.30940732576009294 -0.5812904293224828
Ni 3.4272718883254774 1.6987600081677108 8.945677484611464 1.1890130846945652 -1.3074794910642902 0.8886357303472244
Ni 7.115710507367556 3.9906437022118597 9.081968504357816 -0.9122281729551839 -1.7359913709987391 -0.01911718044542514
Ni 8.391922984350483 5.424045391798666 10.486389424755439 2.8168713129287872 -0.10223631766410779 1.4378166807296722
Ni 5.255074923326744 8.691775550500656 7.555137348168035 1.3441771035956398 0.4156321957583035 -0.10138759651056733
Ni 2.8660098714487443 0.2745714100358735 12.98773955385628 -0.12323554562359419 -0.7619217392567265 -0.2756006616232931
Ni 5.441726610985729 5.309360187092724 5.168763687785088 0.07415498604685938 -0.4497173103674706 0.12422850566448283
Ni 3.6090411696302724 6.3231829979242535 9.665759605851305 0.08083908293525434 -0.19720926889758295 0.3237571667238618
Ni 6.5415376530379685 6.11113906306949 11.06601321038562 -2.5679705291941834 1.4899856494237433 2.3915386020532683
Ni 4.424627080019744 3.4644360560043017 10.42192579072565 0.17427271470606762 0.28955043893516585 0.18566270171056412
Ni 8.904108882290371 1.5309471274355968 2.0220014478929964 -0.4003721842754395 1.0970344402027234 -1.95619015881296
Ni 1.0479249722308626 4.062992935949837 1.44746077939447 -0.2844596546758198 0.5981514667438795 0.36440810747600466
Ni 7.610877998455273 7.261883965673266 8.948519175804991 -1.2881890182657945 0.9131519703210338 1.4672658392287246
Ni 0.20016279036723822 9.601536824754477 3.7553658611729572 -0.5866619780470412 -1.4037148539499569 -1.3375503423077415
Ni 6.790745755571556 3.878936485320423 11.987929155907421 1.075037367106342 1.6567815961367918 1.3493023406373472
Ni 4.395780740374537 3.461000634324873 1.4648675382625775 1.0198182987320372 0.3312149085534876 1.499281730013689
Ni 9.248341868723168 6.413194780079295 1.4076182897595908 -1.4319987884963143 0.7386375719178053 1.3678852458458572
Ni 6.4035606627608965 2.4770977324133714 6.059008406161152 -1.2023555674397421 0.24359248414781273 -0.38591435697889664
Ni 1.149092539459051 6.021444684004393 13.27808403038553 0.8482272446231908 -0.33156946367942897 -0.5218920327595076
Ni 0.5763984101132177 2.778808040178235 3.7244321294420972 -0.6034237708864124 -0.7352614563567209 -0.2754507663089902
Ni 2.220477334191015 3.171547687062972 5.184996055220391 2.7160624717398254 -0.4752241963893235 0.07293062672145505
P 4.18604264561439 1.255721306911332 11.259088576462036 -0.6945644928579909 0.7920036462437715 -0.7981632380872641
P 2.8355391748138077 4.590843609917123 0.44435592407965974 -0.029487982156787922 0.6012658440031451 -1.3820916192532262
P 7.8960273332328885 1.0651300867830034 5.136136517215509 -0.1867245673161752 -0.5413730243022548 -0.06977691158382177
P 7.7804365961820965 3.8133834118613157 4.35051159144006 -0.7775489042710221 -1.959027885372071 1.2216941198673539
P 2.9274553755085337 7.236108967692549 12.599333392687823 -0.29272472289808943 0.8393422834287352 0.20018532080677137
P 6.004631655622188 1.812567686683799 8.689545327024526 -0.6967350181467485 0.4779397955482736 -0.5457382432494858
P 6.440519451969755 2.321196802939278 1.6312586398594275 0.08557711184087197 -0.4967145050526155 0.18856033497333333
P 1.79727632605634 6.080490994119582 5.941600069651162 0.2906866094221381 0.5787920883806612 -0.006357309676595503
Ni 5.844371101353818 0.20835925839587618 5.398471104595416 1.0689700778663396 -0.7307517414118254 -1.4633171389936217
Ni 6.952322599124706 0.018823870310871967 2.828913852080409 -0.9837997145455831 0.958480519054504 1.038212742078825
Ni 3.0857554989272287 8.763732698068697 10.548652708541091 1.2049750073404604 1.2956668147000783 -0.6041549926254821
Ni 2.3989232184363622 2.429608628926263 0.5086197808704808 0.7963948333329316 -0.34519939575803776 0.012855001585797216
Ni 8.39020527351077 5.697796221493176 4.600918357407449 -0.08561130751291707 2.3164405353668496 -0.6281654966074666
Ni 7.447686133297391 1.3467039691062133 12.914217795762497 -0.04909855729886383 -0.8140760526627786 0.8745885082255388
Ni 1.8078719880295793 5.64481791162698 8.52643281263913 -2.464683658778375 0.9243720074065693 -2.0940162006562195
Ni 8.455935719284845 8.877176296569846 1.0680529958260176 0.6226461094511341 -1.6276725945859776 -0.7388345184199598
Ni 5.2113293092240145 2.162644624125625 3.6710365278664705 -0.43513915544297965 -0.2148699194021396 0.021085359915389495
Ni 8.9153673565985 7.068706843900366 7.230730852394943 1.334319751185586 -2.6954039149492095 -1.6743687130909357
Ni 3.911152898950069 7.989353177062379 1.0595727320934267 0.8824319155293577 -0.6594856468769869 0.5941166345528736
Ni 2.156483270026649 6.286485599495351 1.984195005726279 0.9692979213849823 -0.2907598858622347 -0.15557488118624818
Ni 1.1526679919134568 4.982612376762021 3.7790852073770154 -0.8431426310114318 0.6099854832643301 -0.07831785917529738
Ni 0.9729244891533256 4.4924113104934795 11.380022887885941 -3.289521320833031 -1.7606690762510775 -1.3490894532955926
Ni 0.44025302237284153 4.372236899408449 6.065417147962587 -0.39184820596482844 0.22980417211446874 0.9714072544185011
Ni 2.23434971629871 2.486517135876806 11.655118946558726 0.23198035383018112 -0.5513296212943344 -0.5799485705826076
Ni 1.4749348174449046 7.641955495115108 4.355293175636265 -0.1842714777899923 -0.7976883553333747 -0.9612904776994735
Ni 5.30276006989882 7.843497121846617 9.666264650179722 -0.3856526186770778 -0.27132208885259723 0.41504675556847875
Ni 6.908446289631998 8.486854514399708 11.141926694116004 0.7285045972488615 1.1490483713761694 0.2117848527189127
Ni 9.270018632689567 2.711723963579383 13.364244966228712 0.6249271921758269 1.28474913934631 -0.2721849510735248
Ni 2.865440412963839 5.086151131779816 11.819337704066436 3.947844571970801 1.1023411971276176 0.9132548144474852
Ni 5.0519462811455 0.995964219329497 13.160675693875541 1.5538557086048272 -0.10681982326973216 0.3404644521762137
Ni 0.6483583582967599 8.382391556267068 12.835817365468525 1.219262627607726 0.4965029032624417 -0.4490549941931234
Ni 6.009896812761314 5.000984414438968 0.27485893989382565 -0.45936280387703465 0.522770321599403 0.1859270111155443
P 8.209322853780826 7.419334569057101 2.9895664925187124 -0.44721639832248783 0.640037051234072 0.497387362749924
P 6.81618467969233 8.529227826907666 13.32474415168478 -0.4972030146532599 1.7646789687414188 1.32918114440744
P 2.828612319144959 2.5089687367980757 3.0924788432031116 0.1557054932268415 -0.237532651106978 -0.41093504739295034
P 4.6178508787176344 8.850729150869242 3.391485623472424 0.983087776080223 0.10071576725452332 -0.3429316827697836
P 3.155500160250639 8.7715464153124 8.000479088903532 0.4355333055576048 0.27548264798819005 0.5154331645080413
P 4.3354088055895685 3.5644833770326767 5.946273363381386 -0.26119142817649854 -0.5173373235092897 -0.6534466397717585
P 1.0189666079656745 0.8992225581290728 0.24159509606735324 -1.8724531855046205 -1.0059564531482803 1.0851651995689635
P 8.69680732301482 5.295767866534982 8.5025491636591 1.2379666317751326 -0.14999738709847069 -2.798839138017425
