# total energy = -381172.02955367137 ev
CRYSTAL
PRIMVEC
9.17894310636745 0.00000000000000 0.00000000000000

0.00000000000000 9.17894310636745 0.00000000000000

0.00000000000000 0.00000000000000 13.43431105795641

PRIMCOORD
 96 1
Ni 7.235090926332131 7.899141578067605 1.3424057686816004 -1.6582944332368923 0.5207417212051484 -0.17196360695691676
Ni 5.107889178617806 0.9432557484870078 1.0851833231961021 1.4135837763242363 -1.0200862076814432 -0.5126568873144849
Ni 1.8380925711615252 3.385497187525749 0.8529982813008844 0.9317924682403567 0.30798139194684376 -1.063284597445788
Ni 3.3713799727580502 7.144311177273261 4.464745405995718 2.45507338938212 -1.55896731879978 -2.226204584597727
Ni 0.7686428746450799 3.1065582801293936 4.804325002184531 -0.061188398583862366 -1.2057021153144718 -0.25258568878535853
Ni 4.575225921020718 3.370113278585136 6.65471276787228 2.338522197757237 -0.059070838020227306 -1.2278285148998662
Ni 1.033549013551931 3.340768196912618 11.597827981952122 -1.160284606411621 1.1575985749390256 0.06499903057920418
Ni 7.269622110958973 0.277390419664684 6.420499179511743 -2.4004081366287564 0.6892695630076388 0.6581314468419376
Ni 8.757235090784322 5.0641331559925655 5.09691024455822 -0.19197244597867583 0.705205774621921 0.5107321594879463
Ni 0.16166138487104192 2.5068887365737877 2.2894615996873515 -0.7246114328420424 -0.882184575405242 0.11823963507089959
Ni 1.9540409826996066 7.485097804503657 13.383878698387758 0.3666832766634266 -0.5355304494785487 -0.5183670503253847
Ni 1.004176395049567 6.336307158046357 10.93092176096162 1.6898647518440058 0.6874661912503128 -1.4582286687271209
Ni 5.291284465391942 6.114901867141508 2.3888493617560695 -0.267510685526307 0.148604363405686 -0.13590979865715302
Ni 1.460259728845023 0.48210104852825303 8.471139361311 -0.884662090411457 0.3540231646972548 0.43575724864295273
Ni 3.6598741601109563 4.731378104133911 4.841846686532645 -1.0606785272815087 1.425863622132854 -0.4330221090999768
Ni 8.706402102888667 4.2494835818295025 7.376740379059781 -1.3878141235593002 -0.20400340900128094 -1.7023027204970425
Ni 2.8656293768637533 8.507411791478434 6.041571289261699 -0.574962687332242 1.10109446920471 0.5310186776511242
Ni 1.258295439811425 7.941263748788651 4.359985208424051 -2.0837672692347016 1.2491355039077583 -1.2509244774873811
Ni 2.615301235677357 4.545862481461636 10.407843155939585 0.8084417371951368 -0.7609663173219927 0.6836169927075516
Ni 5.283519079375379 0.9740327453115161 8.516869774636195 0.6923461450504335 1.701382265565302 -1.806550155053908
Ni 5.073642541232706 4.590967808749329 11.162623072545879 -0.2515261371725926 0.5934057245287779 0.4142013768490479
Ni 3.7782366337322006 7.1883058524238335 11.685217947256952 -0.030436205002670164 -0.4078798055063943 0.7470633340876554
Ni 7.86759355000741 6.373344194189182 3.3377005940677775 -1.2692816398383302 1.1639869949638728 -1.5263029957975391
Ni 2.909284431112892 0.939042613520575 1.327628587891927 -0.5005750164492863 0.5826186612156031 -1.464331182080433
P 9.05082359165873 6.525659579010503 7.075112959659005 -1.4902679565508528 -0.8462025008836781 -0.3826873654011667
Ni 4.200247730064914 7.939510570621792 0.6102216567525799 0.689705879214109 -0.859608489876939 0.13987572528343653
P 1.7169213408959918 5.933434158456591 3.499786046118447 -0.09821871186428245 0.17586114223911004 -0.1654245202868183
Ni 5.282380890408413 7.678718434093928 5.921521725865226 -0.22520806810335406 3.3200084336782947 -1.9103057375760195
P 4.365376919707892 1.8800862366766236 2.929929710342741 -0.7409093986711175 -0.5379920236451637 -0.21028152870050884
P 8.121317900208142 0.7977685795731583 8.394886207890206 0.7358792924463778 -0.05206869567078129 0.620618537498144
P 5.653467209412653 1.2059479262742432 11.060481627492564 0.8676830393549573 2.1984307569185684 -0.18637798261003383
Ni 7.597236954579714 7.372747538732116 5.298438533785923 1.3302036721346833 0.7197921570765281 -0.22539498730317958
Ni 2.147092517806394 2.963550343796009 8.769220037027614 -0.3604995164502178 -0.7009595977510573 0.29263010630175407
Ni 3.426371021960445 0.3834420945561254 12.321050691554937 0.036343314515724506 0.44966048898760624 0.11802649061882899
Ni 0.23067326993667417 8.63025358942129 6.400025546521267 0.4143862391663444 -0.9775439634438583 0.6141516988268777
Ni 1.6041947384498882 7.332396904064493 7.9542941766717625 2.295043300637996 0.3003470153300376 -0.00635782389722776
Ni 1.7072283767902117 0.9904263380131478 3.1496203746425153 0.7835318613273344 0.7658552699831778 3.029330308896589
Ni 4.17447325732909 2.3707925445317413 10.040656052041534 -0.19738873189824072 0.498259223831916 -0.06596422270595091
Ni 7.91282738250105 2.189728709351231 11.74800926246038 -0.9068669086432704 -0.5999841490772442 -1.4021462239112563
Ni 8.637257123145446 0.8030455540659737 4.442955512538605 0.623155444987385 0.8050509663460328 -0.31821438252876166
Ni -0.050157417670099215 1.7609068371032819 6.579238906736127 0.14557303277852995 1.8585316903275217 1.9058320180753823
Ni 1.639267480730367 6.203028901591881 5.798598235327161 0.4080602969483166 -0.39231203297512435 -0.05352882515607555
Ni 3.248767648397245 6.4488318237402575 9.456318097449834 1.1919500558357021 0.34744422592815644 -0.970704829034838
Ni 3.9774105240080746 8.391224727415022 7.928271872467325 0.13800910438834296 -0.7362793560982739 1.4207458412903142
Ni 3.365349407021784 2.993840856626572 12.19175885016783 -1.3588809854647177 -0.01878396547572249 0.5079872497529574
Ni 1.0389737690315863 1.413933602100826 13.0909299698601 1.0313453255350302 -0.12614269196806016 -0.20137008514349192
Ni 6.827600918271522 7.161035211933045 7.390630873928414 2.291698295425163 -0.25445796610740695 1.6719850433501076
Ni 2.2939372524316495 7.98557050801081 2.2478286666432354 1.1400903908519333 -0.2089756654048917 0.2916811121249234
Ni 7.620624902062221 3.2080223191684967 3.9328816343584907 1.0809863856009254 0.23981296250072248 1.2293331244698507
Ni 6.607710153008201 3.293937228287912 9.858984570815757 -0.04176731374477323 -1.4497946790271548 1.4154069455759044
Ni 5.92442961509696 5.802808616610609 4.746530703703818 -0.8361667139142309 -0.6543100162133183 0.15686480364226532
Ni 7.460397268131826 0.970838473049384 0.287295417360278 1.3739265669439304 -0.012887911706261676 0.3060893171304535
Ni 2.9880305855290734 5.617605078009923 1.71397673589113 -0.11257652324785128 0.5750009967693451 0.10403351877384664
Ni 6.0793334619238015 4.804066155983979 8.234749445498302 -0.2523036387685655 0.6148749501461476 -0.8529501040201568
Ni 4.135187380082178 6.110725447948203 6.846138712123827 -1.0036866832774973 -0.6681242963885913 0.4868373551482197
Ni 9.081407830674317 0.2436816683559086 2.068856712636691 -0.9520324494363152 -0.3592859557580909 -0.9567671359078233
P 5.181100430234949 1.2542842415971958 6.25157633261032 -0.26185348724052965 -0.7098769548453452 1.0707737067339815
Ni 8.485125317189766 4.806792302138731 9.67970328642061 -2.2127836832061307 0.5088408560025044 1.7019463655988882
P 5.968662942772863 6.425003286980215 12.372812588510728 -0.30091085825330754 -0.06389834131585768 0.3055928371100092
Ni 6.770957659278371 2.492165711549478 1.8726090694791155 -0.24570875915986717 0.7714638744192068 -0.33045720445185667
P 2.177144378111625 8.294451128393014 10.078796397166855 -0.29833512710633137 0.25349123131876344 0.49371042811896904
P 1.5480655002805273 0.9725916512162438 5.527695492774187 1.4683097071122067 0.5813603633284697 -1.3395362623895188
P 6.834586094109116 4.322355212545211 6.000999442060982 -0.041096255819677616 -0.8114324443923445 0.04650508554007475
Ni 1.008086624887694 5.088576681952501 8.571332116705547 4.61264108953774 2.1946512352714787 1.1550565252434624
Ni 8.889365979328549 -0.13585662162238699 10.92526569611126 0.813571088001902 1.1767743765365284 0.6515314250269166
Ni 8.845343767348131 7.592069209511954 9.104069723743219 -1.2340984070689778 -0.326027193704961 0.08307157181019888
Ni 5.758052089167632 4.617843754678992 0.2567809383136347 0.9197357941861387 1.783690219736599 -0.6282631985275954
Ni 8.074789836711743 5.620175182128879 0.6721813596946602 -0.8838902452424392 -0.10038640893956259 -0.7018384008115848
Ni 4.228950285707693 3.470356518167735 1.3895111877104385 -1.2483500318919856 -0.7438124312505253 0.7536510146075021
Ni 9.08408808211266 2.6152369830743827 9.575453438095423 -0.4766041074559856 -1.4727222343576056 -0.8161779294971298
Ni 4.525668806241261 8.879287499604926 3.0050538537398492 -0.08064522175689336 -1.0025019189407767 0.30488346974781044
Ni 3.2946623648071887 5.325228197648736 12.849891837169405 -0.08763168037705554 -1.009988714236125 0.4232781423393355
Ni 6.874633823648432 6.448161760880672 10.340872667859868 -1.4111630826978858 -0.4546052345873912 -1.5737884429730122
Ni 2.0390747132639504 3.7929045850968186 3.1046426346664426 2.437967582939769 -0.3744225542892132 0.16225100765484313
Ni 1.8420028009996523 1.5310110236625922 10.689990104012995 0.8694095351277609 -1.7917609125598757 -0.10639481991717159
Ni 8.277157999249747 6.955913366410443 11.91644929694517 0.3398409596596018 1.6375685135434508 2.6977194504562636
Ni 3.120886610592578 1.5476432688895558 7.210261884754352 0.3973812199679156 -0.47215764164885776 -0.844574735472268
Ni 3.2859423686892995 2.4785166228891606 4.868191171646281 -0.25040539330458805 -1.69729472575949 -0.477002628445985
Ni 6.729468835643781 8.868731714830638 9.686890399010407 1.97003452089522 -0.6762885773669386 0.09024623518176715
Ni 6.239441769591531 8.84829020814165 12.33430967512577 -0.44677673968190795 -1.8929024544979078 0.33308384344142633
Ni 4.56747889289072 8.7466976638966 10.311774499761635 -1.8462227910531817 -0.45952735447935694 -0.8103929473842366
Ni 8.847941408296935 3.1810454048627324 0.07377851031196901 -1.6707997647927548 1.4986947471619674 1.3748130833139418
Ni 0.026670337600146452 4.716076805682836 2.6758593139802773 0.44324404393830114 0.5484332735831459 -0.9167882815220404
Ni 7.647041900827785 4.712983501796805 11.871846975749332 -0.23550919291904604 -1.1325791700765526 0.4076008408133948
Ni 0.8436678854547429 5.232456617897674 12.922800183658241 0.39644739529973655 0.43545565824213395 0.6744129576107805
Ni 1.8662535691506665 4.09979337478683 6.689292600898517 0.660689694487417 -1.2847121154607875 -1.070730255090556
Ni 6.094662297204723 1.0614346432426127 4.2997456394530165 -0.28102337530076116 0.7027583415226929 -0.15549851942235798
Ni 0.2241993612398875 7.220679985379409 1.634633032267291 1.0404434311815565 -1.1641039801577113 -0.02071203573637078
P 9.437514114242353 8.711505595353454 13.144519394423336 -1.8851264100969147 -1.1873737493189294 0.23229325708490958
Ni 7.145743092425252 2.7066133634465808 7.601160034938435 -1.7240326559749661 -1.5088860858726725 -0.13017058218053065
P 6.927247526540793 4.6837302095571065 2.1695203478216047 -0.54489852095701 -0.8229633278500794 0.910926937645257
Ni 5.374592554619271 3.5445315588294855 3.7851437885518973 -0.24835133898903686 0.5833581104847889 -0.13294505960187425
P 3.588232507795034 4.445040968452272 8.026369993004922 -1.6538821631018097 0.5476408595888375 3.1066449236183526
P 7.337573828075534 8.656688946073418 3.486539913068209 -0.37169744204856625 -1.4098171101929526 -1.3479921064663558
P 5.435614169557932 6.818532122308918 8.817784908038288 -2.4265647404194657 1.0205513202433198 1.1035228761405447
Ni 5.360181613666548 2.4818485793005225 12.940882701923758 1.8095143798885547 -0.8418959030885242 -1.4965021103860225
