# total energy = -340860.1034499858 ev
CRYSTAL
PRIMVEC
9.32395821275057 0.00000000000000 0.00000000000000
0.00000000000000 9.32395821275057 0.00000000000000
0.00000000000000 0.00000000000000 13.64655532450340
PRIMCOORD
 96 1
Ni 6.71895598324713 0.7270710518648472 0.16675152869448234 2.826690355901738 1.267707610482991 -2.1145580293633133
Ni 0.8201194901850732 5.819343224803451 7.828591826816007 -0.16950254701093387 -0.07979264394861096 0.7655922461297782
Ni 8.659831069247256 7.915984352246304 12.877763071754304 -0.44543308116982 -1.2483281775151147 0.36857252326633944
Ni 4.837381269782366 0.5181360726319244 0.8961172066097938 -2.350242828628275 -1.5761955097526081 1.4468867613517404
Ni 7.101284878815131 3.112215950858589 13.009752088039416 0.7930950795357373 -1.0165578828132107 0.0081370272848376
Ni 6.515078318804015 8.89496264072473 2.528051337637606 -0.9743707079221993 -0.7362479886397062 -0.2766890095914654
Ni 8.762226775408157 1.4506959688729224 12.400256145871252 -0.8732381648452314 -0.40037629804049757 0.12893722399406182
Ni 4.873809973476651 1.8526424719589114 12.396271086245212 -1.0327465767579311 1.295098343791118 -0.05710342988121133
Ni 3.6712897932473934 3.4918222507064134 5.64798193130056 0.8617052245049677 -0.4241476894284824 1.197822198345763
Ni 5.296688762150987 6.801044109002054 9.222246618163839 -1.6872406839575973 -0.056891570980721375 0.6779027159315938
Ni 3.010183879057574 9.356591798621858 5.6376099604816385 -0.7466570997881722 -0.1393990427573341 -0.7723465341344764
Ni 8.599477089464017 8.299021868618187 3.40570244553572 0.44913881215618134 -0.4774209469303262 0.8048077399869753
Ni 3.4855845228406657 7.041201293812321 11.12553123530963 0.3554802088587555 -0.804171391954557 0.7082229641816898
Ni 4.971198714220652 7.916124211615491 4.5163135751057295 0.796289675213635 3.1755219490957245 -0.4706872277509184
Ni 2.178850464651073 4.543741862194923 11.227826242724717 -0.4239265745566118 0.36413377076869546 -0.4163495335403023
Ni 5.257798533559007 8.927540549787395 11.96531308801083 -0.9661249229736393 -1.9010219982812484 1.6605485193783918
Ni 3.1096798342973284 0.13401884192991645 11.245552951571295 1.6487903504011991 1.1238127367378323 -1.1992897840302248
Ni 7.0579098264512155 6.7308253817121475 11.067928755516203 0.4302743711515106 0.35166957686341377 0.08799137770931943
Ni 6.308487382598669 8.653621313255345 7.876259629418175 1.0184319599074718 -0.8357378539069283 0.00047385431262499036
Ni 4.369905990253213 5.86700729782244 4.9423867517722995 -0.771566204325026 -2.662584297316027 2.183302385917562
Ni 6.7136133553441795 2.6900924027778643 7.116282465170968 0.19183566329049542 1.1432708454624438 -0.3653571016528353
Ni 6.871533231072389 1.8211181701441224 11.11480495408877 -0.7514362663443704 -0.5754707373169121 -1.725161627373087
Ni 5.249882493263013 0.2708124937445064 9.786544674189681 -0.16649409920191327 -0.25480069415880635 -0.5541591203233295
Ni 0.38324357584248536 0.7652330793412592 7.08132042006156 -1.5202848146279173 -0.38684843875739183 -1.4874636543328383
P 0.7017425201050502 8.279460204847874 5.0616709429604505 -0.5957479995087095 -0.2428450644588269 -0.4147019706345503
P 6.8418830448047085 7.8987909737942275 5.815997788692494 -0.2800689818072919 0.9965076490305548 -0.6760052417985648
P 6.887206804379298 1.6726248158991281 2.3643338248586905 -0.3947648653909911 1.1411106045863315 -0.045700330250592267
P 8.339609057556304 1.8904604453871225 5.865794250893689 -2.2939343838445336 1.7044035688901291 2.1790999178004404
P 2.7714159639812324 4.40007831816586 3.9621133655352008 0.6021076231781501 1.4481980239639962 -1.0540024008129139
P 2.0748417137655455 1.863281107975082 6.532592441409427 1.7315976128064179 0.6805969749343053 0.32388675032319053
P 8.52218147809324 4.896019641303575 2.681002476176493 -0.1819328023544867 0.5054068906202909 -0.07872692168825797
P 0.6499964182973854 1.9786277917227164 2.707203730400017 0.0036352827597421265 -0.9218649247139994 -0.7115067771392842
Ni 7.148408162273262 5.799818856864921 6.287895421475345 -1.5220853581717657 -0.4394496098928754 0.941426906006327
Ni 5.75837386379579 4.131427117873192 3.0444233174261828 0.6567584777538109 -0.5075367924791001 -0.9673104586413083
Ni 1.1066046248406942 0.8164812817946175 11.197107530876448 -1.5330300301087274 0.8961490080051341 0.574366705619456
Ni 3.33615877280109 0.470794608557861 7.9134183990196165 1.761738398055856 -0.48015480092172147 -1.1552254467211587
Ni 9.234028371424166 5.557321358610255 5.519458630183904 2.002007731367707 3.3489914511742063 -3.847530925250703
Ni 8.609780062994139 2.2256567335390467 0.8949461174917999 0.687786550704209 1.7329109323012024 1.8555283847248238
Ni 2.4839956363436464 1.8588522279508217 3.988055413727832 0.6892903889432451 1.8202767606113812 -0.9246882530954075
Ni 5.323635000614382 2.0369864445055508 4.26149166923829 0.17083309289689932 1.160354540417608 -0.25649813646588726
Ni 8.667905616828328 4.084658144817002 6.731886448126382 -0.56997988940567 -4.058291964690792 2.7420455260671486
Ni 1.3506778719882022 0.8752865521630563 0.16735478877357635 -0.5119284937888926 0.860862416888698 0.5934761727553972
Ni 9.082215688150463 7.707062426554505 7.065148947400344 -3.211852922316275 -0.9393409700115758 -1.5871373534760924
Ni 8.609425752592198 -0.008439114336754006 1.1894284108775435 0.8370737991095326 -1.6072616350297932 0.690315744883966
Ni 5.261462849031711 3.0645239059657636 0.8668576941800427 1.5145594821083657 -1.516811768477652 -0.24625229036816296
Ni 1.6475340450669493 8.30409410174071 7.993196980391363 1.3576887649288296 -2.218209996428025 1.2180824912566957
Ni 8.675420726932652 5.1299018024163106 0.08561724383741426 -0.2351538664621563 1.3876660280172102 1.0949145656462433
Ni 8.401091236250986 3.8663936132635 10.99635339234518 0.8705091959498428 0.32347485959675254 -1.5300172114243327
Ni 7.5205273238906 6.598816785115348 1.777941718084453 1.251755715139425 -0.7232297220031673 1.4201375182823541
Ni 4.191753125782593 7.650587213276725 6.7865817178323065 0.908915563642183 0.19550411328101813 0.8932092086505199
Ni 3.1806444782229 6.82126777378652 3.2916312792350726 -0.9093523940692855 -0.27693300728147147 -0.9682136871818681
Ni 4.077646528441751 4.471145525628835 12.552510784751586 1.3662608228685567 0.6945356965025845 -0.1101198341772426
Ni 1.850376750178079 8.888687617027198 3.135445659684784 -0.0671728983020714 0.3378154445891408 -0.22480337646576767
Ni 6.603665243247169 6.069943242513027 4.027862187385885 0.9025664814957036 0.776394993172237 -0.22962059534875295
Ni 0.4721251373567283 7.886194306609436 10.43654388967445 0.1358565768217144 0.8569006040274726 -1.2820489668063275
Ni 3.741956070518699 2.5289277896845124 8.125295086984442 1.1619733069679536 0.6971805903245993 -1.0104067756101502
P 3.4618830217424126 8.358713847387271 9.356487370292864 0.232749885006354 -2.1767021069922254 0.5606136176994216
P 0.9377850422738309 7.79852113004497 1.3919624929806667 0.004626957249050097 0.2874243937310985 -1.2200761246479568
P 5.78245764716982 2.1791581552632846 9.081919186287786 0.5439312719477343 1.1698653081215207 -0.1893568627326997
P 3.9748685400050707 0.5309285429335777 3.7169529448912106 1.0917389961317392 -2.477502407809598 -1.175920256066349
P 0.029065574104478246 3.842319153847414 8.87298980142963 0.09417256681936684 0.497505376385027 0.16832678153527783
P 2.7558356302537814 3.3260702503037223 13.731163497431154 -1.7455450761254454 0.744137675800428 -1.5340013928830614
P 0.18758777751598735 6.088777637563566 11.358150932516503 -0.2606214146056415 -2.1268139639125305 1.7698610271629907
P 3.187050037331672 9.207054161086933 13.371822820178553 0.9606628714178036 0.8977520908261957 0.3783054342833872
Ni 6.956521107748461 4.4279010086761605 8.886076908802371 1.6715060468311598 0.04132071312565787 1.057777808694946
Ni 3.167609585014655 1.8621156132318557 1.4448153485964992 -0.9480665228100316 -0.5993316030949097 1.935487893268602
Ni 7.108240551442706 0.6080814977477843 4.6574465969483 0.4650835084108958 -0.9165355420812861 -0.20507041681321458
Ni 5.252185510875628 4.565998149811575 7.5142028832159555 -2.417694948733662 0.9206783606050659 -1.290949354619751
Ni 0.579630372471935 3.773172681721276 12.627157459669958 1.4970356142919896 -2.3537102183515852 1.0354621759168812
Ni 8.159115879641286 2.023317522156991 8.96820233038908 0.4044813213478066 -0.5586438955675604 0.034937692417449505
Ni 8.358508720312464 3.0599551665723155 4.032502721255516 -0.03983384416748624 0.5518111889164433 -1.0789261606377871
Ni 1.3781182802227254 4.046560452650415 2.367445229625208 -1.3931676745617296 -0.236142969848303 -0.32607450200312876
Ni 1.3492419824645474 1.102558027092212 9.006685102018828 0.733536246135498 2.0032945684999306 1.273036478895072
Ni 5.569983293500668 0.9652720702980833 6.515929596164468 -1.9186713359318956 -1.1574808184142389 -0.7917660763116687
Ni 6.219322372762874 4.362428175980672 11.241814044435024 -1.5430156805665296 0.5891394930532563 0.06786195394929602
Ni 3.705219676212202 7.369292726009537 0.7118301102066237 0.4012890396627541 -0.750525581604643 0.2378638091941516
Ni 1.9579659009147983 6.845500740487683 5.826355773574496 0.7813471949711899 -0.40730387839826626 -0.7923620580244547
Ni 1.3361231736347907 3.426563869043679 5.237288623265605 -2.299190232926834 1.3727888537950617 0.026129350097200164
Ni 2.0849395602208594 5.482049046113719 0.09332908945439497 -0.7086533668508892 0.39646539302186556 0.28445836912423916
Ni 4.184377875047455 3.7189445423084364 9.944258490447288 1.4024727540127395 0.4007192832022131 1.6251038054175364
Ni 1.9834855738124844 3.885461107262684 7.601663473539258 -0.3682992150002948 -0.4021809553494041 0.3335366147081288
Ni 0.4921334187126452 1.049420790759032 4.796367975966124 0.19191639592975981 -0.6208807900205953 -2.3963054273142927
Ni 1.5474413565186629 8.187591247207793 12.54601478325074 0.5572758115754403 -2.0294935954928017 0.7359713379395519
Ni 6.333419646145769 7.604722664141278 0.2976738841905948 -0.2622172983378516 2.103429266440003 0.18718145234793568
Ni 3.650199000373968 4.218382349675831 1.7877803585088734 -0.097084084039207 2.3736182701294215 1.7849765426481905
Ni 2.998053409770073 5.549004388122593 9.224552432963838 -0.11080940404509948 0.8104865355393075 0.6747564569931283
Ni 6.3931209488728005 5.014377963467705 0.03432521878171052 -1.4748341384942858 2.055038019620809 0.8448130767353191
Ni 0.8319972802122425 6.430137061917672 3.0166938664953395 -0.37247597208580363 -0.476442899287773 0.3955228266029382
P 7.14879044454904 6.611711818954405 8.352755838259899 1.1582812028283471 -0.5232652589579504 0.17412513338460978
P 8.862207576461094 9.044789320955976 8.763994597834683 -0.7108539740466339 0.42783465136176646 1.3071866424142198
P 2.569468358832901 2.394345780694669 10.456017908240073 -0.23012298890646818 -0.4127569310930375 -0.038333348362559784
P 5.293555912281194 6.577511541209169 12.592522685484449 -1.7389869632919535 -1.816395423279104 -2.3525028283070455
P 3.1685606287251282 5.8400237635272605 7.224718231289168 0.5691946745002133 -1.3749025577039549 -0.7375852193938911
P 5.1915051925642866 6.980287876552334 2.5128905820177163 0.9996189409660269 -0.17858394048691179 -1.0261249576763554
P 5.758159412763035 4.116154474757953 5.2236691178941586 0.6391438499958412 0.27398986549274745 0.9114162185768497
P 7.26034227741273 9.014439837842358 11.783131341311824 1.441703160268272 0.8997637219395858 -0.45536113891680935
