# total energy = -340872.13719020557 ev
CRYSTAL
PRIMVEC
9.23320736785161 0.00000000000000 0.00000000000000
0.00000000000000 9.23320736785161 0.00000000000000
0.00000000000000 0.00000000000000 13.51373228975445
PRIMCOORD
 96 1
Ni 4.625162797922946 8.946072951214724 0.3741101672099171 -0.2747804797148429 1.8924566252097406 0.1819402585536544
Ni 8.584546722138086 6.4410576637766646 5.26176104350219 0.2653177916400463 1.3051423582906814 2.234891570848764
Ni 0.977925910520317 5.282068559483066 4.256325715361878 -0.042827379578171405 -1.063456604247278 0.13122910535203205
Ni 8.2614121687223 4.069342189112948 7.393173990127963 0.7104377124448216 1.392645997730305 1.545359755318674
Ni 5.090119414386034 0.810558333030763 5.804688401736715 1.550278275666214 -0.32646248147016677 -1.2484081388234305
Ni 2.123508397916476 7.486182856514317 3.5154485506517776 -0.20452791404618323 0.044046082476620924 -1.1263483586754925
Ni 8.411008592256962 0.6910658583476263 1.9141528105501242 0.4857649480196473 1.2634704324731918 -0.5017718649708649
Ni 1.5857017764115107 1.199605982896795 10.709741103694695 0.48645683188034927 0.19747743495730505 -0.14528532633478206
Ni 6.577829162469353 0.147761785258132 3.826332484715274 -0.047402400543363525 2.597572925441649 -0.24283657981839465
Ni 0.47767258945975216 3.987877601725816 2.0735198139751936 0.9115612287951462 -1.2715802060645198 0.06468869842763697
Ni 6.752299846280671 5.172655053811806 6.033516823150382 -0.9844067520019627 1.0214123826920345 -0.36194910441255085
Ni 8.069776952671077 2.064498970511833 11.623755677092152 0.7291149771393507 -0.16584772386716598 -0.3612968155405326
Ni 3.1224029220553104 5.1733106115251095 3.99974042637446 2.141216769601422 0.5376552091310353 -0.16703017421104138
Ni 3.836942363142856 6.838602634256136 13.299107279099873 -1.0852608446065632 -0.3489922871415667 -0.5425243642978785
Ni 3.080530327268883 1.4902488800714702 8.46073125983003 -0.6854702438662067 -1.0810385789950994 1.2195963567980608
Ni 0.9555907822318128 8.569967487922481 9.432193001968875 -0.2115457401249131 -1.8495456847788274 0.22532248219403128
Ni 6.256541250499496 7.048214904783472 -0.056786994424468024 -0.9295692353367926 -2.1435703574352627 -0.08038271212412608
Ni 8.844932399221223 1.3932263385023906 8.874792591401887 -0.06691758775815572 -1.240377298099154 1.1313231861822646
Ni 9.070324220904018 2.410070217495649 3.5842608741721316 -0.21389624263496065 0.07984895110784312 -0.32544483883892983
Ni 6.00642289985572 0.3699192144483825 10.248422370880084 0.5961745455231667 -0.21832188250648207 -0.28462009151308404
Ni 1.042844590551931 2.69747225893272 7.427376559668726 0.287481215110963 0.6505492636193054 -0.6963524379963492
Ni 3.1368990574058486 1.5382061584222313 12.644839444845262 0.4807890920716107 1.8486141741034936 0.10698077432762867
Ni 6.444926377605884 7.211993534622865 4.108336793205896 0.46586332399971375 -2.3189861846068385 -1.5998756269783672
Ni 6.822259857459669 5.695688543749344 9.177242913981829 1.5032985644825658 1.3023776510613507 1.0314635962804495
P 8.735722024109016 3.4803743663485363 5.465102119679153 0.7345209786462705 -0.5678399602445318 -0.9312641065407123
P 0.9701977160691067 8.092638373771672 5.617239521843412 -0.47213501594103846 -0.46116771829625736 -0.8738554867142563
P 7.407820626756344 3.0258974400910907 9.02526801626481 -0.7741159673300733 -0.006043377980602495 0.746734747103643
P 6.233088904136205 4.1747300164320835 12.798004502974182 -0.23680657157423088 -0.10957013232135969 0.10652748884029396
P 3.1518568531178692 3.376473085393373 2.8039376015355546 0.3691224822325385 -0.3077031985847926 -1.625004817945827
P 6.759520214334251 6.009386759376436 2.2261308796703334 0.571201677627913 0.25430241436614914 0.9923779431328974
P 8.725463930876884 0.051063329262812866 10.79605312487739 -0.6848359527163174 0.33063846722472734 1.203884602489759
P 5.352296333671724 8.286618824459223 12.003477787656246 0.8871108090622657 0.010761095171245984 -2.162005167101683
Ni 4.169273190959365 8.77199929531428 7.252711978505586 -2.790151894656072 0.38153576829522673 3.7364006475310747
Ni 0.1878579109735759 4.836843306869722 13.470745214933135 2.0963854722193447 0.402040830227114 -1.1926414254757718
Ni 1.2827048479635743 3.1423928157074856 12.011505138021697 0.200562501640532 0.6879055927805766 0.6005073685705659
Ni 8.033259618077844 7.1292362982235815 11.309196003230534 -1.3665161334124722 0.8107125355071845 0.42848359779967493
Ni 8.141537439259857 8.677405087246596 6.13162611321039 -1.89254764226165 -0.07022196954104035 0.7291730840707958
Ni 5.324818308956308 4.949026774709873 1.1358710000320213 -2.094512680676664 -0.5898552881733583 -0.40730439261889856
Ni 4.835107463910549 3.034225793012228 5.960893955006354 0.08279466399972837 2.299651745944285 0.6925909140713878
Ni 5.4557082546437154 7.586437020613771 6.032881578492983 1.4132505613545336 -1.573258024390839 0.15721215967935503
Ni 7.583547026750893 4.361979459049226 0.9680168325214651 -0.2741035082524763 0.09511539034861038 0.25044524540358803
Ni 0.3162613539540402 6.220744106070173 2.1986980976703436 0.022274752237800347 0.6407947553357028 -0.2327552843229927
Ni 5.552010606048882 4.478576399945148 7.959385650354199 -1.2254080783838315 -2.4002407578129565 -1.3138673968685048
Ni 1.1022510458674484 7.6000190684485744 11.708635627833528 0.47125389888766583 0.627468727650758 0.7090724566661789
Ni 5.57762352290391 4.330955882757629 4.089862992180828 -0.162274661803927 0.45105428401133935 -1.210774901851689
Ni 4.629216175896758 2.541514155616835 0.6919494762795031 0.6372970265950896 -0.21629071100906624 1.079572021751902
Ni 8.777742350211119 8.085011744599987 3.649369758272676 0.9251446239065357 1.0914417766062945 -0.3743143108461231
Ni 8.00187594670429 4.836307780850402 3.856021862562188 -1.347026657229293 -0.7283341331092682 -1.984402616691434
Ni 7.543170211535669 -0.36285119431409146 13.02361607498904 -1.6246752025205504 2.098213012346386 -1.487754960321012
Ni 0.33545811510518914 0.5404648618663794 12.989899172148556 0.966075814903259 1.0624579877794347 -1.1177295066582298
Ni 2.912956849258108 7.2327036184389515 5.7705661610988495 0.8206418788057543 -0.9840604244061375 0.04125412155378056
Ni 1.2087745576758298 6.933640036270843 7.485499599179323 -0.23029679548017115 -0.03769185812381896 0.3023522186855244
Ni 6.071812473456046 3.372004213094226 10.804282682481169 -0.27528827258919686 0.5582721140504385 0.037249371269761654
Ni 7.8201664284249315 8.264126731647815 8.990226148186872 -0.8699857193462049 0.18484200558148164 -0.12919639119271945
Ni 4.190075606847749 6.359657708840139 7.857978258671763 -1.1494306944162527 0.2592798129760825 -0.673176514100518
Ni 4.983743633893328 7.457596846931345 9.708954695394507 -0.40493486394545747 1.3120987350038564 0.6853267763098068
P 6.53715688462278 2.3502667342692574 4.767604409175358 0.3111312504297351 -0.24324178567661334 -0.6113286275557859
P 2.9907096873389243 8.58366956745127 9.12570130458452 1.3264897136182057 -0.5797215421734662 -0.19648601757831322
P 3.970537638548548 2.2181026059841598 10.83112084593557 0.6686256615050421 -0.42472438786755884 -1.2695456921329942
P 2.484545267009943 6.463956017706177 1.4509421935741607 -0.5555907105635335 -0.44145918412373647 0.5721601848864405
P 4.437165465520202 5.386016006474376 5.949907361723803 0.6257098359781224 -0.3734740743330149 -0.7347577772474249
P 1.334826302774904 4.859917091736597 8.304052966350232 -0.7934645470600141 -0.30697609061078096 2.0727539488433337
P 2.9973206637153487 2.264176310060074 6.556660188253952 -0.1943309189085234 -0.8996315672370958 -0.4593386355073186
P 9.071238308419753 2.486345742419723 0.15552321925536913 0.07176103189338609 1.5541930373395878 0.8967910124645072
Ni 3.235777473628086 4.956856534440609 11.919949578453288 -0.18586016243335088 -0.4866715189943167 -1.369020387891565
Ni 3.0195819263460155 3.6432943079155713 9.475963944161718 -0.34302372826295763 0.959719533667928 0.10393915928782745
Ni 5.888385578631975 1.4782087778440167 12.296360660904833 -1.511968838563054 0.06727060022220027 1.0712866418146583
Ni 7.441143271648123 1.7343010135653711 7.010208253864096 -0.5684061171606468 0.28575266245563047 -1.0113632259861485
Ni 4.596068961942343 7.189621473505441 2.1610081457589443 -0.490633074745226 -0.27700268417714236 1.1795005172184396
Ni 1.9367944813186528 1.9923691556338687 1.3514811619757325 -0.665408697229641 -0.2691376796067687 0.024719357123550976
Ni 9.112833906989291 6.22161202754976 9.439503855453305 1.53123540010215 -0.9048822741130739 -0.20967551968539375
Ni 5.337292371923554 2.245294401275456 8.867846449603027 -0.2985482715584019 -0.6472104290540596 -0.821596786519856
Ni 0.9857372038365942 0.17698580946067227 7.365497451457111 1.068681085871011 0.6555575154671742 -0.5493506431910926
Ni 2.128928290560276 2.993184186876469 4.737360115573942 -0.7420643382111671 -0.4926097388556226 -0.09158398015658421
Ni 8.095177505759823 4.767049493420856 11.337601965272528 -0.34364619233830496 -0.401358973668741 0.7495462484105091
Ni 0.19838469053609092 3.417616256808658 9.84574004389804 0.8400853322423468 1.2575833775647953 -1.0020578894248224
Ni 8.489444687672773 7.044770918486816 0.2774975800418336 1.4273306935966836 -1.6282840029177315 -0.10204091382385007
Ni 2.271839872060677 4.85853211065215 6.487348348222476 0.9831343130474425 -0.47602895167880593 -1.4442148709465323
Ni 2.6090366000872076 6.39498395970075 9.754550119335926 -0.6523225534696443 -0.44880739695869154 0.39291212845296847
Ni 4.517282004651807 1.7828307507643704 3.638639848151109 0.653017779764456 1.7166970415455014 0.0015483183237263657
Ni 0.3992882000044282 0.9797171527228676 5.223138537660597 0.2203674521816011 0.5215937847927984 0.04166344117705728
Ni 6.87178678103947 2.74778400512704 2.3998222807914695 -0.5830359512586798 -0.9951732464898473 1.1876434580405482
Ni 5.590605412268787 5.969028410575669 11.509793893539571 0.5549155388733797 -0.6742522636632 0.7342412426223226
Ni 2.743702927531538 0.35158945145609694 4.916066071541497 -0.7075292805487751 1.4843767878773984 0.7530833150294901
Ni 0.9830780401544573 8.398349865145123 1.1650987175174536 1.2657607711692653 -0.5285671307868381 1.4455176489183557
Ni 6.966048593646887 8.129700467591455 1.7444067588782144 -0.14506344013196307 0.12849448002968838 1.5703693899891342
Ni 3.415538785181989 9.498015612988272 2.424836885818016 -0.708184911854903 -1.2187424934381978 -0.5563808105649967
Ni 2.689014641110368 4.199502711429214 0.5510627371245627 0.008039582475024865 0.7036692833727366 1.3820661653319295
P 6.243153100016515 0.02847244113404745 7.751517532672543 -0.18123680472872658 0.5539313205832396 0.45412212430338567
P 6.021990087244896 0.8790558041845861 1.6280803509541222 -0.11078909233012534 0.8146463233439519 0.20373550005187493
P 1.2844314577155176 0.5734606512222286 3.0775498479751544 -0.9366616234071997 0.14019222808259083 -0.20357300633208164
P 4.66762631797207 5.195636506606385 9.805536812978733 -1.464563095585581 0.02762598924738468 -0.36920295776148676
P 2.3630085602461635 8.965084124900557 12.990953604414182 0.19047709238007196 -2.582203127853798 0.5588025326326118
P 1.0247198047601433 5.448044692643112 11.538240481693375 0.2600603998958489 -0.5260106829135716 -0.6899804730317343
P 7.65974868601713 6.889145210631197 7.308483320134793 -0.145267328612653 -1.9115972026939334 0.13870304513157403
P 4.195689396843371 8.268207809243316 4.221500827653836 2.13103520108273 -0.7449365175526397 -0.8153932288123054
