# total energy = -340894.2356747729 ev
CRYSTAL
PRIMVEC
9.05300874481883 0.00000000000000 0.00000000000000
0.00000000000000 9.05300874481883 0.00000000000000
0.00000000000000 0.00000000000000 13.24999339019686
PRIMCOORD
 96 1
Ni 6.177184644636193 1.982101921834915 11.44184593582707 0.6877991491096993 0.327306574638017 0.2501907061906208
Ni 4.582642022319661 0.30706537857146005 6.09618918701108 0.2149380536359137 -0.19723626548077644 -0.11754080923166209
Ni 2.824855548358291 1.534421591994141 4.831437710833889 -0.2790418260943581 0.1460564001728517 0.4073686701979307
Ni 3.6192842148062376 4.191262353158747 4.9154161348031105 -1.160472039832079 0.7566185818762583 0.07975510584245618
Ni 4.9096276410840725 4.416066663498398 2.763219949691835 1.2233100582042222 1.1727778537826254 -0.25513108091503156
Ni 7.019548991788411 5.936030600707889 2.48784553313612 1.0270466981596762 0.4757612998397161 0.6808584561258081
Ni 5.140307354025626 4.391605434175841 11.645207289921935 0.41503878514867876 -0.25045193027180734 -0.22433132192535557
Ni 5.564123953113527 7.8130270923300404 12.417641671899434 -0.022377082143619526 0.3972112700489547 0.21206098919843477
Ni 2.144675850841014 6.2023791676579085 0.42632790368230483 -1.50618257089858 0.39540764118131255 -0.491824781060482
Ni 2.7168984204265763 1.6624763990879863 0.4865847291341701 -0.7125231342189406 -0.4869977919854838 0.30109340657775885
Ni 0.6150088989801843 9.28014861815694 4.762352391364497 -0.5339024269568224 0.285869647649469 -0.11953624239513606
Ni 8.620917582613162 2.357466818726545 1.306242320036633 -0.06238807531891837 0.6530108377859205 0.5099124918001283
Ni 6.8197490912892125 0.6490889499738062 4.786202542604422 -0.05879007355501487 -0.06367851199556776 -0.5923400022684251
Ni 0.7294905302326862 7.228917922411201 2.069198201976856 -0.13985001425182367 0.02786818716517781 0.8602003578246671
Ni 7.572244221755632 3.8475558274517883 3.8448037128277845 0.8957965097617219 0.003247303292704085 -0.8384632232578914
Ni 7.744043166557322 3.9275119996859944 12.618869231859835 -0.46950194919356564 -1.0922236490776418 -0.1690142945206057
Ni 7.918458430853542 8.8563501250863 6.998514326232911 -0.20104124104916343 1.2905405492171065 0.019663282756882262
Ni 6.969956610504559 0.6424521893459872 0.503229590804212 -1.3472459723289505 0.2853495134799408 -0.7516617520916151
Ni 2.061659761689331 6.549435306558556 9.221756712483181 -1.2236486724905635 -0.33904983121687415 -0.7281053049279138
Ni 0.007317546876914469 4.84073424539767 1.1925655012514793 0.25945310532915317 0.686123046958857 1.0599845865382775
Ni 6.506352038480817 1.8972028068878608 6.825350187729577 0.3058170373056733 0.26492184175320826 1.0079066348961156
Ni 3.3974311852804853 4.199500591013494 0.6160400366633224 0.06866413813561723 0.07883285113850294 -0.27011701280090256
Ni 5.87141927810423 5.611579824360324 4.77268730601832 0.5014823587549041 0.3324395249892081 0.09219538848833798
Ni 5.81324464463763 2.907925955561764 8.899609926832355 -1.184823729203566 0.13521457236234133 0.9868881236629198
P 0.22696073699569608 5.640612823041834 12.274820502426602 0.6490901625752756 -1.0534254452635212 1.1564680608790083
P 4.018150722105476 5.943897665208741 12.636929078778993 -0.3108026634457228 0.9999614119071101 -0.27438350138674034
P 2.413686002328721 8.613421691466206 1.2419469474342153 -0.6051271267307643 -0.6533440527556232 0.8678519608326536
P 6.388337017959406 7.707659124866961 5.968698382354983 -1.0800438191819979 -0.34269308439641627 -1.2472822527491036
P 4.4934879933157585 0.8896617907479615 12.658407341757442 1.1223883455864798 -0.5240574158419427 -0.09117697452615266
P 3.958527607257823 6.000515181190707 8.267385826638339 0.6924389618745558 0.7948285172870763 -0.11382068006759753
P 4.573516589619017 0.9281506569451679 3.8030928808585953 1.9563868482047984 0.6058856021633436 0.6741183091884971
P 0.12240210850428032 5.690829861921265 3.6226274908938843 -0.15470404854552064 0.14034495161037122 -0.4263025309879561
Ni 1.505361434286736 1.2729797557224436 2.657723429506186 -0.571291409128242 -0.4905757391447293 -0.6029853977974131
Ni 1.913570646493776 6.570003742169529 4.846131649143823 -0.09277800046468537 -0.14541182461031732 -1.2371292234755018
Ni 6.035043356111593 5.676299783067563 9.332540189709679 -0.9655253417164275 -0.48467839982368793 -1.4826636618410336
Ni 8.453111014618004 2.1538374955761834 10.274310192840211 0.9304359542124621 0.9774904844981038 0.16516278198499945
Ni 2.345181886013477 5.233779668146796 6.941459549934039 -0.6131631096613634 -0.6767112667266538 0.7180013837246925
Ni 0.6825868925124168 9.102166468459874 9.019045364408063 -0.9404025785068707 -0.12359935672091617 0.3195451855250432
Ni 1.5595436909468043 1.1567210188755606 11.644292936050146 -1.0048801893649661 -0.05150896651256935 -0.9045634573210743
Ni 4.123047933119714 7.031417486104425 1.5151767062451063 0.5831958738753117 -0.11043865096924205 0.002531251062285963
Ni 5.660810085298912 8.030217822410524 7.982418842136591 -0.8644401069376274 -0.5087040733143239 0.4125502143988702
Ni 5.445547646056957 2.812769781835118 4.864907589045742 -0.1504283039883022 -0.31745667842713066 -0.3075363339896252
Ni 0.7082892893183649 7.632202297922655 6.8157431349697335 0.7935105698066011 -1.3712515912149288 0.507068851703746
Ni 5.0611387935423675 4.719442035751622 6.878919555705286 0.8462850332951554 -0.48865666774514555 0.6546368034251178
Ni 8.005376366725441 7.351812514585038 8.953524214436928 0.6170981830497114 -0.39286713414764596 -0.03533055698049399
Ni 4.713403678994352 0.2940073189212541 10.591329354402104 -0.3984029763642106 -0.8595442122979068 -1.1711151213682218
Ni 8.133259166655286 7.50266279741323 4.713247967245888 0.010976810726477871 -1.3374750089851162 -0.4829976696871553
Ni 7.260648717664925 5.87677865921413 6.995161997136632 -0.3595296963377808 2.195904133841973 -0.4038532008455045
Ni 2.299065860044156 5.042815504072029 2.822527114538246 -0.4495378473668129 1.283457674228396 -0.44692252123115284
Ni 2.253954718032941 5.27411082160053 11.2614212844012 -0.09559695797071924 0.36344960021747724 1.418823941677253
Ni 1.2720291898161267 3.2547738752638846 4.077592776780499 -0.877054196157212 0.4731508588000626 -0.20910293501137536
Ni 3.66187862041787 2.65356357203997 2.5664573335885343 -0.8301341345669059 -1.3353165678812164 0.7447488270218657
Ni 1.1412584801328043 3.266316461269162 8.343017376649234 0.10748033967186651 0.3539933399005839 -0.376257550615423
Ni 3.7063469988162425 2.9412681863519112 7.474281615353194 -0.3256181311920005 -1.1609273822019426 -0.17616324686056112
Ni 3.97877918756669 6.746302032261119 6.068019845353024 0.8798309875714008 1.098532879125121 -0.18978263741620863
Ni 0.437611573640719 7.281959499983688 10.997891824339058 0.5307191441328344 1.0316564290175458 -0.16418139190833658
P 0.27489279649651427 5.725711104178783 8.047542565028799 0.3230727390623275 -0.1399898822637976 -0.19025469195662073
P 8.598122106878817 1.7571799223830529 8.012880405580166 -0.5925474902935408 -0.6409083980954317 -0.27098038924246237
P 1.9253576637321066 3.3122152150313253 10.378401686086237 -0.5307669666516344 -0.538966471743291 0.5190869592105446
P 3.974053517061 6.1879034068559955 3.635174960857268 -0.18334330954876812 0.35568949665608424 1.0814381284263632
P 6.968625818235716 3.8779739364539316 10.535056758049002 -0.0476728805959308 0.6840993316606089 -1.3183868820054134
P 6.313848862938681 7.779621490479473 10.185680333036078 -0.5255165168859723 -0.51373906463507 0.8936820345218801
P 2.3855130394672117 8.516382491944189 5.726276011917394 1.1525003344805118 0.09694164492407176 0.5632381998064623
P 6.668020666623758 4.029285922722333 1.4755190966335618 1.0833607993703729 -1.0233206554583407 0.041370335416670685
Ni 5.095965717748096 2.669605503335148 0.3629912446939725 1.4332198053876093 0.40525470917872136 0.8204906979398707
Ni 1.7051884938118296 1.1353921305395338 7.126138210115893 -0.6542987033594087 0.6783668000522058 -0.7887380881186223
Ni 6.9151496962489105 0.6857337183127574 9.211448051554388 -0.29594477249728385 -0.14776849776795195 -0.2263892328956488
Ni 2.823588127149868 1.4714579169614301 9.49550158748521 -0.1078400370041304 0.23747120174142328 -0.7342859798173289
Ni 6.269796922937362 2.1093691171778115 2.544170636939285 0.5992866087895873 -0.11996895905718048 0.1830923698802266
Ni 4.05238014774152 6.75091906666323 10.53762690719951 0.920824142154311 0.7918401240827136 -0.0548377737754862
Ni 8.074287868429106 7.092959838781977 0.06379926772940658 -0.013967775034001753 0.9533809930444098 0.8339427096797186
Ni 7.7636519832533475 4.033097239356232 8.213724117974587 0.6087235858327711 -1.2810457223527938 0.26941201631407796
Ni 3.0312913041844456 8.271163647140302 12.384702299993391 0.010516069039975439 -0.3946273113718623 0.19967367127767546
Ni 9.185273087697873 4.815340556186058 10.136152228113511 -0.4608812974040901 -0.4667750371807058 0.03601909840708635
Ni 8.742481382518157 2.4977884525161955 5.773697481731391 0.04203162314975342 -0.4938027307224592 0.5516666929187789
Ni 3.5990688465318965 2.6138299171559205 11.680862564417454 -0.3996139659531763 0.4934749150693953 -0.7432760991310812
Ni 1.1810555060772754 3.4671212457264673 12.62093693903129 -0.26960176372738087 -0.18877990718330714 0.05169125772670453
Ni 3.026710481816861 8.364690279313262 7.949743818082592 0.9522008566933794 -0.1468030485308891 0.24640192857214982
Ni 5.602572080771892 7.74448676398027 3.6026864287810803 -0.23106144156033753 0.9276470786134152 -0.05146037266282105
Ni 2.959854013072566 8.453608930092742 3.406334819269654 0.06653295072522734 -0.8230402038346019 0.36374784818418643
Ni 3.7497109101615598 4.311884640166057 9.659019745291584 0.3977596863532569 -0.5969330209557462 -0.928422523326859
Ni 7.201939956689061 5.998930904680179 11.293538643123494 0.606280009388285 0.5393194842073357 0.3450335596041348
Ni 0.4557031060900891 0.10933680644716914 0.4427020803942623 0.20755127425353934 -0.49032737057934905 -0.16266212705033278
Ni 4.6156945568335965 0.4563902294452269 1.7352453877695726 0.24558791731128676 -0.8087600397665039 -1.2096497871083103
Ni 6.038121379046333 5.654500138282693 0.22704221407338038 -0.33842402470741717 0.39333893157774197 0.8321694198293796
Ni 7.755124049122389 8.935455314509136 11.534900906250325 0.11612978781674839 -0.8303927875449312 -0.6701680662914974
Ni 0.16795503733671657 5.130846960005614 5.7780175774503855 -0.2529582416334289 -0.8337825299527706 -0.270803754455282
Ni 7.998396497070485 8.95351606672916 2.460112546494106 0.11317996115980508 -1.33344814721391 0.7083512622294381
P 8.457266345579903 1.6579680007894544 3.4716703825638415 -0.14141170231198874 1.1973020641762349 1.4013985471119543
P 1.6570536469176638 3.331353275278507 1.7629113821477127 -0.28345049668501504 -0.8203351461986129 -1.341806289370618
P 4.663059897994077 1.013158407995801 8.332602795519453 0.5630967891325915 0.4245084152020109 -0.6795731616554812
P 8.505192973275543 1.630238635350893 12.470707692595228 0.3700622204379885 1.1183103188623644 -0.2087221546331889
P 6.345833142434089 7.771147874400303 1.4070964573960019 -0.13779750259816914 -0.34671146152718996 -0.13132783571342543
P 1.948614842906662 3.1428062645083754 6.156542879655304 0.02323351660664386 0.7202174175394047 -0.1043731615014525
P 7.0615006337872 3.9773759712287937 5.946530280118808 -0.6644856711947394 -0.08224881879858738 0.46423992946367787
P 2.301718391573212 8.479808337072564 10.281690205476684 0.5685009908672983 -0.12961933766275097 0.4720028612385484
