# total energy = -340856.012372166 ev
CRYSTAL
PRIMVEC
9.42318304055816 0.00000000000000 0.00000000000000
0.00000000000000 9.42318304055816 0.00000000000000
0.00000000000000 0.00000000000000 13.79178088979092
PRIMCOORD
 96 1
Ni 3.3603824096699118 2.6275037823545753 8.090189817442841 1.2165058907981952 -2.7435671049179975 1.203572470565979
Ni 3.2035241070200406 7.663761579088589 4.198370046071363 0.5452592467305384 0.47751993440203566 -0.6055832404315763
Ni 5.32365545217787 2.6306417022622046 1.1699032348471572 -0.21057154913710185 -0.5084978708407888 0.22196616412728867
Ni 9.06054113484884 2.82243174394386 8.803803689625571 0.6619742176267954 -0.8025389985574566 1.2791639319490484
Ni 4.599333074940995 3.019790886722841 3.3604775838172607 -1.8722235859923175 -0.21848334778501083 -0.33415033703272773
Ni 7.7668606232608965 0.6355239554424018 8.183380384789707 -0.46643359468088696 0.6503397187116606 0.007109100240955499
Ni 1.9796411112153245 3.6128200565332667 13.012738066052622 -0.7575310663881986 -1.2492334629382034 0.38545387240271034
Ni 2.2271033175044193 0.4104446355094429 0.9353931934620782 0.5102909581854695 0.7457834389339673 -0.6222486169023993
Ni 4.620761392868774 9.255374864609067 11.845457303008146 -0.0132730629598223 0.34847086742045796 -0.9445150580133475
Ni 6.671877346424557 3.271974107647739 8.72110866339918 -0.6689141392797383 -1.7597594199526145 -0.894735415487059
Ni 7.625739036063704 8.749943603090916 3.9438979340186475 0.24096815915108827 0.24191843887949951 0.6842258299361442
Ni 2.8393652036255745 6.994630784130958 8.753532893459733 0.4222517579573502 -0.7892417672279182 -0.3352361138977388
Ni 3.4354003687829495 5.401707676186573 13.11916914770042 1.40201381209845 -1.030323054918103 1.6816382501691556
Ni 8.253850715832407 1.210709386102414 1.4932220635279059 0.37839593711466446 -0.6370460869265481 0.8489980613509442
Ni 8.762523552270153 7.338360226985659 2.051347763855266 -0.24249333754636307 1.7338612120296137 -0.37757961186095623
Ni 8.473995114877601 9.271790049230964 10.306556360344398 -0.7931799259400597 -0.1941231737730915 0.840429860065959
Ni 0.8128079493588756 2.71610997121777 6.711893834952308 -0.417510643727939 -0.24693388981621991 -0.8679982566025309
Ni 3.7904093615758887 3.456951188088504 5.89313137631526 0.5955700791699484 0.03792402873928307 -1.3114307624025545
Ni 8.305357833595485 1.4948654666266765 12.682839028748756 -2.574766983290727 -0.4895722375808794 -1.364531755992592
Ni 7.831268078422009 1.0881231996809206 5.67595245293052 -0.29273680708294747 -0.33326536332461315 2.080220175313392
Ni 8.435567374987768 8.934703950324847 -0.0004325240953760122 0.6489862900075598 -2.2144821539544766 0.07577246704562433
Ni 1.62195593447714 7.196682671997024 10.670934823900568 -1.0912327459192819 1.2084357121955511 -1.180590922069141
Ni 0.217539831290032 2.314578724418919 11.029921342198044 1.9342031130189077 0.827575115590478 0.6509997208931626
Ni 4.1522407387926235 0.28086738969013986 2.8896397690645745 0.2597153578516044 0.8628848466353656 0.0023343045601314635
P 6.698243412194972 5.100335440493423 1.6208100754357952 -0.2528281438134678 -0.6555009511976259 0.750571861461546
P 0.28163726373354336 0.6418827192672325 7.069238834787594 0.6284891984954724 0.3353757247993966 0.010740783456271824
P 3.321229084696332 1.7302283060647299 4.585615747585028 -1.1584583518361597 -0.4047307183544513 -0.16725565995828615
P 6.396428286905249 1.3409283506776017 2.6756741510507105 0.12188777334644814 -0.12108404649823017 0.22006663311173064
P 8.787984992481611 5.296186874007477 10.844697374365147 -0.16761510018023393 0.11858390578419577 -1.8452200608202802
P 0.22429342647861558 6.07445697338003 0.4683830756057263 -1.257582606233847 -1.6582368405260797 1.5632464057911077
P 5.048979093656837 4.421536459874446 7.408917251311094 0.4553842788452609 1.1675633994612213 -0.9848165858458717
P 1.848819062934166 3.262852466594929 9.918759402630743 -0.17850526473017647 -0.43289458238317696 -2.217156101242214
Ni 6.673564096164695 8.51989543881173 1.8265285237705067 -1.4981740987718069 2.266622840513774 -1.2214989731374126
Ni 2.203498244325402 5.741243802648197 5.107882467682675 0.36065326841926276 -1.3674273323728323 0.7351969216673725
Ni 4.606004688438298 6.800173981686963 6.8499227335198185 -1.146155880319723 -0.10624595304413316 1.2249355096227872
Ni 5.782112146910631 4.504535854908692 13.589027893749194 -0.5084140528777308 0.19086738583995516 -2.0045945182582767
Ni 8.274006904067903 4.134035149418627 7.305396048544606 -0.07541045572051527 1.5766323401797107 -2.389449066514091
Ni 7.5362564911902705 7.081173295937783 6.442623556464331 1.4473691003047977 -1.540451262273463 0.203303811831095
Ni 5.868796006461044 1.4755008257552666 12.910596417263541 1.0857454975524656 0.3498728899743071 0.9487712621865402
Ni 0.49823477673299577 3.8462982593901613 1.4044726422845428 1.3913457908616425 0.4667940633440993 -0.922207909875715
Ni 6.429880586220824 6.68500384021233 10.636317819177838 -1.325888075478465 0.8856645635340424 -0.09827321925130171
Ni 5.966712300035164 5.5712024671131175 5.437174652007406 2.4860328138781123 -0.5070724512481718 1.3613045073045458
Ni 0.9730661364011579 3.82341877129489 3.648505650197514 0.4422204877697932 0.13157620427880565 1.4847953634720557
Ni 4.786336139706506 1.6534859044799315 9.498578734543033 0.8834269324527754 -0.652712075598579 0.5225893159368484
Ni 8.663909943161004 5.139234339528547 2.644932901457134 -2.1558540598986227 0.04766593861739533 1.6356489279232347
Ni 2.380352541101371 7.498997225980755 1.3070633159507539 0.2787230093023587 -0.6876574813255124 0.8352280041500454
Ni 7.602341272908614 3.222540090123936 0.6089637721041267 -0.9817112074476706 0.3621601919820924 1.4945498717556582
Ni 0.25025994929382556 5.40823794194029 8.642660665708433 0.56171019319771 0.7242995580285785 0.9012837581285381
Ni 6.503890264762941 4.0089612427100025 10.802384456163253 2.2814107974562257 1.7422278388267542 1.5607264675827315
Ni 4.789634253723535 2.844076795078472 11.501268951145933 -1.6775129151468722 0.6378387580311724 0.7833053471388252
Ni 8.57294795857136 1.9669198142925006 3.776464935511892 -1.7233551702919676 1.999805067289433 -1.8910553739868399
Ni 6.9627992722751815 5.573925766972892 8.70504119422651 0.23034358955770654 0.07320984852477068 -0.8040274101775249
Ni 9.32121464357186 8.14940415650457 7.757945349913724 0.9821230981741085 -1.523681499014292 0.629436135789774
Ni 2.5595626336037895 4.918826091361991 10.998200081582263 0.8751022146371639 -0.2840513634938076 -1.1808616592320242
Ni 4.64073854062906 8.646128397017767 9.435467909349759 -0.11505480958501475 -0.48486069103782303 -0.6841201575962154
Ni 1.248713082761487 0.9768731022950993 9.152487842052139 0.44284346606577274 -0.0345193739331083 0.32970644232876123
P 8.224883851579992 6.670143480769891 4.459572195355399 0.36978505551720187 -0.04476342025861968 -1.2715814916161003
P 3.0575778501750803 5.231053833762618 2.6946929611094776 -2.0142608377034468 -0.22757476856331774 -2.5297757632920175
P 0.9677420380593834 7.963861685089457 13.311081690759849 -2.6946521243848496 3.6228221653812707 1.3788540861525351
P 4.793111408215773 5.4433016055327546 11.512054726299906 0.2859115566309979 -1.6891903514848006 -1.0645938031755149
P 0.22226649983557897 2.340831711994465 0.06753877884070789 2.198547227891775 -0.17996256600199328 0.48152082803131263
P 3.7240607307361824 1.5883811337837905 13.422271479775073 -0.14614690300412897 0.9979747204943845 0.29379353048223594
P 2.7362096203558317 9.03638009387838 10.428999314385724 0.35782479783153215 0.3137445196828661 -0.24319987669508442
P 7.36222914928604 7.6787255935429926 8.585949124026484 -0.5028216463916179 1.3252260164144338 0.8231990980099694
Ni 1.2550360384912758 6.430219820805432 3.083842145570113 -0.2252471488714056 -0.3263663222119347 0.7198016701582248
Ni 2.9483254675652875 2.8662683908216207 1.7232966127192269 -0.6580910805223054 0.7408842018601369 -1.0897744162062006
Ni 4.682464394535923 6.192604840652893 1.2552386369237505 -0.5102410787841407 -0.026113666367916316 1.5563352804935713
Ni 2.251547053962053 4.21475413418967 7.497225667594465 -1.8081005302601634 4.625332568962479 -0.05733997137204964
Ni 4.600492126438407 4.547317105301004 9.47771203831644 -0.6774661426148074 0.29495155534607914 0.022106859201368376
Ni 6.655773126838553 3.6088811660786444 3.8641259791296356 1.7490862565094845 1.1727480289859544 -2.2866689605313715
Ni 5.582472593868449 1.4755385184868899 4.760494945223943 1.5177203963348507 -0.3465381691741193 -0.9454429691442555
Ni 2.6621905186308084 1.8529369938639986 11.439344504680498 0.20783563826317755 -1.0625618603471507 -0.5534592660428275
Ni 4.379546756846222 5.159277449569174 4.1374925152267625 0.09142945685659093 0.33723386105405795 0.1840418782776895
Ni 6.2462792904843045 6.761567201321919 3.2118023732027816 0.48498076155545505 -1.0622638694907578 0.7710998062115687
Ni 0.9143747839907014 0.2584694262413546 11.938923969614152 0.4877164153190633 -1.259130153226625 0.28316073335873815
Ni 6.8950277408167 6.75826908730489 0.24570289804058293 1.82902802444145 0.3210413104545955 0.0738366834754922
Ni 8.265959505866354 7.064381183999656 11.85133265754991 1.4885401752264686 1.2719049363937902 1.6305126351379338
Ni 4.3103052088544365 0.09006678221359314 5.863203347406454 -2.527839722611569 -0.583012554219912 0.14152148841697562
Ni 1.0995535205456506 8.084591504478508 5.420031997665184 -0.405905712499159 -0.5531692456062344 0.23587968888458732
Ni 1.5401155909403064 6.203234190970631 12.576227964307458 -3.583975110607086 -3.946107791785353 0.35027886716347423
Ni 6.1754734941301574 8.739540409162917 6.855659567272868 -0.25725841167067953 1.536236195750851 1.1437701536963656
Ni 8.675867962268457 4.150374948577276 12.650938727657767 0.9224002283921792 0.8966061501472107 -0.7470296526362425
Ni 6.526741483309495 3.1819261717999576 5.962614157789434 -0.3166364965186805 0.40375807002853686 2.99122141784001
Ni 2.4228982119210376 8.927118288085682 7.503073694905803 -0.22511268017607036 0.09535604560450674 -0.18138695715334568
Ni 2.913855464495888 7.899784041330048 12.848960320195026 2.1072504399583063 2.432980671248139 -1.0024394411339572
Ni 0.6386590483951599 0.9806706450061349 4.945070598072921 1.4594100906297318 -1.6508073808312278 2.103791534875428
Ni 4.995794649336528 7.032389478034481 12.81392963774273 1.7835644927920122 1.6306154792643852 0.0158747622487275
Ni 1.3981176477328743 1.509386591484507 2.988871538972344 1.0847610221520092 0.013209042491106283 -1.7476294694583001
P 1.183335039761078 8.764285687473537 3.2127673071323355 0.20291737502595375 -0.6828289495886175 0.1251448468311651
P 5.282315948770146 7.71364790939187 4.994100361050066 0.09493284202415908 -0.12108918870455275 -0.24737483400838042
P 8.738051546263803 3.7409282281375567 5.234201176853153 0.05713813977388869 -0.7844119499394426 -0.8443672474471523
P 4.398044464890297 8.49215358833707 1.065885430341534 -0.17720788607499158 -1.2174024344705356 -0.7095118581964426
P 7.626671931171377 2.1350388205147977 10.649074924195704 -0.9944443387436228 -0.38004607112357774 -1.4256211671047447
P 1.6740944054949065 6.44044397425822 7.010265729208253 -0.5823967750127841 0.7530874287945483 1.0847977889272156
P 6.9215540006965135 9.060343248007818 12.276684768416322 -0.4180006959904801 -1.0146588660182847 -0.9172148275364979
P 5.72487573394083 1.7310292766117226 7.4508164917834225 -0.2025337664342899 -2.160991638235504 -0.45428667490570795
