# total energy = -340868.23395120795 ev
CRYSTAL
PRIMVEC
9.24300759161674 0.00000000000000 0.00000000000000
0.00000000000000 9.24300759161674 0.00000000000000
0.00000000000000 0.00000000000000 13.52807590785617
PRIMCOORD
 96 1
Ni 2.6232210125248407 5.875068214357966 11.718425518270873 -2.1621542910850375 0.352985724571676 0.6763950210378158
Ni 0.5034693964135072 8.505942437168601 3.2381204112589272 -0.5053917211116393 -0.0774025464498796 0.5304090690915833
Ni 0.8215129689315952 9.027386710445379 11.138381501164487 -1.803712428494797 -1.407598762385395 -1.4150991845274985
Ni 5.7956430501238545 6.029352497075965 6.653242569294345 3.06191955568652 0.7237097469633794 -0.08375651369236543
Ni 2.7878851927681403 7.5456678924682405 10.088224253440945 -1.2698184861784068 1.2711886270530557 -0.9601885028845464
Ni 0.5703249946238813 7.405867402646185 12.843514904238276 -0.7117263493492582 0.05353499580366263 0.9990944359211246
Ni 2.5806292335430205 8.01067436139107 0.6141867628487793 -0.14345444377363037 -1.5362158840358766 0.7902797215741292
Ni 0.7445150184910233 2.080240531559774 11.522430315194526 0.38051324056798336 1.2103717528759994 -0.6787318967011085
Ni 8.661169506660938 6.1030377535957285 7.084977908090662 0.002316563948318591 1.031480565561314 0.27471645924612687
Ni 5.195245006000137 8.348718878036493 8.461108304545073 -0.046102450785017374 -0.49198187546363653 0.4699552346809003
Ni 1.2394780750180354 1.0776145260749723 7.793362009906352 0.12259636937769855 -0.8406784857416554 -0.7721855830765798
Ni 4.702906963629122 1.159026936941264 4.771988278067539 1.0627181834193569 -1.7957656628438943 0.4892467359206606
Ni 7.59011751597596 7.919750895713081 8.881425756063562 -1.1491360459939695 -2.8815016473146633 1.2452143144764813
Ni 5.229287002959782 7.211218905775927 1.3372006970803605 -0.0004926233657023773 -0.42943773418282816 0.5229531270341703
Ni 2.170960651070747 6.70045030626738 2.7101607419308733 0.06115343158086887 0.053096365604347266 -0.031860339043706415
Ni 8.678657277024135 0.7900885917218747 12.927523675937033 0.17703562216318544 0.8491541273128344 0.527349456329653
Ni 2.5027384085691056 1.0451253543907062 10.069515481774907 0.9919529397803369 0.49597299890090063 -0.6260530782501541
Ni 7.1464531515820005 2.991980043396954 12.251864442499192 1.1516040479184877 -1.5342111949010222 -1.5349357317718726
Ni 8.294822900770217 5.306188826121401 2.789800343941108 0.4588989768667387 -0.4568168975267294 0.027054433014630824
Ni 2.1635107869519654 3.432621944308481 12.90088717665973 0.5899835862211065 0.3931417279652713 -0.560218439143532
Ni 4.179087237401319 4.028842149000822 4.087359630062868 0.6063144621706461 -0.36617882622318226 -0.5199341377021884
Ni 4.0142566830213715 8.105868096576348 3.743570584199302 0.7824728239352009 0.44862407730329196 0.28627613905926824
Ni 6.477887926470667 1.141918129889322 9.194965210982291 0.6342944923233399 -0.4726029567163926 -0.6136526477032721
Ni 7.173017555400088 8.427034881359617 13.4333518878879 -1.0178799440587438 -3.058969729029577 1.3578360891399712
P 3.6175467971924387 2.459508862063469 1.026636566305347 1.5275358397633758 -1.0208289993847386 0.2603010551517453
P 6.349927729373376 0.7134742260963518 12.153745295411191 -0.22830599030238746 -0.07336951403108655 0.22190008677604367
P 4.039120373442616 5.830387515660457 13.285097743322622 0.5993246611163743 1.745555874758723 -0.2669388721832371
P 7.291133949412388 3.0593061106937376 9.856069480365733 -2.252606985850656 0.6386828511990227 1.1997073311836177
P 0.22306982091348757 1.6637413664773517 5.682049259726096 1.9205050467065246 -0.6404268304733228 0.08941628308130407
P 7.327033790897934 3.2467265756274113 3.3489024787473403 -0.2609512871412344 1.6938923849461605 -0.71960806609018
P 2.4635665423961557 0.14791492618666896 2.9950487219173456 -0.08534931210078205 0.2726176677355692 -0.4178150623422353
P 5.847487079704807 0.2629543229717454 2.7854441144632145 0.45491968050401654 -1.138822065662471 0.8541706066908192
Ni 2.213515458022201 4.186629531596017 5.363665544528638 -1.444338283898274 -0.35919930958155555 0.23378912490414577
Ni 5.3265141998151995 2.177144223149488 10.941453678622153 0.7028287897493122 0.6630147430761679 0.2170003354815811
Ni 1.0215741710474602 5.192314972593619 0.44402669029154884 0.6152775849012048 0.7696623024340938 1.7062897301692486
Ni 4.022677062937265 1.4034675157071532 7.615603260808117 1.0327910568426213 -1.084896519288609 -0.11727778537826254
Ni 6.17910770607411 5.3759180753919855 12.976238947448248 0.4903867630623749 1.7232078460808258 -0.2984580258374408
Ni 3.8784861445092282 5.923122610826386 5.486337816982809 0.8993317766084898 -0.8394528408646704 -0.6673794478027667
Ni 2.5231746983540027 0.3041892284391275 5.517723373560647 -0.34837265127969685 -0.42743561615113485 -0.10218181027708854
Ni 6.2037588073207495 5.577508070963491 4.146585125506425 -0.37570502054606264 -0.3661729126859113 1.5117508090149772
Ni 4.475639892968315 0.1221713014427094 1.1399891142049674 -0.7420288569875415 2.2319062629681947 1.0637592230893613
Ni 7.533651982599238 1.2253732454333441 3.9607498363747005 0.47021928697556437 1.9376453059312373 -0.12649159066704665
Ni 1.6796855545727598 2.7612468448893197 1.6502632128073669 -1.395621792529177 2.368013779458451 2.7288529386362743
Ni 4.681102708720677 9.185090905972249 10.72174461526895 0.20148475634448526 -0.44657207987026964 -0.4976575856921752
Ni 5.666083812713227 3.6383990223189544 6.062431372644571 -0.4628610468382803 -0.03671226781936904 0.24917074956653865
Ni 5.335110196875332 3.2951229633767194 -0.04355397607209961 -1.9819202165892125 -0.7849169146003191 1.547522824408264
Ni 7.2584229455459255 4.370740999811919 8.13191581627007 -0.1012040197448515 -0.7265431026471164 -0.30406997270757957
Ni 8.749560388258843 1.454082225278431 2.1902905528469363 1.7342324793261037 0.6762014169697709 -2.2894976882294182
Ni 5.78013328338525 5.109636269687286 1.9955265183817836 0.3716038538934955 -1.2896465766479273 -0.6737938359695428
Ni 2.54979456021764 2.2189411034784357 3.8397551697983943 0.06734876175830337 -0.7969967285829888 0.09437568396910842
Ni 5.2801882457663964 2.362466525359882 2.9665987445505833 0.8013565482135812 0.8563452457446349 -2.683337727813295
Ni 7.704472005898504 8.280958389382906 11.16603288267534 0.2327120897898831 1.467524749317066 0.07117327771071613
Ni 4.713138973032957 3.50040091897725 9.235738890370856 1.6785925213642963 -0.08279672088225741 -1.3369314777768202
Ni 3.8972956649580137 1.574176622915321 12.599414468151755 -0.48864484067060365 -1.0423470759621727 -0.3948414842651974
Ni 0.6956093410234216 7.946361514569128 8.382225704856587 1.0135023838163384 -0.40604918005555873 0.25394348836483366
Ni 7.540556509270118 2.0470304052833677 6.30159419407569 -1.0005126564248896 2.5227018871643714 0.08747432886358485
P 8.75451464032791 0.4746441529385279 9.468652514369333 0.48199468234393766 -0.18216702985247982 -0.17859422489955695
P 0.5713029048270664 5.191252026720591 8.81858716895247 0.3882291211550024 0.3855014378111941 -0.0962351057753504
P 7.629520457338699 6.838873587958296 5.180820368352778 0.735195893226108 0.22770383794201426 0.3062944911627241
P 4.17219195373803 4.847116368072342 7.397205780232153 0.04083374618691032 -0.532226067695664 1.4386522892570899
P 2.6541019008881785 3.231170593850848 10.65601111818019 -0.3285689862902083 -1.3956439040163642 0.7124354596011407
P 2.5226755759440596 9.030603277087234 12.246425856832328 1.923324261322875 -0.8145344803564359 -0.6538320481356352
P 6.024546133128364 0.6558939860040889 7.000143735813982 -1.2545746726454587 -0.5511979808124765 -0.598870090077459
P 0.08350780068729405 2.8145050546317787 0.2015456291350664 -0.6847261666113303 0.03342048444197469 -1.2212050960460776
Ni 8.002873262983808 0.11115178779207441 7.370636754910269 0.7801089516887145 0.7251616489185576 0.09361309477147103
Ni 9.144283027455595 2.647012514065467 9.023984359350932 0.6610193099126938 -1.4696860186344431 -0.04366555920875061
Ni 4.734397890493501 6.662535489126879 10.76600845432408 -0.3858444229729097 -0.30170764312299003 1.5290713025712956
Ni 5.6379758266273505 5.868450220922422 8.938270252751538 0.3467487425230286 0.1909766577243098 -0.08878996235121482
Ni 7.206292382729636 7.681484646018342 3.0917333542271406 0.298918253303311 -0.17937764003280074 -0.9112064165588888
Ni 7.298500626462847 3.562144209688743 1.0078251972550432 1.9129285199108472 0.03720669095728431 2.0439015433880154
Ni 6.7343351720979685 8.950235326078786 5.093483189620308 -1.2649945824272022 -3.056723870418194 2.453320668357071
Ni 4.573227567119804 8.06616937897068 6.217517024120758 -0.6712407305303859 1.3130893810519 -0.05455906619280282
Ni 2.2003626582194387 5.969864500216808 7.3045390833224 -0.6714865279926049 -0.408169054612039 0.35634204263841857
Ni 0.24318260543268044 3.773568765337648 7.085776503946571 1.0349453841814626 -0.3107733528696841 -0.5948015764350402
Ni 6.724130891716907 1.2342835047515894 0.8989693725487075 -1.0506723079984164 0.48978589625358226 -0.005069186992791269
Ni 0.2645163912547159 3.1401916701273116 3.9410797919191425 0.3205016359010416 -0.1183648477948542 0.20484004596996336
Ni 8.991449896929467 4.2122603916473595 10.739276752068585 -0.015500152518128143 -0.936606087578916 -1.2436019756840389
Ni 8.43982720386631 4.739176525418329 12.743718151272411 0.5479581337189402 2.124043343145929 1.347312563900828
Ni 4.259603076531231 4.238076111850533 11.73145261317039 0.5466936651842198 0.1591651696406678 -1.457069615422013
Ni 0.5698295694169747 6.299895329280366 4.631485319668527 0.003761009704329006 0.03962584192173821 0.0019499246375192228
Ni 0.10654045130465468 6.40681844109931 10.68289163285791 0.17723025467249476 1.4045180665775423 -0.4757440734485355
Ni 1.8725316649626678 1.0053619357318977 0.35854181028042426 -0.6698127398346078 -0.7876618243353081 -0.3041882434529987
Ni 8.208955360244802 4.5172334271302494 5.341506358128679 -1.7648795147879992 -0.08442782872777718 -0.5884512087369801
Ni 3.4565058759250222 4.6380765083820545 1.3431171462397056 -0.7543387847031461 -0.019602861832592047 1.6181772535010326
Ni 2.5413094792486057 2.9416426240534226 8.374961625190394 -1.3326778447067886 0.33362197533308346 -0.7456847085725739
Ni 2.9225095983389333 4.898239443061154 9.392448538280876 -0.6982519690119071 3.4029506789994817 0.7843461296985137
Ni 0.2381488634983273 8.60935320610276 5.950080766767875 0.9973710254721146 -1.0415158383101288 -1.6975418087732894
Ni 4.598830698148372 8.087289651317352 12.755068564594822 -0.21782977336141196 -0.5785974558713519 -0.7490410266393164
P 7.765780875253195 6.446119709378542 1.0070959239560706 -0.6798351570676162 -0.867180645797242 -0.545780409341331
P 3.071802656957501 8.762888805205845 8.212123863247182 -1.5361130399094254 -0.12801651195200534 0.45557916846488633
P 1.4022566817126614 4.692166588807751 2.7956446976412392 -0.8144810014106811 0.17679830934139873 0.13009602018885336
P 3.678855666547129 2.5744456614642797 5.828787551046362 -1.6454486876224759 1.4586523865281007 0.2200018413120663
P 8.940215905849557 8.730917241946706 1.2514699530673006 0.6336843695431668 -0.21346095486975497 -0.7611020715689086
P 2.3532604897987075 7.201393588706119 5.546253765093455 -2.417343221821198 2.964243089478953 -0.4867131708655295
P 6.79780690522908 6.3952092235643345 10.974110148743826 1.3738054679850338 -0.9105803529391157 -0.47216304096549655
P 4.152781637795794 5.99584659455663 3.297603786614289 0.7339303962501231 -0.11592872754953581 -1.6165055222255642
