# total energy = -381168.9957017893 ev
CRYSTAL
PRIMVEC
9.20306410924168 0.00000000000000 0.00000000000000

0.00000000000000 9.20306410924168 0.00000000000000

0.00000000000000 0.00000000000000 13.46961458384901

PRIMCOORD
 96 1
Ni 2.293440420241925 0.35165368604698993 0.023054596221361003 1.0491571569054703 0.7656938047046491 -0.47883428233808495
Ni 0.29083155480777684 1.1077636392036254 10.51909598131742 0.3267023653951147 0.7374708053032138 0.583366338014905
Ni 8.89246081948428 0.18009752498290682 4.061465939181472 -0.004060800332934942 -1.285654681879715 -0.10345553478318958
Ni 7.661624602232567 4.036960940036281 12.666327320018183 0.540217827651889 -0.5415491448688028 0.74266983300565
Ni 5.204296014049244 3.4002469407648506 12.959749537408817 1.0193372453305605 0.7489492382564585 -0.337715942896799
Ni 7.755238171656416 6.191361465778058 1.4552842291015542 1.0641284335033223 -1.6999342202648657 0.5221884809540039
Ni 4.9011286719375216 8.195466749457223 3.5169298313128405 0.995736060971853 0.41461043936200853 1.276785404414543
Ni 9.020742331890789 3.481767683780625 9.565824181468704 -0.2385767761007762 -1.1126184106839097 -0.8041816763672021
Ni 2.7152536665034956 7.141228131858898 0.6575828677363854 -0.2770348229666584 -0.7775735868613706 -1.0484135938712267
Ni 7.265681169542608 7.993569926214951 5.107179758376602 -0.8569725949159887 -1.3746562460211034 -0.353709747221894
Ni 0.03866943531312708 8.101374620693026 9.872042339375158 0.706855394410202 0.9879911269191113 -1.6143702210501167
Ni 6.306593033095794 3.0156140740227797 7.311266707630217 -0.69641414447222 -0.6403198725818133 1.3128368987214614
Ni 2.3540057859889116 4.266614205018854 9.803346986680763 0.4000806211769497 -0.1714118482185048 -0.0019517244097321223
Ni 2.8881608373976437 8.466092056425145 8.718585486232346 -0.7269727339853673 0.17675820013208268 0.9412862666634046
Ni 4.746968142895161 8.392393918011246 9.995949635349584 -0.43496123510421864 -0.03256122176547295 1.0360116206624481
Ni 3.187527313979278 8.858519918576379 2.1139889503684905 0.9991602561620534 1.2002830011814296 0.20643875791565094
Ni 6.331855444427731 0.9877096662254393 4.156345850244401 -0.21170257741775153 -0.0547243881260735 -0.8351776105280841
Ni 0.9527748343798896 8.1011721532798 12.056396078290726 0.7424050093800375 -0.699965352158588 0.39870276699281654
Ni 6.3158237065260066 0.27457618244508075 6.537154640518608 0.17510600924064038 1.3665603563868465 0.2952444039961496
Ni 1.8367751697129426 8.485648567929832 4.503686980389698 1.0356179847684552 2.3731708981793576 -1.4263081658694403
Ni 2.2061309498207637 2.568906538998772 4.398866839643846 3.488382266401424 -1.8178596665294562 -0.6888993241524136
Ni 1.0659909306296134 1.8171174245016428 8.211912625249637 -1.2081983993737646 -0.4813799315780741 0.8420797369645562
Ni 5.164281090744594 0.8135269506279736 12.302593691853051 0.011703147369541134 1.2364787343756964 -0.421311505531268
Ni 3.418082479257125 6.642339222608265 2.8191369353099707 -0.4922757525549716 -1.7648538037563863 0.018220122552452492
P 3.737980992152622 0.9720920662144019 3.871423582983523 0.0409540738148585 -0.22723075496033768 0.3613286972197326
Ni 4.549249510816713 2.4413612717312607 5.551824886704987 0.3427511913278613 -0.3787216958851994 -0.3263053870670122
P 6.104558163889958 6.316615170050431 3.8108232455924336 0.24606100029296335 0.6576097700105126 -0.00044891461196051716
Ni 3.7074544280768347 4.366476655059965 3.829788920373073 -3.0634059104240596 4.5265384442107015 2.377387764474183
P 3.7215167102317346 5.072112402406033 0.7834734240539939 0.8843815830565607 -0.025129962298408335 0.6001240170892181
P 4.585141461342963 8.527853820523008 0.0823895122797941 -1.032494094427493 -1.0517496002229951 1.1139630976372623
P 5.834439025455099 0.3074660934170579 8.589816211421248 0.7311530906153021 0.879061456395228 0.1667823198662934
Ni 1.203208618410737 5.322334515959417 7.8328503732905235 0.7323118868100936 -0.43903746205612126 -0.5843325585829162
Ni 4.850971971843148 7.6847058873402165 7.712526750530179 1.2491455312100874 -0.43984581689002955 -1.137658898592305
Ni 4.913654042364759 4.017993424642794 9.627447899603004 -0.5904155315522025 0.767979258304716 -1.8100139452327926
Ni 8.070056593092813 7.192130280156509 11.752844968400298 1.7879883328913204 -0.8414834981414541 2.444289668503055
Ni 9.091154976371902 6.904055963394288 3.8089108488438814 -0.35871157131185966 0.0002427121384253884 -1.1079410598128983
Ni 7.86558291186404 4.565152405819113 3.4712541031957045 3.8388303121529113 2.4027802364053588 -1.1750933892896795
Ni 5.885939372928148 7.588699521214617 11.744803330869573 -2.5573266763270923 -0.29142374469847876 2.7943862444523937
Ni 4.43905201963689 5.367070611217905 11.25651635162054 1.8812193617330246 0.0409198781428134 -0.4390935121050373
Ni 8.436541017158534 0.8708086630550206 1.8512101759694612 -1.2803327554461692 1.7823355054809176 0.47541574357483923
Ni 9.019776010145852 3.629476864792498 1.7553197684532547 0.14310785906748902 -1.042963883610565 -1.8539468991703167
Ni 3.2762356501645393 7.131969849235972 11.797443017695224 0.1562549379724083 1.7710223944609436 0.3036380273764835
Ni 7.054562875934361 0.4309647733393403 10.989293417501223 0.6234737475587521 2.3817915499688334 0.6724717747240097
Ni 6.981610185723699 5.309965597624218 10.900272177131885 -2.7507515384815786 0.09249569333757618 -1.0675775683941873
Ni 4.7444925186152735 1.7459777379457686 9.849170884132123 -0.2855503166368372 -1.25344492991639 -0.20302304736588261
Ni 2.586429173306972 9.192499119755249 11.04824916731307 0.9963256149267357 2.023402137883083 -1.2883368566975684
Ni 0.23228073982237873 7.699366368670554 6.020082316947523 0.5145268506436881 1.0464281880100816 1.0516984352700856
Ni 2.0323586908882905 6.3757264516478935 4.737290200543006 -0.569632019147948 -2.0352158426885594 -0.5572719549206984
Ni 4.067855626681569 9.025012553696989 5.787152761096401 -0.21319818812667155 -0.6357579642427438 -1.51623147049415
Ni 6.057558114829047 0.757551153016228 1.448912947729933 -0.7034553675897175 0.5585945303868639 0.5932465732430944
Ni 1.7185986218392062 6.697520795776315 10.022726871055015 0.656974707529675 -1.5506459434182778 0.12035051076631532
Ni 5.8914704145348855 4.410467302115215 1.5982105776291988 -0.13183691413936005 -0.25968270484145595 0.9558425672110248
Ni 1.0549472535446136 4.434036349627452 3.797259769519206 -0.2882373765506972 0.9849523400927875 0.9810712598708264
Ni 8.331515648080185 5.554619857313915 8.846883564154483 -1.0830640940655605 1.0807267041816355 -0.45396785811370843
Ni 8.700843818995292 5.617624035083838 5.743646195220044 0.2411414515041589 -1.2688512371691307 -0.46765255468965267
Ni 1.895398688905817 0.9747701579075144 6.295240133052414 1.4624478490147912 -1.6084140034666816 -1.566842093562166
P 9.136756159668714 7.376081128135658 0.30091627259922926 0.2135028638512839 0.1052905311093993 0.19280445496166795
Ni 2.6385185168912213 4.990508831812121 12.373390104112866 -1.305759680159706 -0.9964780813441999 1.173376920819205
P 2.3518614720215747 2.039343816644553 9.868971276839105 0.23320651292779837 -0.258974880141154 0.5803278082988973
Ni 3.8575379996619827 5.56818517399999 7.923864997373703 -0.1894684486098995 -1.0843172497463713 0.22371194317380183
P 9.027534193298065 5.227754624790631 10.911492553050245 2.477591625089294 -0.028479338386615472 0.4977303479116396
P 7.692942629832778 1.979717163449791 12.57606734720248 -1.9400408027466072 -0.3079942474626502 -1.3731140983449641
P 6.953053077394737 2.7581767581071954 2.794136811308802 0.20264149565674777 -1.5661370970753414 -0.4810112353847458
Ni 4.362464119052415 6.250371513668908 5.369015218691288 0.7547853853222614 0.27117553597240396 0.158675631598759
Ni 1.046250357840176 5.783592095542912 1.9892736253540109 0.18132010847115224 0.8486023685744224 -0.48394434987114077
Ni 0.1364124196603423 2.314708701694787 3.857885875490161 -2.405614106309728 0.4791849808092844 -0.4575733160767797
Ni 7.566069186254605 7.380176491721345 7.5473621175790395 -0.03500042733458488 1.428744800335391 -0.16064946749567816
Ni 3.5209635343681365 2.5766463160225093 11.666437398274415 -1.6442374409231943 0.2217334792911923 0.19415145590786564
Ni 5.553359037513377 6.932336979796125 1.3698871554289451 -2.8566331662077578 -0.21153365594005505 1.863394931957094
Ni 6.6134231947740405 2.972184813886018 10.5723412297699 1.8994785650535289 -1.4120179744990133 1.2763503737596533
Ni 6.053895295262522 5.636398286128339 13.110730407757123 -0.1491296397815367 0.32519132806722706 -0.9911106463846994
Ni 0.3487077851845662 5.330920974893004 13.210405115287788 0.22431409553417497 0.05692705220434712 -0.5662242790179797
Ni 3.8607498690808706 1.1420082412313626 7.595865947336359 2.5184950481718755 -1.478493589623744 1.4342410475632719
Ni 0.9114089012451752 3.3095415396400516 11.659298581345386 -0.22616374714840404 -0.1455349804517429 0.25914097340537307
Ni 7.174948159225098 8.170609272951737 2.6652865495324134 0.5765012354639556 -0.07478696320390346 1.841946018054699
Ni 4.109987254760843 1.9420674276541787 0.8776787505083142 -1.5829513404192028 -0.05165089140707234 -0.05157812918760794
Ni 2.851587860117819 2.929004036483668 7.240766634038849 0.7478490632137442 3.790720086909246 0.6396387873543887
Ni 7.496770112546231 2.7192846086395206 5.382848344546674 1.2289927104112963 -0.5699647198970185 0.22188388882612753
Ni 6.586090093988666 5.423963954334129 6.75183267937392 -1.4624252233069717 -0.0531012507003537 0.582774470067177
Ni 7.096795737720248 7.752385221742791 9.947566365733776 -1.6187364684386119 -1.284368873188756 -4.7933253641971065
Ni 8.885760988719378 0.8175523709254562 6.298459364922691 -1.5281832435393874 0.35355933768695885 0.38443083045483467
Ni 6.115914745159034 4.202100724713979 4.407271077905531 -4.917173603704035 0.7593431798962729 2.530078382134101
Ni 1.5643460621544705 1.349086389639348 2.2154288056199096 0.11722430643250778 0.8372013258263323 -0.1651974918776768
Ni 0.973527744235452 3.1986078033212277 6.080655965452324 -3.197847094955486 1.2360969255562453 0.6408788304090769
Ni 2.468179000919336 7.296465419417046 6.783230773632999 0.4904528404136199 0.05728546398503038 0.16570091387665656
Ni 4.705480729312512 2.855729239024694 3.0879363543331726 1.8606479653395762 -5.073632430157134 -2.349121056319006
Ni 7.963144595845776 0.858453549316177 8.543614988336149 -0.42954109252991185 -0.356938795682153 0.23014278640081007
Ni 2.2813015785126627 3.6216082448694356 1.9112574091998769 1.19813253049733 0.5728924350667747 -0.47925105816052954
P 5.882580254481462 6.109803910505334 9.152791578796133 -0.7280662241598622 -0.6082538452852041 -1.6028015423759105
Ni 9.185780882861875 0.7505531429700331 13.162816990422101 0.8367323566097139 -0.306358254521124 -0.14604997241494846
P 1.6156347391500574 2.639355995736834 0.07631641018946791 0.4991621952621597 -1.094925878500153 0.8573484901981687
Ni 0.7840799059872452 8.374622800968634 1.9578488422086437 0.43120408205463157 -1.144568738338261 0.4055159332599081
P 2.6255237901878714 4.807910834275885 6.050510408235969 0.7627457778199186 -0.06822936459104378 0.443653620671894
P 0.9832737892629644 8.641769349654782 7.913546521750618 -1.8466033143210518 0.4809618702040491 -0.7120533936713737
P 8.275156082689735 3.9936329136061315 7.099685499890823 0.29720461304631396 -0.35873548257125965 1.1212853423302882
Ni 7.073659234227173 8.160329450198448 0.3924738774724208 1.2833319472838092 1.510379382588747 -2.623938302809055
