# total energy = -381174.9706720144 ev
CRYSTAL
PRIMVEC
9.19163461184634 0.00000000000000 0.00000000000000
0.00000000000000 9.19163461184634 0.00000000000000
0.00000000000000 0.00000000000000 13.45288635910139
PRIMCOORD
 96 1
Ni 2.761157823874054 0.9141935371024427 3.152576227408744 0.9404529721288319 -0.7831287123516448 0.04298807352575177
Ni 2.538370985918337 5.326736048027763 11.563306960059585 -0.021024424770467016 -0.9981744952100164 0.794653939382425
Ni 8.329725776622292 2.313139173175253 10.006189838513155 -0.26214787855249694 0.0879003606574099 1.502501265392251
Ni 9.284010466093388 5.905671149465207 7.43090340995938 -1.6017167939521642 0.16299919867477733 -0.7355234517688559
Ni 8.869817030498021 1.4216976890471391 1.064451944401456 0.024815002161150814 -0.05897622142389197 -0.13854492228715493
Ni 2.7204940326736207 2.855969534143598 4.621792828695485 -1.7775619953516741 1.106526953074191 0.10482361877530978
Ni 0.8733449940477764 7.2259023848365835 12.143288069507564 0.09778882341571546 -1.9033848420864705 -1.6911243352827197
Ni 6.627839491923527 0.7127570278538611 4.115923868535273 -0.4872055371209157 -1.2794094723009513 -0.19569180381179202
Ni 1.298419486610384 0.9945532403863541 5.599939001429766 2.0307732335361734 -0.26024037711713893 0.437647266576814
Ni 2.387030723234086 1.9692525501685183 7.525612173922087 -0.4321883003447718 -0.937563823506495 0.9001308754710176
Ni 6.59673500064363 0.7235038869568327 -0.027284447965498358 -0.059596114396078 -0.22909480475227 0.44236986886346397
Ni 8.293152262791704 4.466527738063091 5.808162613621928 0.3139332386549045 -0.18111236333572034 0.31059106165554895
Ni 0.7366341368957607 6.291894441158469 5.036572690574438 -1.3790474331102638 0.7250474919381964 0.5309929666195113
Ni 1.5392127366279558 2.7101258689136554 1.9488792922128768 1.2261886653035978 0.1738510537876167 0.9563027946768949
Ni 2.2234196284403014 6.991368637940055 2.9414866635673294 -0.08405116211464879 -0.9469465502729755 0.5942166504658476
Ni 8.767845036922616 8.693466330233216 4.567712008558508 0.5883946444674318 -1.7288107940899 -1.2997345570115486
Ni 8.082939580885308 2.9024056718345084 7.826243883951851 -0.9388498893077701 -0.19034725167042701 -1.3678523357253927
Ni -0.2625075674524504 4.487162957603093 11.211837238558195 1.2753653841385648 1.4565265984343496 0.10297088183728718
Ni 4.593712385178911 8.445025640279216 4.195807445150065 -0.8053921517355356 0.029866705652445338 -0.6262834490934053
Ni 6.088382460830987 7.960874674207697 9.998251942925295 -0.19112860992114183 1.0369323327045046 -1.4376670425256852
Ni 7.896376974647698 2.6808137463688584 12.635529512300291 0.8817312899179073 -0.3517983891317941 -0.4183663068600149
Ni 2.0882290676410324 5.791897097141755 0.7548253008118495 1.5510652903438835 1.283351744778151 0.08409898463344871
Ni 7.159961598653965 0.5582603578689255 8.626286511714744 -1.6561244221687672 0.2784838967083591 -0.14872854768837612
Ni 7.652136861678009 6.710876718348642 11.19923183095144 0.3353363869210289 -0.2316571661628075 -0.09268904029530488
P 1.0308418135462338 4.0366074157715355 13.889835587267763 -1.141703500975324 -1.067788913074045 -1.8104232648560692
Ni 2.5638501968603804 8.672132546468251 12.287664749865089 1.4674213909699825 -0.05458272034188664 -0.4479838726161317
P 3.265677452083944 4.420165133448492 2.6288552746469316 -0.47870572718002075 -0.5826595417558675 0.5868506970190797
Ni 9.114461575387425 6.820634026378563 2.684456391136655 -0.5041748179854026 -0.2079320546317258 0.3959192907104085
P 1.7294152301430001 1.8229125366734709 9.693988618089183 0.5518443561472238 0.618371136224864 -0.27759146680107677
P 4.546200826246941 7.396977086876017 8.532398560716366 -0.761310845145605 0.3641571678074631 0.010825629860594259
P 0.20445688035808934 0.7425305704525144 12.515449079519644 -0.10479353686832274 -0.39031917091481166 0.5742309513725401
Ni 6.183800818980103 4.317944965740533 7.227200243633487 1.8412981000580546 -0.9807519288581947 -0.27211938794291196
Ni 6.754987372501191 7.606059197734119 3.439082233479009 -1.7531429430773613 -1.8347487289753113 1.0925391234355313
Ni 0.7845547235647157 8.380877222831698 6.925747720639392 -1.1844907713441792 -1.9862635811595726 -0.5395943351352771
Ni 8.459015308047537 3.6530037399218824 1.9677533945752113 -0.9432395337350336 0.5425346487105237 0.0006499748791730741
Ni 6.189159541916326 7.2324835951664905 0.25137649802574963 -1.3014862495953328 -0.24357294376378696 0.835465059861516
Ni 8.19051847152949 1.0151608850227398 6.0242965464983325 -0.974506205058799 1.1516338727151585 1.562953042920405
Ni 3.996007966012875 0.9931653035709685 5.718929306354088 -0.9776378087092452 -0.6736732512312785 1.5263505612060229
Ni 2.093119017215768 6.356594356678325 8.176610609308565 0.4904415275597102 1.662937845546175 -1.0842516866157585
Ni 7.71393222068355 5.0635335930041645 9.265674993515038 -0.04491485823481942 -0.14930884567187835 -0.8553669409917657
Ni 3.2200593698670033 4.674607960756445 9.029173317663714 0.5603657633546737 -1.362488243200002 1.725697445271899
Ni 0.3481680863749896 2.158140639944489 3.944225054510642 -0.2727925027505366 0.6841281280160153 -0.9640469573986882
Ni 6.514506638057945 6.608389993239052 7.562015642513705 -0.20708153370597238 0.4493727825438584 1.8018010704046967
Ni 0.8554222258602259 9.247795426009821 10.59046160296393 1.3775669919099953 -0.4320198930877076 -0.7621582807475649
Ni 1.0927474721662418 4.663706682193219 3.484338165295114 0.4766424168930888 -0.3393681337882413 -0.5190671617162029
Ni 3.200710979162457 3.424242339515831 13.11817856528814 -1.3800013123831008 -0.36688536537190364 0.41366735872244886
Ni 7.844747563442265 8.777202120883294 2.107421200558416 1.3210338327099571 1.2748030838771915 -1.6480197907837617
Ni 4.72315817439132 4.819440546187101 12.187964928347714 1.3607941433270307 1.0899399952497875 -1.4781169230106157
Ni 8.24882100941022 7.829011485111538 13.227295216390694 -0.29833024201032493 2.57877147646443 0.14909698677138836
Ni 4.569621111052253 5.496091914408407 1.1415807881449171 -0.3075417333062639 -0.49022066979815576 -2.56147695105004
Ni 7.3414504226260595 2.7494844480095533 4.325412249639998 -0.3377660794084441 2.3754293551962316 0.6007526518121524
Ni 5.078368891150073 8.571190015961209 11.9216924673881 -0.0037656376900193213 -0.4725973002894377 2.3510622392057767
Ni 5.384275680241756 3.2218793135057204 9.333895305063324 0.7365225824573315 0.05485988526267326 -0.2962718168193994
Ni 7.116108310268507 5.02270435238203 12.80979830734202 -0.9856660783303606 0.5235781622126788 0.9838765905301055
Ni 7.8210791045044 -0.007527948687421895 11.090411150481042 -1.0691839936493586 0.23743854873127496 0.5419931743847569
Ni 5.731425333509827 3.1662974994485285 13.47185519824234 0.3630004284952006 -0.555793570602959 -0.21177199720310624
P 6.843888861762173 3.9262342682275033 11.019756894106836 -1.3487405545966062 -0.7542595947257783 -0.8963194721447274
Ni 1.0718824617627647 2.7408810780810713 11.866481995366282 0.7511639865195903 -0.7525765505964006 0.4084205085012128
P 6.71744873704401 5.654123687037033 1.8145922690887892 0.9769922047054463 0.9928122024568385 -0.6549630764162849
Ni 3.0228160842951026 5.973523795631934 5.32673788635467 -0.40184799749001765 -0.07005021984986644 -1.0727920227155912
P 1.2084609593774192 5.900073444030971 10.090216084814665 -1.7131044390982368 0.22925061360384386 -1.0436449688379896
P 0.36774534877955606 2.7457802192903458 6.177080814968657 0.09200332708218993 1.6500044253139585 0.7529082229042066
P 4.167395183626634 3.169293972308235 7.0402313671492545 2.0887919761428027 -0.8276219096680134 0.041444897408347975
Ni 6.207974817817612 8.740913547723414 6.039807429782856 -0.2998255956089288 -0.2996592452343936 1.119591242457317
Ni 5.463369695449651 9.32381024364716 2.046614861429269 -0.49041864474157476 0.3423261879753008 0.022154938830484427
Ni 8.474392912631245 7.646713797300014 9.06162162591321 0.3632413408614131 0.13656491574264867 0.13245655000122994
Ni 2.467595399968217 8.904910691167835 8.370533876484986 0.4935371357658984 0.025318938380762848 0.40322250924004105
Ni 3.3266639472500548 8.162382878205683 1.350064523594532 2.480445549598322 -0.30007370706399294 -0.5752753334766544
Ni 2.386736590928839 1.0586373163920995 0.41558780655492966 -0.1439311262997328 1.0539095839887915 0.4308112174915871
Ni 1.1504525538019374 8.210473510113609 0.9523498504006426 -1.8203778049656196 0.20633925622330915 0.229202791085044
Ni 5.918861145028639 1.5980116227737897 11.177209593759507 0.001169851938385082 0.7023251106400162 -0.30065991858476604
Ni 2.3691621856903153 4.099220830251044 6.816792842304724 -2.2133866068974526 2.175743599733698 -1.1749609774768732
Ni 7.37790444520764 5.4475049342353765 3.9047267625697515 0.2445671893562562 -0.9876609972732023 -0.28282751838903547
Ni 0.6789198636255263 3.9323742800995394 8.750833159717876 1.4743641408364028 0.18343124127688412 1.0067519524663824
Ni 6.047424537325306 2.024604573362236 6.733385193007688 0.2569501364016413 -0.3465183716797774 -0.9229095639284299
Ni 4.689287001115191 4.2435846423202115 4.858900233262927 0.3798151860596943 0.21437009694758566 0.6811790726900204
Ni 4.22527490631857 2.490252779106794 1.5584903517465516 -1.634361576570379 -1.247094819328646 1.1472866514900564
Ni 8.936529913981916 5.804103587809515 0.5025985765912445 -0.17338182746068204 -0.6281436422305956 0.46902783777062446
Ni 5.747786442989205 3.8708454784956294 2.5743038428215588 0.7225740906970394 0.5302509462471643 0.6599772418014246
Ni 2.100757265517658 8.273978513143398 4.873119691894724 1.229577893490805 -0.40231439560347493 -0.3677042617287732
Ni 0.12610279173058267 0.8504973480742422 8.380731075842528 1.5825008831453455 0.1856220782806158 -0.1744580912439963
Ni 4.594677506805503 1.04614588505363 8.282928407694 0.3397244886863956 0.14704858888279193 -1.1083683771583042
Ni 5.562749648085066 6.428270722813266 5.334244694282653 0.9392484102977695 -0.11367309874613972 -0.421127671655236
Ni 3.925039355737436 7.724052210310964 6.453376753393026 -0.28336950693543456 1.5464085082981625 1.2198035877128606
Ni 4.672484693177942 2.1236260522506316 3.9853502657649313 2.399877718046583 -0.803915824300325 -1.7053505061844307
Ni 5.512195658120694 5.764607134195533 9.783396566413261 -0.8343916242916792 -1.2053850982946854 0.025486574306878687
Ni 3.0170161629010086 7.370385688154757 10.15244896562426 0.36823468031094647 -0.49328851009020214 1.0436511394855768
Ni 3.978608201830592 0.38159346537597827 10.261767832686672 -1.4220319070915897 0.8459901277625559 0.34861819163159957
P 6.793242955452412 1.9866615059853403 2.3509728601011344 0.14580648894557469 -0.689454168214619 -1.2192934808456615
Ni 4.40841822450768 5.493821580677279 7.1933924926356765 -1.8554463665339787 0.901127949276964 0.4702761083554288
P 0.8118263032418596 0.33237134325630435 2.7120882828877266 -0.9955910507535564 -0.7792486605709482 0.02869428261089897
Ni 3.433746489629133 2.9253388000092553 10.693147786543015 -0.36107750044087494 -0.6038060939264955 0.2957406269062778
P 7.917425817741955 7.339492604469257 6.293892702507241 2.090099896320949 0.5282580841868515 -1.1391172283053865
P 3.7558581304130314 6.799465692035299 12.646022682289987 0.5185943358448424 0.39320034911734864 0.8120651928803369
P 4.306446230932273 1.4126347373917079 12.814076094056459 0.3562381700707026 -0.007789414137431746 -0.3055938655512737
Ni 4.443236136141324 6.185473696466197 3.218064785172045 0.6112594648807473 0.6444086979392063 1.5390402408585493
