# total energy = -340894.8521300346 ev
CRYSTAL
PRIMVEC
8.99056859486422 0.00000000000000 0.00000000000000

0.00000000000000 8.99056859486422 0.00000000000000

0.00000000000000 0.00000000000000 13.15860591918938

PRIMCOORD
 96 1
Ni 6.495532805416266 2.1599750595771146 11.336204057585087 -0.6394408124109697 -1.810382898536437 -0.04434895842902039
Ni 4.446132746183539 0.3367426372387264 6.017443149483794 -0.16113746287569022 0.04685115602558383 -0.5819231778104752
Ni 2.7088582489441566 1.6629854308237657 4.498256465347424 0.04988994285190763 -0.5554806673482305 1.9143197438314195
Ni 3.4928358105370223 4.148724744606796 5.0297581888907565 0.030643693027785936 1.6138745123606204 -0.7499655953361148
Ni 5.131861376663024 4.5215815959184855 2.596601113258323 -0.8816261317986107 0.8289786808062239 0.4779608785941962
Ni 7.155503457524609 6.041086546175043 2.6646174601243606 0.382617945615812 -0.4894580806005184 0.36258159579022714
Ni 4.869318799213082 4.848820303336573 11.139798798212505 0.4008864049076967 -0.6471510365710338 0.539544198623632
Ni 5.7116271683703355 7.856417157975772 12.459331031568496 -1.1992447897249026 -0.3972554930233288 -0.7245525545796488
Ni 1.8235210195829654 6.678688664186563 0.20836001813003782 -0.21660824224948502 -1.221568392922767 0.43865925278109613
Ni 2.9116854713012095 1.7048814794134761 0.29774874411784824 -0.6228816225007079 0.4950340320263991 1.0209601256459642
Ni 0.6710479313931887 8.920819537500323 4.542087284249691 -1.000233177511258 0.622881879611024 -0.3184128716928129
Ni 8.541696260036911 2.5349357038866565 1.55720240341893 1.0020445196883838 0.15903121516596483 -1.0714113403179806
Ni 6.9654338516801735 0.5193680524753764 4.669436887053023 -0.5074349767939131 0.37417881370952333 0.6400599340522073
Ni 0.7803228955517246 7.432053340490166 2.4193934145195612 -0.4946213699690127 -0.271563515439442 0.5243181257024971
Ni 7.6239929845549135 3.715577141826738 3.7843756681406955 0.044097504539846635 0.20073348000075752 0.11509594723559533
Ni 7.51690632473688 3.8228705847172115 12.458264750160183 1.3607180386734565 0.2883301933748196 1.4333866699827766
Ni 7.794364255107491 8.631637905979286 7.027511029083043 0.5075090245649582 -0.2489149248019907 -0.2454472779683644
Ni 6.84142694219565 0.5421789225358514 0.3829101048595467 0.7346068534918574 1.5008961256886604 0.13623632875863634
Ni 1.8269374355623837 6.334709518469325 9.111531968982991 0.22651881649497765 0.6798107315875841 0.49410123579948456
Ni 0.08097894833742088 5.15963324234835 1.390035371432312 -0.5174301403334121 -1.3475359927655437 -0.5195507862208407
Ni 6.173418721967307 1.9000667186586724 6.679439376645197 0.7457957802291414 0.05382501624025569 0.881436641495624
Ni 3.358291954926503 4.298570547577763 0.12432337749103745 0.36091037873539134 -0.6807075323702406 1.7632589484654408
Ni 5.878285334187387 5.745170978947204 4.766889253809097 -0.22247832787701685 -1.4322988362352365 0.5689918144607878
Ni 5.29518404161596 2.8965992975815675 9.236301278665028 0.18785790958967002 -0.7180376362792666 -0.6525182144202182
P 0.17785322154750444 5.4474842697510875 12.323560862432736 0.14196963169798776 0.45175953760848003 0.5990151002957554
P 3.884788629059987 6.2601237632976 12.618905528569275 0.17523276462649176 0.47978301940459955 -1.024722420901874
P 2.4662747332687127 8.505545184633645 1.4551315816927837 0.6848444373567496 -0.5062067608137669 -0.9460631192267579
P 6.2558352621865945 7.706166779428295 5.78245756313521 -0.3286759441817178 -0.438756954701225 0.41208510183699354
P 4.831459515820106 1.2365537826137747 12.573074308205378 0.3261593484074512 -1.2994622771867685 -1.0514899188037052
P 4.045710812258963 6.13460643832744 8.295053502743816 -0.8002658862525637 0.25133253310454784 -0.7784449337227303
P 4.653068658284261 0.9385883657982844 3.7974021026474833 1.1336047831275895 -0.417748470770358 -0.04988274376305603
P 0.046630481891715106 5.455737611511893 3.7213589763434856 1.2294017729242568 1.1195308215330269 -1.0579760407486811
Ni 1.521195177109533 1.0040846563510828 2.557954256076407 -0.5183148569312106 1.6544609184234151 -0.683003784603585
Ni 1.836053871886411 6.424525296454563 4.786468913598512 -0.17509881015178877 -0.3182097545430713 0.09880209517157823
Ni 6.028508741029764 5.573496075981427 9.142348940174182 -0.32996329553457365 1.2959712333143745 0.009721341052821967
Ni 8.735425027206672 2.187216481728793 10.05762206502661 -0.40240129889032633 1.5481758846112303 0.29579693406550994
Ni 2.3384738039333617 5.040670041717652 7.088869860073398 0.3506833016907444 0.892942071032062 -0.42627964816982067
Ni 0.30882152811851077 9.108254906813261 9.165231734781594 1.0797926224031404 -1.057923590244191 -0.3326971495259689
Ni 1.5050211446174966 1.1325418971772165 11.635430851142454 -0.15167040392551945 0.7073058516840594 -1.9379492103249014
Ni 4.106271280778339 6.881893490415026 1.650641380456025 0.08463171720846714 0.05794572327684859 -0.43381812263871095
Ni 5.562060073018742 7.914451276784051 7.995590257238402 0.49544515142188866 -0.7601718464451552 0.21366227224728365
Ni 5.307168469249025 2.8995931568477418 4.600103421921236 0.17474836879090547 -0.8596912793987324 -0.377977104409691
Ni 0.9803315747257577 7.287619859676067 6.943585871491792 -1.0614953667558493 -0.0675055990511418 0.743273785138236
Ni 5.045695769434744 4.4114021805822405 7.226206186218674 -0.31182004896664367 0.005753357544009447 -0.9260720208168115
Ni 8.093723210019851 7.0103777029462595 9.076819384518428 0.3573949093829651 0.2211873769797352 -0.3038051490819671
Ni 4.586160848497862 0.4345069767171322 10.411812698294963 0.6256375879792901 -0.8088034914099296 0.24155488489249366
Ni 8.217262609949294 7.134231772768545 4.821417950011126 -0.5764037906541428 -0.19054831193763958 0.32125574045824673
Ni 7.153138938044116 5.923840544102423 6.993087940919892 0.04482075585911636 0.34859453748251573 -0.8722755438216461
Ni 2.114060226927404 5.425115735654264 2.463778052433227 1.2772947399507937 -0.5999967474827345 0.39370891332265096
Ni 2.3310925473041446 5.013977044236354 11.363890512870928 -0.3572342154353848 1.2557722924979857 -0.9772881386793105
Ni 1.1908816953099701 3.41072494964221 3.708055632330997 -0.7426112118535726 0.18416580545006347 0.5138120839648506
Ni 3.875213673749249 2.5817136310995887 2.58845565831792 -0.5477383043986502 0.08683926638274722 -0.559758725898294
Ni 1.0286918419712627 3.178049040307079 7.958113972057855 -0.7513938431422091 0.8442528333564749 1.1038542913380345
Ni 3.506897059462839 2.477000481330413 7.065881875816095 0.7158087469487479 0.022219987740464957 0.300663775239508
Ni 4.059430419586838 6.956299434219412 6.055116328111577 -0.40940601234293367 -0.9045338896347197 -0.06378829810055466
Ni 0.38408697025877264 7.367474087910789 11.216118834022202 1.4701467603209455 -2.2406037907421927 -0.016086878259533584
P 0.11209800262573952 5.416331950359812 7.924875840805461 0.6250547188926268 -0.14923865455557522 0.14143175691664675
P 8.463999768210243 1.565527669726671 7.745760343459245 -0.9627236106015742 0.19881158038769634 1.382035312093994
P 1.7205430495085996 3.244732085884307 10.228789000879658 0.11926473390130427 -0.6343446288349849 0.7427932459573917
P 3.8012033149530047 6.0496725389654245 3.7917308521216486 0.7656704076658812 -0.2384806168425441 0.3419654622017724
P 6.866618514759678 3.9457896354293407 10.192300779162633 1.2402934801360963 0.3134113047131635 1.5446845836285203
P 6.4701614214849 7.709727044501584 10.297714294207587 -1.1080387617330272 0.2909311213327764 0.10928036899508276
P 2.2293552756644095 8.525953774826485 5.79047085672062 2.8832643956420405 -0.9693709407147628 0.007997930603812032
P 6.953107782449166 4.051141115552565 1.6516024722144453 0.3747917647031739 0.09648913076768544 -1.1298771977643574
Ni 5.398368794762764 2.950947283359421 0.5667977958949082 -0.3138504491331111 0.2648470226512148 -0.47164059280312326
Ni 1.4917240940028655 1.023971793578645 7.044104022060977 -0.2047811677075699 -0.0861826066353548 -0.16182908962607614
Ni 6.894264512487866 0.6526415407756535 9.20593113872167 -0.4089355004644183 0.3292876096237877 0.057420961121630136
Ni 2.6323844744153844 1.4751994293445205 9.406784931322193 -0.21826711800914667 -0.24837987823412705 -1.025938295586846
Ni 6.400412592094562 1.9031145213350484 2.5728893882474853 -0.12719093072691645 -0.07355309079680236 0.2796483493301055
Ni 3.9054309740303683 6.936843844273461 10.407694118926088 0.23250305910287053 0.7796842054464701 -0.16590531657797877
Ni 8.05073031208938 7.15477522148689 0.46380633996799214 -0.23277096805227654 -0.23764860785955205 -0.7083098674685414
Ni 7.466756934386363 3.676603027956267 8.051092631994566 0.8067743767950428 -0.3471991997968859 -0.13866216459130956
Ni 2.974241845998035 8.469852628217089 12.352101421713428 1.6353589074866415 -0.4071403562372085 -0.15774206404089605
Ni 0.17053489889685544 4.847777397406013 10.163548941525315 -1.0745568279254978 -0.7820226237716597 -0.4098212455034813
Ni 8.503926882327605 2.2726268812142543 5.728374799124179 0.40399049775431717 0.4903073159746911 -0.5692419827983809
Ni 3.8445558356181513 2.6786409486630367 11.204013033716185 -0.7720865956048703 0.1302328028770338 0.7238946092806758
Ni 1.1151091851138157 3.3747087327644456 12.587863793168912 -0.5543097869685808 -0.03269697601238885 0.7757640444564574
Ni 3.207502142277013 8.357200806579948 8.106175147207994 -0.773663453173687 -0.14897074560616927 0.3711518539577415
Ni 5.535789632250688 7.783224940900914 3.60168102552762 -0.7199891035786826 0.9019190777196918 0.43755779218680124
Ni 3.0620167649639884 8.18775556456916 3.600655201676958 0.12637614813510495 0.6254159588867874 0.3286528042532662
Ni 3.373845638201224 4.131094240039324 9.147086070646699 -0.5155707185271702 0.7187722004524459 -0.05744024439533978
Ni 7.1689533478014775 5.945984313990074 11.414774432657019 0.26316089319804353 0.43218881456540403 -0.6980812477619978
Ni 0.6351045381191966 8.863918230306274 0.28209526553425496 -0.30241932447803405 0.5265133335816029 0.6470021696979954
Ni 4.632911804005693 0.45924632369230517 1.5241611656137704 -0.17144450122865312 -1.2914561190528404 0.3875097264904746
Ni 5.815459242439555 5.496195169162902 0.22166336214252594 0.20105512500623438 0.15618346130452457 1.1141063080833458
Ni 8.064099287250945 9.025901300572542 11.392839243955478 -1.7675971708294784 0.7399976854901256 -0.5326744680869923
Ni 0.14933603774456397 4.75199188202516 5.754060852948386 -0.34058426558352956 -0.4118205353216972 0.6465226589584157
Ni 7.8345251240023925 8.831875844646675 2.537821676332429 0.7518170467225568 -0.24407250910802483 -0.15121660421755248
P 8.616947317267787 1.67479903765786 3.5182818161858327 -0.668785584121674 -0.6388589717655707 1.0681704647831798
P 2.0425582367055224 3.3169353404388064 1.7275673805736513 -0.3617333888573189 -0.10003673890962772 -1.7883328607149331
P 4.889889219636529 1.047086544849921 8.241090313292066 -1.2813550260630964 -0.6104351692072391 -0.23002991497202963
P 8.613755665497541 1.6671300828409024 12.554875599717118 -0.8416696460103311 1.3770098338549446 0.7423852118856957
P 6.275686437140688 7.6391241111163914 1.6007572118723319 -0.8183140020035261 0.7420396556208189 -1.9536033719223904
P 1.8285467473000574 3.2289896006738816 5.936794155005439 -0.6749744865412053 -0.8903622261200279 -0.6506099416539118
P 6.713608031723566 3.872210823914707 5.828485676946343 0.7229600132815485 1.1627472090195008 0.9121816359879644
P 2.042872906598364 8.360563279149165 10.266659972011512 1.589193464674173 0.2635815256752299 -0.5918098407965678
