# total energy = -340869.8682458341 ev
CRYSTAL
PRIMVEC
9.21574561765242 0.00000000000000 0.00000000000000

0.00000000000000 9.21574561765242 0.00000000000000

0.00000000000000 0.00000000000000 13.48817525327829

PRIMCOORD
 96 1
Ni 6.198740776661309 3.6209032464052555 12.75997552761342 0.4175980612354227 1.0729506597806426 -0.990019727313366
Ni 5.2825482279862515 7.509717428500266 1.3311305655419567 -0.6537127489489516 0.44016900455740315 0.5664459081104825
Ni 5.799523899940713 9.00132269096559 5.761042633280944 0.01825483244512985 0.17483784318091825 0.02719712924008219
Ni 7.467988533147398 0.4733252936773287 7.7596125034291275 1.7476078721917454 -1.0513266537529635 -1.8962014369641536
Ni 0.9245235825529271 5.61637017506375 6.241626248066912 1.0650488884350624 1.322352808631697 -1.1602442400919888
Ni 8.476587361350548 4.4413257684665775 3.803732577042726 -0.7537525731823729 0.23210505233350345 0.6438116877851557
Ni 3.6835610996526373 4.0298703818015 12.937965670320285 -0.3578528228559901 -1.9970670995329798 -0.880591005665877
Ni 3.212664154898781 4.173451695758584 1.7188793686368666 -0.5613836630962267 -0.760919009023825 1.9946590043121197
Ni 3.5223316331777226 0.2684436057761932 6.78243475930407 -0.7212360886119062 -0.32961851060064523 -1.168078391424427
Ni 2.2738745984045465 1.8555811286228998 0.5333935224560366 -1.6805162207495703 2.25508990017351 -0.09965107343543483
Ni 3.2681982369209495 1.334071309911899 11.907320014300733 -2.0428281078181785 0.6120199971958556 0.7555549164984343
Ni 8.547308991858035 4.195643210778394 9.796232343350482 -0.35232495105922546 -1.5969448264848174 0.6795682765594748
Ni 6.519946368231283 6.009993094302193 3.156435205670427 0.9260645646176437 0.2500883762848015 -1.1657006352208696
Ni 8.02614015572832 3.8130423230863357 1.550964800419688 0.6614209162264867 -1.62149140547593 0.36442404831560465
Ni 5.022443028684281 5.904187120904165 12.984176182680683 1.7692501330518693 -0.3509751218995504 -0.025844214756613557
Ni 6.552201477271706 1.5970149588094282 9.305801704561745 -0.19947466789299195 1.4747174104107634 0.5275615723404592
Ni 6.45572183825908 8.876615223669875 3.3091622254022863 -2.310936574829485 0.7564470892954004 -0.9301739588003269
Ni 4.816637001515501 2.573524561390077 7.371395540465859 0.597224584054236 -1.3089342212329458 1.0344296208873087
Ni 4.108969124914058 7.131835002473549 6.369345420972459 1.6013781796658226 -0.9122849943350482 1.3480201314908138
Ni 6.868937432303221 7.280807527513103 12.756900233360055 1.1449893708154475 -1.5324083373643287 -0.31481846947333525
Ni 0.8313745139423612 8.765371960462177 7.898702063058696 -2.061618501051804 2.396776196303124 0.3823266396276383
Ni 0.24148386406566358 6.819227701399209 3.926111225465723 -0.2901816447612615 0.9708418688333346 0.5744417818317655
Ni 4.474806571650537 8.512408963876299 12.522731828024757 0.24084397486839815 -0.8681723202865501 0.6552528397425618
Ni 1.5351865226516572 2.725068279407425 9.852207859579233 -0.9277735768889507 2.8198442795141823 0.43352553109895664
P 4.04738029813773 5.974982477375174 2.4472402800495567 0.7898477762430333 0.8287891905032372 -2.3804556047662295
P 0.8256736538131024 5.463490173957585 2.4180383474734453 -0.1566215772832077 -1.0966785995252015 -0.27025739503350876
P 0.16861496487062774 1.8559313269496245 1.3227700412786787 -1.8603864841480733 -0.668729534072758 -1.5712515354837713
P 0.41807689976380397 1.3481437531989637 6.478505004136148 -0.6856921300690255 -0.5434818431151414 -0.18126637241508137
P 4.095228448462838 0.4697311529556815 4.333481272177195 -0.2938112710940488 -1.6766950472312672 -0.10419164161826573
P 2.4249667448953285 5.0334650602306645 8.22526476745301 -0.6606202747020623 0.17177977308088482 0.7149543693682526
P 8.895774758439886 6.260283524710436 10.605954463381279 0.30924946002598996 -0.3610548747330556 0.884409865191335
P 5.964117113501272 7.327116648349711 10.501663558533606 0.650448476375383 2.150238256373742 0.2848782302704771
Ni 2.1832469577463978 0.34863810102158116 3.0905859397771316 0.6991099461368283 0.42347431751054165 -0.7338825737313233
Ni 3.899449152332909 8.801783370696093 10.127096957716248 -0.06332395686962643 -1.1036645439247315 0.06281410711274342
Ni 9.107377489490503 1.1586864584409586 9.62857397285654 -1.6759116320980234 -0.4741939553525963 -1.4678677344787816
Ni 3.59303483219433 1.918644474669647 9.641226269771282 1.8845700233728124 0.8077912480953314 -1.4458107546787422
Ni 7.762818661267745 1.4690451176279096 5.549871199116926 -0.9442924004795801 0.18199116639624785 -0.6840738777393122
Ni 6.644948739381082 5.375802356094835 10.526724856683472 0.5526475687748095 -0.5347781446935564 1.1372174401795125
Ni 4.695837010286396 5.026940312459058 4.12302497985933 -0.7631736093859566 -2.445479832156414 1.9441375985238003
Ni 0.5230470050504129 3.860816747447923 7.710920190821706 1.792897854377796 -1.5445645131108885 0.33015175739629593
Ni 0.8193074168630669 3.338929083173877 5.273174893299105 -1.2734537689381487 0.9249787877526328 0.7541840042928366
Ni 8.505570880759729 4.560780260861424 12.609569032583384 -0.6589498289781748 -0.8535725680955043 -1.9467812067942345
Ni 7.235097430130104 9.14843363542624 11.419209900213819 -0.884836154095476 1.1268088432516787 -0.7823589240651558
Ni 9.13931926318596 5.880373634686893 8.469481100041671 1.594580440017699 2.2878511537649304 0.19590057738848843
Ni 6.251049347779436 3.716157191274345 5.797055923311849 1.2877349614475113 1.943622092339962 0.09854575618639802
Ni 2.3031622374132508 7.413182495015 2.4169195559770147 0.8167587417012644 -1.8654744401939423 0.22917013807489564
Ni 0.5905661640174584 1.6036502955263152 11.797918057031971 1.160038551839086 -0.7067744046606215 1.3260572540664775
Ni 8.288678311826484 8.033383731644255 9.516204545556057 -1.2975262365063203 -0.5751231241695063 -1.5464023376505753
Ni 1.3441809826597115 5.8862164172959295 12.053721346362494 -0.9555849426742639 -0.6355849289999893 0.01682092821208071
Ni 7.700575516565169 7.698455895113941 1.7475412585301868 0.6601176240340308 0.17440718340140288 -0.3989719614938032
Ni 2.914737536310553 6.078493730158612 0.3947979267820586 -0.9134250214767624 1.1831931355786782 0.9453002729188043
Ni 6.889092267580764 5.478659290952025 8.060074373587932 -0.31023624941929157 -0.19770034960138855 -0.6705421618014645
Ni 8.938139540228123 9.13608453653648 13.44692825161456 -1.2885227474561294 0.6445562792606642 2.5781050465250246
Ni 1.7817353604112112 7.310436149103092 10.187618601170607 0.4451281483348914 0.4799449989037605 -0.09238822122543444
Ni 9.062072884906868 0.5310858997978303 3.689932866049937 -0.6388427738156546 -0.4517086297658866 -0.3923179465123953
Ni 4.908306021408382 2.268105541759031 4.950200800179172 -2.1393429496174767 -1.0443563930827175 -0.16243072776581702
P 3.5194286733640845 0.322475521291622 0.9110354175267661 1.6428521305398933 -1.6362022293235432 0.5094172973312646
P 1.6691005196420536 3.3778010974403068 12.195548903962322 0.724576722949365 1.1477967583572555 -0.8235253710011365
P 8.188235902274606 4.544237997796407 6.094551245013479 0.925795113006341 1.0234664370075859 0.1723814112206257
P 0.5966780463933467 8.512003471076934 1.9221731835986693 -1.7657418627882946 -0.2586115832644643 -0.5474421133144701
P 4.833676914834284 3.287394634672721 11.160277865306375 -0.6381030674361526 0.3985135338001459 -0.47240755287613484
P 3.394177477087402 6.466983479186908 11.769363069785756 -0.32116678028886625 1.5759905928306537 -0.9033414119885153
P 2.692066694986352 6.945253020292862 4.927176181771574 -3.0234213996113217 -0.02159932343733054 0.10278884773346812
P 7.2106296259865825 5.478908116078908 0.7418076055843703 -1.8450783930360932 2.3563869938527997 -0.7355327077402365
Ni 2.009972511981245 1.8066915990630585 7.680665820116332 0.6177574139002651 0.8846402360345861 0.24259515323154993
Ni 5.5671120156863045 4.067148072106789 1.4907537275866585 -0.02285196489750903 -0.13574961893020493 1.0514001873033763
Ni 0.14964066658396283 8.462680801481406 11.476117128306566 1.9959299006047433 -1.8519910609955266 -1.0966310341167178
Ni 5.334165618196369 1.2034289025527456 11.10989907128341 1.1656924076907536 0.22774883224733677 1.5914323813070206
Ni 1.0829606781594854 4.161342206250264 0.6718352151811645 0.619890658193184 -0.8509204751846378 0.07787537232124007
Ni 0.03346237169307893 6.240792223104581 0.502555795064304 0.46897333038360517 2.4427333797595288 0.8116448175134666
Ni 7.71433462450727 2.869893718998925 7.60854431787649 -0.7136523627273773 0.06444881450268901 0.12666025503442702
Ni 1.91200913795276 8.453418977314085 13.406868327760899 0.8924314499442308 -0.6614250299915447 -0.01748221594516344
Ni 1.0354258631793418 2.69192845880475 2.9267318290008704 0.9157770666487067 1.1291711728362681 0.7123061331121281
Ni 6.62870138017015 6.463767184028305 5.573233113807633 -1.270658979801831 -1.0628032869339954 0.1915916656004894
Ni 3.974815518542218 2.002406384974906 2.507491902162523 0.48787890903885656 -0.26112303683240834 0.7323388833932871
Ni 4.498638489358689 7.459869461414652 3.9487036254121795 0.684353356652944 1.0774359492455057 -0.5138431943131021
Ni 4.9577761429309515 4.360024462193831 9.198773723318357 0.04900162670968335 -2.056477837391129 1.1693631716741215
Ni 8.397249008856548 7.244875336042072 6.773168327264028 0.1808351984149337 1.3273538613907139 -0.24825955060617888
Ni 7.841769952453261 2.003890119990765 13.09471167663858 -1.0456036352262572 -0.5636032964553649 1.2418569679684741
Ni 2.112055324221464 1.6063781561765909 4.9661163925542615 1.751910613332157 -1.3309379791975466 1.2021964161540586
Ni 1.1869235024694889 8.627744018059412 5.456250284339826 0.20841233670225398 -0.8862687727769446 0.19666702324086774
Ni 2.223187998483882 7.234221934313292 7.890380244926267 2.0252579601448994 -2.505105000018215 -0.891996419289341
Ni 5.18182934607117 1.7228928257760394 0.2677183266100557 -0.34436944365757466 -0.5252136409335729 0.1459209030362519
Ni 3.128893028848082 3.854282783930877 6.400718583174263 -0.6081054926327979 0.5126144641123236 -0.3585681037554599
Ni 4.4067206443389235 6.590327016157485 9.211829669883377 -0.7860073194510205 0.3325927627376208 -0.32724821059625575
Ni 6.105514295789047 7.8594549679528525 7.926460809898884 -0.3941344308958438 -0.5164137832537558 0.6090213195788479
Ni 2.9300264579957136 4.743141431630536 10.516365437234233 0.11967611040711003 -0.7998395973484226 -0.638197684032488
Ni 7.092152002608388 1.6067836489759564 2.2640303391254095 0.4018050600672241 0.365540421308235 -0.9292265072853931
P 6.1641356525336555 3.0876249207672206 3.508678506308184 0.9045624288798099 1.2876426588440213 -1.0064727306630665
P 7.94527198949126 2.517170278023738 11.017883539361979 -0.9581030811104273 0.06561660955854506 -0.15755668750296734
P 1.9125067882065265 0.6035106000626523 10.182398802953323 -0.41873346039144665 -1.7794604979259674 0.12589380918204768
P 4.937252677835803 4.88220703032196 7.2131252498517675 -0.05751069262195902 1.0149607135294196 -1.916360685520848
P 7.6500179370806665 8.167039687762328 4.699576759785997 2.208082935296352 -0.4466137317414824 1.6775172860222465
P 2.821271446056847 3.4663551953744287 4.156515920363273 0.6074727441448055 0.712083989798993 -0.5383797460018857
P 6.4856545794485925 9.18732408118355 0.03701688470933355 0.6530036386970689 1.0593901474873884 1.2618969173384849
P 4.816950336860464 0.4850007215754178 8.37132788165712 1.5066487119017213 0.1463235377913093 0.14241314699330956
