# total energy = -381178.4701819682 ev
CRYSTAL
PRIMVEC
9.12406547360062 0.00000000000000 0.00000000000000

0.00000000000000 9.12406547360062 0.00000000000000

0.00000000000000 0.00000000000000 13.35399209529089

PRIMCOORD
 96 1
Ni 3.5628837049076827 4.481549362710345 5.0088820268864085 1.4259484685371766 -0.22065078774997482 1.7553317231985643
Ni 0.7630419471999436 4.8596323884341475 11.017470573653315 0.7947390428970635 0.29299391739907604 0.10516686104734145
Ni 6.3363532637266715 5.886527711064642 3.9160844916370503 1.0903125480978577 -0.006131309708718473 1.0764576444926366
Ni 5.468983102101894 4.566083829463833 9.961971305715513 -1.794971191967057 -0.9502565884828151 0.13024334439999505
Ni 9.075215242146742 7.543394135367513 4.618799030231772 -1.7612884550026313 -0.7011210630295861 0.8045647707382338
Ni 6.265404530485967 2.6271469205755253 11.111376368070323 0.8788400844130413 -1.3480221883733428 -0.00485398565819164
Ni 6.9174558706411755 7.666961354281974 12.357103277383565 -0.4835257742764833 0.20362211440246222 1.4372029584050732
Ni 4.788683655193443 0.9479265358251592 1.8637765070179857 -0.4251337074908355 -1.2186352784363723 0.9624603296378585
Ni 6.639217493561023 3.527582695531618 7.220303677157648 -0.33147793240688717 -1.261359556777776 -0.6790304017781338
Ni 7.9251724076142676 6.923541622322187 1.3690249682957845 0.5424580298363173 0.818969376199338 0.9597169625647666
Ni 5.431501441074012 0.640234762940697 12.827858523870292 1.6211041973398403 0.08252546949874175 0.32244513278065756
Ni 6.413424244910342 0.17042659445170497 10.694878289419137 -0.9796990621136482 0.8501599428695293 -1.1018755703451086
Ni 7.697700330913653 4.143502736351282 9.691446413599571 0.8216554076719333 -0.9736664827663232 -1.637433273517167
Ni 2.6455592847318705 7.978885781146679 8.165592445650002 -0.4080723811331746 0.5074349767939131 -0.5552420689748631
Ni 5.191054943248361 7.3876372134086585 7.255504321813335 -0.3541244661618095 -0.7804424237687333 0.34991402762488766
Ni 3.214517760480817 5.985377836570016 6.758949867750553 -0.10619761630470098 0.596138807189225 1.279924464264157
Ni 2.5770740491731354 7.190566522916637 12.998856284821592 -1.358135365547945 -0.7721166775118574 -0.9491093622522493
Ni 2.672630387037062 2.121555079646112 5.075237705560063 0.8462235839296007 0.28764936525771106 0.03985415588246039
Ni 3.2136053539319396 6.59727416450913 2.805219481906823 -0.6557657748232384 -0.0972468348693164 -0.4622707215524491
Ni 8.269678872339384 0.7250292655606149 12.275617160909876 -0.6876055450416545 -0.5345374894376601 -0.19364160615098264
Ni 3.5076009921112035 1.7270578601080062 0.017856708568078878 -2.065275638188417 -1.7333169094903698 -0.12267221692095646
Ni 3.9246164052756023 1.7075779802894746 7.211783624804231 0.3880337173147446 0.4725425357921023 -0.42466988048053955
Ni 5.327012643096576 0.4774285879852158 4.371042331136514 -1.531199661768208 -1.1987835338177677 -0.6355677026088086
Ni 2.1633706717811614 4.991913089890387 8.700312865652325 -1.2730575619409945 0.008528863406617569 0.22240762254008148
P 4.111431646158243 2.573479167370559 3.250588840984135 0.06882971717920404 -0.2542206532856202 0.6885897633317948
Ni 6.527246961882793 5.559594196470905 8.063674809327303 0.5727415113112071 1.8151618079823193 1.0168041944960617
P 1.5746494701835316 8.32609296925647 6.355272013517643 -0.6808867382605822 -0.4508007732396366 -0.7743712778739889
Ni 7.237272614153668 8.505627205879069 8.231574037638618 -1.559164008191618 -1.073207512986455 0.4613975749188764
P 2.0623672668204374 3.894288011590919 6.63453046111944 0.00874200785868817 0.024725013550505805 -0.1018179991797666
P 2.147987497367089 9.03832664537563 0.7777818749970574 -0.17913827032848503 0.4546893096607654 0.048676382159780686
P 5.90119920837059 0.6273305971199246 6.93056167830925 0.2013880828656209 0.12564338373413844 -0.34732929761684694
Ni 7.70760906603446 5.468964853970917 11.523987594823291 -0.47842470560449224 0.03411828183994769 1.5784246561934427
Ni 0.931047014670928 7.693977712194233 2.7167625793997114 1.0257668030059883 0.5004678014474606 -1.6989718563515965
Ni 4.1932653895270535 3.9846527561917333 7.806637110816865 0.5155357515241766 0.3635670996319481 -0.9519306337511284
Ni 1.9804057865347837 2.762027980696066 11.342199714024964 0.7982192881361801 0.18837727242824978 0.16569834277349527
Ni 4.3238581388678705 8.00425068320547 11.58482868831553 0.9247347900626267 -0.6309793119071778 -0.10810614618132348
Ni 2.932839610711397 8.730352938867563 3.8215783337108817 0.396576207568117 0.3511612697684275 -0.3518333561347876
Ni 7.290812630441792 3.9961946990350317 5.010871985569509 -0.15445567998014045 -0.5581723552477806 -0.5139005299135988
Ni 3.8064232609340287 5.289923316884711 0.64766083984201 0.5064003648818117 1.7433349558480038 -0.6928325977685487
Ni 0.5268563879575493 3.519106438692547 5.034227768407672 -0.37805063796010374 -0.5913323869395171 -0.45776563459324393
Ni 2.110870798958758 1.7625139785973807 2.799196686277683 -0.8767446353365933 -0.8106189473521136 -0.6589691122518845
Ni 8.950991090517087 3.9191419659823383 7.29727520602749 0.4032515627057635 0.913914302408355 0.4193417833994068
Ni 1.4846314400712908 0.22111716508768464 11.924433705060077 0.6262273990444892 -0.2555350012216696 0.11760791502417166
Ni 0.6587182948078547 2.9275659008588857 9.361081337975508 -0.04835705114714897 -0.10821181852125233 -0.319198857929218
Ni 5.6669479510118155 2.226664314076784 8.899620777002195 -0.10563403049174712 -0.3799396274527005 -0.06566263230513207
Ni 2.395395657160675 1.388326928837285 8.92882599822521 0.20138139799740154 0.27426831596511475 0.6243615494803441
Ni 7.2882578921049355 1.4754891264515395 5.330085628353196 1.7183402335758793 -0.23731359311763647 0.32008717407144227
Ni 8.445864576927601 4.902524620296871 0.4347790562644923 -0.17634322408185113 -0.9214810590120196 -1.6105498188627618
Ni 4.025738423087681 6.51402619098956 9.220944816133434 0.7993644574842169 -0.067224063254981 0.10704967989235112
Ni 8.624094072185306 8.982268387012603 6.396175199103816 -0.5079080597755898 -0.7529434470175161 0.31707564093862806
Ni 4.603346512919984 4.669550732106526 2.9368897833818637 0.1273192287746646 -0.7333755521879177 -0.605840350747705
Ni 0.414671440740333 6.713003811168736 7.724750447868219 0.17498542450237606 0.07116042219490971 -0.3059047119234732
Ni 8.364550905291651 8.176631652484868 10.458072293723506 1.1957912839586633 -0.9798101337702159 -0.0276990085771652
Ni 6.121855608151092 5.491063340584726 1.272837245100035 -0.6786519353927926 0.48277552637402016 -0.963990907349772
Ni 0.2832511386596842 3.710574952974462 2.115579729157514 2.2731063913555887 -2.222870892238804 -0.07053512990608497
Ni 2.7789348740467634 3.486734254338378 1.3541883254044897 -0.5543444968612583 -0.40001068717096266 0.44146149811658164
P 8.385809977880493 1.4825420290743616 10.143385099828802 -0.7423926680848634 -0.6424672579421193 0.8097257461138828
Ni 8.674112199194763 2.9603577922255386 11.857450290680793 -0.8744632955015843 0.7908973005534701 -0.5307636242175247
P 3.0206861132373093 8.934659013292183 10.252914943988785 -1.4274299381787094 -0.7203326029610303 -0.18774735215373473
Ni 8.99613696655554 0.07415128022726333 1.0487073135879572 0.19783044742134961 0.5447337132443715 0.6710458409107604
P 3.444745304959042 3.551314389867918 9.750497365442916 -0.04394375257080174 -0.7453167837101938 1.3124928851184816
P 9.070735325991754 5.558745658380449 3.4808118234296153 0.11331828650988225 -0.2327521989991992 -0.06598324886934442
P 8.80909362403568 6.104711489097686 9.639512232837472 -0.6991073750336669 0.5103791470239016 -0.27573564453926064
Ni 5.296063812958656 7.569206116635253 2.9217201121002288 0.4472585644143329 1.4396894722723528 -0.8182587232855585
Ni 7.386104370406544 4.102508310110222 2.535962834893819 -1.9588908455735747 1.10778088008595 1.2762254181460149
Ni 6.541298022735504 2.0037086497931114 3.0067180813805465 0.4450461301440465 0.25302046232993197 0.8463230856219424
Ni 8.019013421166305 6.007266469677584 6.035523700496316 -0.8022723751596312 -0.16098216824474856 0.40023745846978814
Ni 3.671724682123264 8.825881904535024 6.136466886624814 -0.21086516911812073 0.47228491125534144 -0.44171835132239406
Ni 1.5166660340023752 5.779502422881327 1.4330302876995313 -1.143149489393231 -0.34621163907263597 -0.653175902608875
Ni 5.399001519803001 5.697039118993791 12.218515109454934 -0.12565932457373843 0.03951117072074486 0.7203439158149401
Ni 1.306009609997569 5.949775733032821 5.335414082598639 1.1064176811898365 -0.9890751040119095 0.3702241999371495
Ni 4.243830960465837 7.9709843404334 0.8494030518642838 0.7227982908927035 -0.15183598296910625 0.244656663746269
Ni 5.225151575979908 3.0382134430412435 1.0555129540360335 0.329026128432285 1.3903443461803215 0.04943022960666971
Ni 7.488978208792467 2.274191571207806 0.836091952722712 1.1463795662947547 -0.18442831508283075 -0.7062871806115578
Ni 7.981084680929473 1.6442478417318969 8.02752526186078 -0.7592642470292215 1.3442434380572013 -0.492826482852119
Ni 7.4815055991571615 8.592588674052571 3.315209122401825 -0.04043111143185295 1.3777947916500852 -1.084656378253345
Ni 6.18875325631478 6.652684614222453 10.311084511105912 0.41295979113246295 2.71795891743159 -1.5194852015447573
Ni 4.147991776571758 6.942866393027409 4.884876852828485 1.108764327045142 -0.6850930630324459 0.010348947334491853
Ni 2.023973199243678 4.40435976867532 3.4541567785107117 -0.0031835399343041943 0.6077995313566049 -0.6308785246632554
Ni 4.272954977506002 3.5114969680749097 12.179708634118082 0.28302600755308677 0.9160215785593449 -0.10800098806202689
Ni 3.125010678035947 5.425068974904427 11.129056982174468 0.14340353593103689 -0.1993034324224503 0.3878102884500289
Ni 1.0388843446827436 2.23621721064353 0.11699241732325105 -0.07512763437277384 -0.5571593406022339 1.1993643460219021
Ni 0.1361118965549762 6.96428969879505 12.635467566567462 0.3625103762326595 0.5358500376014964 -0.10279244727789394
Ni 4.069752915005525 1.5430163351339532 10.801790439190391 0.7578807364181335 0.1910915860356193 0.37752793268741436
Ni 0.8102954823663022 0.5316611208439375 4.650715011311502 0.4920993748781073 1.6268310725212884 -0.9442042116411481
Ni 1.6522861434275062 7.287573587193277 10.158061159167493 -0.7438952207723188 -0.9632324319171927 0.8745201168814488
Ni 1.1469589003972673 1.8167565479281398 6.968514141116352 0.057496551554571944 -0.1072545968143056 -0.2243256654984008
Ni 4.649094577280696 9.114567336599821 8.832210356358036 0.9255984236145027 -0.3673165393720513 0.3388032624237068
P 6.568186643730921 8.625125091585538 1.1044663026029506 -0.3832221548587142 0.018828959781044992 0.10815371158980729
Ni 0.36951096619709906 9.097058254926866 8.506973917945212 1.7597095405512855 -0.06632212026600191 1.4119644955532586
P 6.57436363606682 3.806131290838388 12.773694421502736 0.40174592469451453 1.138960133902232 1.3655542837198351
Ni 5.327569211091391 2.535742032508991 5.286885915483499 -1.8252101933572566 1.7840949113741855 0.041619989533631545
P 8.697177836750383 1.6369577134063664 3.1306028177740166 0.16883071775488986 -0.014033338164614542 -0.4793317907997938
P 1.922148628388964 4.654824490407646 12.91835830464034 -0.25214988679952055 -0.37813497014379394 -0.14940320515789754
P 5.648964417933443 5.287021864059281 6.128908510773914 -0.4481409670192863 0.5020505725535483 -1.1789505582522404
Ni 6.526106453696696 7.971002588564377 5.502472072071889 0.8223159240740676 -0.03851075448068851 -0.5805365818755938
