# total energy = -340864.98015488026 ev
CRYSTAL
PRIMVEC
9.31740679108125 0.00000000000000 0.00000000000000
0.00000000000000 9.31740679108125 0.00000000000000
0.00000000000000 0.00000000000000 13.63696665665908
PRIMCOORD
 96 1
Ni 5.707638381058005 5.304912109881976 6.682836370993806 -0.49560044605283043 -0.22578965163843692 1.1351782982622967
Ni 7.937386986086249 6.335957704028544 5.648785913176177 -0.48035457563735334 -0.19978474293424303 -2.4373590028214926
Ni 5.974591401335739 0.17213163544779897 10.348998326153163 1.850296189791607 0.558764737416141 -2.935121232412332
Ni 8.159961198099598 8.270894242650458 9.610243508151251 -2.275212639065314 -1.1610132570475296 -1.467514722014737
Ni 4.035685647446004 6.526358910596394 5.143509468286043 1.0993926560222549 -1.487253080983929 0.10043654545120768
Ni 8.971488689640905 4.1307325135188515 3.4186236152890337 -1.1805202167322055 0.515228504696403 -1.0232576634308894
Ni 8.840569807649965 8.96996063493686 1.7054795582556568 -0.035873573968157574 0.040739129590575 -0.13468878176585836
Ni 9.237351573330995 5.76293719001226 9.824807545597125 0.6184035321246962 0.6422232602521133 1.080105782768185
Ni 6.59182301029523 9.015466849415812 3.1550761071718374 -0.27802881144881153 -0.3597806360063223 -0.18769181632545096
Ni 6.487309658982699 8.6961220510842 5.7022566469296185 1.9515457180624134 -0.05584256089091673 -0.3291809088425944
Ni 8.025781223752467 8.175521267341992 12.134622490154552 -1.206088295009297 -0.7592395644388731 0.43642007903793223
Ni 4.267092761041263 3.484943052925865 12.327190925528257 -0.9275771446074283 -0.8848338401026309 -0.1319541564435147
Ni 0.10191099961229125 2.6318412925464996 4.9153354948267785 0.251287024578593 -0.7664468808205896 -0.7121228134567285
Ni 2.5397294095942233 2.192432391066695 4.616944612494698 -0.09288650101809164 1.288123969355814 -0.34094370580547734
Ni 6.837625517291387 5.064010558826837 9.373013947089184 -0.9934284958845988 0.015806113794321165 0.85884667201025
Ni 5.7109460604478555 1.7254439656602534 4.993174974147019 0.8549185406004374 -0.18130828139661032 -1.3601889056428638
Ni 7.916115346517157 2.994698380316421 6.543384607917727 -0.8327489464819335 0.4247914936600684 1.6363135580904271
Ni 1.7024020188120865 5.3565678128040295 8.113940662769041 0.29473712534242785 0.6314709068316157 -0.2802792980458851
Ni 4.403070994887663 1.1145481932785026 11.54820634047971 -1.224175491528311 0.07730792985354427 2.8347286528251825
Ni 0.2998257629688034 -0.08374764692898483 10.952652610022824 1.349863869567772 0.6596458266039349 1.0598773715364522
Ni 7.5189422497533815 0.9865736118148659 13.270268087496259 1.678306100472129 0.7761818487201665 -0.9893751517508315
Ni 3.4763989909526467 2.756275259451987 0.9926187453025693 0.3178515998727042 -1.418705670931834 -2.588185313579162
Ni 2.0335799236933028 1.4270074280351872 10.774185137997286 0.4675245137522207 1.123072259027382 0.4813750464820678
Ni 3.5838286905722847 8.408773227470181 7.93366002339346 -0.8515617083130624 0.8217981038973847 1.1327545193121524
P 6.3416599569485115 7.0763467951712435 4.20238150780637 -0.6167413139309249 -0.32616397639314154 0.9842542855844986
P 6.364795077863998 4.185844974338466 13.023848768174446 -0.011314910792186965 -0.23240072919705138 0.5785740588325843
P 8.085440579057286 1.0118983233123662 3.8383560172322597 1.5032561412804049 -0.6857656636194384 2.0827851078270903
P 2.758287819306093 7.116942736302446 1.0202383340781542 1.1944162579880075 1.1485542053485702 0.055549198020214005
P 4.314564948340661 4.0540223038945244 10.073081960599273 -0.6066690172965874 -0.5232470041255053 -0.6594637925001159
P 8.540484089033338 3.9255073128404336 8.649682232450706 -0.454034963906218 0.2718327099404286 -0.6778903746364195
P 2.0266105034577877 2.678446961019824 12.81634825677208 4.102271712705852 -2.1243806718806897 -0.995666384076182
P 1.7143376168357427 6.980582488780034 10.328324864096265 -1.3061885401670084 0.16172650260994084 -1.015188770379826
Ni 1.3511730546436662 1.262406120708168 0.6227400598194337 -0.37767011469223344 -1.0327319214699118 1.2223168410530176
Ni 5.291094395698461 5.447244815119581 11.555269866523219 0.15610684243031825 -0.44930104876565846 -0.5746963210447329
Ni 4.865708191350275 6.726301141657783 13.606310610432239 -1.412446834506316 -0.07608845562414637 0.18742390737604497
Ni 1.0643925928402969 8.531269173775419 8.774664994612706 0.7135245789002614 -0.31562245343186934 -0.5427081981739105
Ni 5.227130398483473 4.77034453344854 1.2821422516478314 0.743385628125752 -2.011199425169304 -0.3441899806569169
Ni 1.129810105505473 4.357070957851918 13.022839693025372 -4.612739819899133 1.1377218906197566 0.8568257849254793
Ni 4.324450716883283 8.729441097557732 5.9327348150737 0.10906799587396054 -2.144146284543391 -2.178194889487668
Ni 0.445322659532587 6.395905898942053 12.178629533890328 0.7543668097276041 1.8144709525628815 -0.590318343852706
Ni 8.13053682764003 4.7883643980681745 11.965769650135734 -1.0708151014948784 -0.1197758692097679 -0.31216174857677853
Ni 6.846281388145388 1.7491474483863905 8.476984098673602 -1.1997227578025855 0.7300027790609427 0.4321260796482687
Ni 6.706986157502405 4.232953782775317 4.863201808939373 0.9969941017486702 -0.34016877531266576 -0.8755596138895566
Ni 0.9760728944279333 0.8843635234464784 3.3143282912940313 -0.30522851179205496 -0.031067153718449717 -0.03172535612773891
Ni 1.3420047264194055 3.66639023162429 1.630122236088813 0.2925933395265477 0.027193529695656395 0.9254426147629287
Ni 3.214216482921684 5.533803523659603 2.3532219472996645 0.1465341111402186 0.35735274329112 1.8191994683868025
Ni 1.9583791339595562 4.605650052054202 4.106063747455282 0.38085005508211184 -1.3495746204621273 1.237068031220263
Ni 6.452565049279175 8.547630539996762 0.3423764960323736 -0.9005111416285718 -1.147801643453262 1.3657463451259833
Ni 4.189609206658183 7.60586433715595 3.2389159964274685 -1.1986590924247615 2.1807526229125154 -0.2595569778968691
Ni 2.1413357325485602 4.598820392919666 11.147647298109536 0.7130095869370559 -2.2215058935704772 -3.247624937709561
Ni 1.5392821791554507 7.706445742827588 3.123014910607121 -0.37091634090816766 -0.43954114116541715 -0.007889430050405767
Ni 9.492108108196579 1.937666538794382 12.320372447281802 -1.7756467806068326 -0.44848909438732437 -0.8355735604149223
Ni 8.323826430294792 6.024448844758521 7.75316135670035 -0.07488209402087104 -0.325445095949246 0.7850562683916609
Ni 6.950440678002105 2.32644465209265 2.7672539598042696 -0.25478809575331607 1.8318711503172 -0.8799723982452717
Ni 5.125458856224193 8.075927506783943 11.726945880781825 -1.1851350897963975 -0.286873406323635 1.6281076252408668
Ni 8.282718031793332 0.5055792606089238 7.066839313341939 -0.11830211287771883 -0.801805977046174 -0.8121215000395692
P 0.7925758862484747 6.2718446283058435 4.48582540625902 -1.7628588848135445 0.2637180512530942 -0.4026859200102807
P 9.218399968038165 7.875565992419614 7.0294606727552855 0.2383682596343959 -0.4906986378758388 -0.37200700286918514
P 4.552270628886733 0.3123567432826327 13.690559533843402 0.23974148583283872 0.31022262257253674 -0.012336667188481979
P 0.5454773279759015 8.608109827093992 13.354599935827338 -0.2513011656459801 0.41413838482159643 -0.43488744444348976
P 3.7211952180217494 6.3554217666916335 7.279917224414063 1.530765402444267 -1.071876195769541 1.2879270228536595
P 8.10690788416775 7.026396177681141 0.8441579816573456 -0.22447221837859407 -0.08031303522845523 -0.3787224672161477
P 3.602882787339168 3.397769395541534 2.8351666739922674 -0.13667907272300978 0.7121184425813543 2.9672929320488706
P 6.819251591215936 4.8751933114034225 2.787873380902124 0.5081363737363119 -0.7641372588508065 -0.05471590348564125
Ni 8.466205722566057 6.4501425235288625 2.9943228888251223 -0.5247768105064704 0.9136975584118587 -0.1046205016255682
Ni 1.9223673569404838 3.172204295967221 8.902102893448582 -0.15788141783223777 -0.6561576109450183 0.8507829211655089
Ni 8.305601582727054 4.387995430795333 0.9448334931369773 -0.8384976760402527 0.11317687583601155 -0.04711726520277691
Ni 6.064140997436722 2.80537799292948 10.80100902023796 1.0563801570164713 0.42471024680017183 0.5536973501955625
Ni 1.9643422742680183 9.227307408873932 5.566187102497245 -0.510423884218908 -0.5174496807174379 -0.3634768539109869
Ni 1.961696130756138 6.817155174701243 6.180409189082309 -1.6976744776964117 1.3767874334314933 0.20408079920643563
Ni 5.211644868494934 7.238162197885402 9.20533416857792 1.0344285924460443 -0.03836265893859845 -0.13060252751162668
Ni 4.33005979573593 1.885489061095338 9.385464797705117 -0.5275129784907108 -0.023536392559043336 -1.0583457653832742
Ni 2.7153718438986294 8.573588835152036 12.927899045389271 0.3607208884324046 0.40308855476533806 -0.039716087642699335
Ni 3.721679723171812 3.6213219352617405 7.70228179375907 0.674370020187987 1.7049702400268765 -0.8521584613567971
Ni 9.493319371071735 3.4527700474803655 10.530329037267437 -0.4606558116568454 -0.39845362709648796 0.4116084193108911
Ni 8.878650048963534 8.436846573953613 4.90728991411372 0.4787154973720336 0.6594877037595159 -0.5878678254296844
Ni 3.108519820954192 6.3617948728963025 11.695457704731124 1.7967452531483443 2.650858010018035 1.6263374207143215
Ni 4.993692090220644 1.1113523227694362 2.0648006901707947 -0.8711679125797642 -0.830494089009486 1.1068318859091195
Ni 3.8705998349689223 1.4172521031868122 6.378487007056631 -1.136420912420146 2.6568522799282563 2.3867041567791025
Ni 4.401263417981661 4.086847527811263 4.799994385151021 -0.8317333607332257 -0.4540694166885793 -0.010402683390562729
Ni 1.0817975086156209 1.8198013436349352 6.749207054367664 1.7505561561867917 -0.558455176595522 0.9023242835779105
Ni 5.876870439530815 6.84747401620708 2.0726142674562267 2.3983671949393277 -0.17678236850179876 -0.21600146190342154
Ni 2.7959953643503836 9.172670135797645 1.9362307264169851 1.1770775095992438 0.9859897802183664 -0.7237100040736956
Ni 3.0929317994916032 5.023526426576418 0.14783463391283533 0.6887581705888589 0.47727233716760387 -0.8626063961629983
Ni 5.918379486521751 2.3246929796270392 0.37110578794973637 -0.7297163581687756 0.8528801700141699 -0.5589609125873471
Ni 9.214989797174264 1.8877438735244756 8.686324797905533 0.04773304440990489 -0.7434949000101067 1.8166245085707744
Ni 0.9299927276942921 6.1088925019703835 0.8593742385913292 -1.370075825739273 0.5419769764348408 1.2861010253885141
Ni 3.2212790772245183 8.614259315537094 10.294273469453598 -0.44026824913942886 -0.032559936213892304 0.19057119475577503
P 3.6389597862053638 0.4280705492276674 4.141696306020363 0.29161220656020104 -0.5854548451128175 -1.1993751446551797
P 9.035350195381842 2.2443955684109036 1.8698460669330303 0.0026456651529631853 0.08531074555336275 -0.4747608835996598
P 5.554217961809353 2.974833669163856 6.763690031391841 0.8603435682707505 0.20315134541363075 -0.17603032082712264
P 1.5464286301188737 3.9192273807030844 6.3930780659989 0.6591655445334067 -0.5154136241240155 -0.24720899785447747
P 7.7790842457100435 1.3531762970910401 10.682531671456221 1.2572373070792864 -0.13744063347938265 0.3566976262056244
P 2.408819845010015 0.9826882532076335 8.668760554475092 0.10955521992302422 0.01918891422362502 -0.9172155988674461
P 6.165309399732475 9.090807400250538 7.82491843290596 -0.6982897642283781 -0.5334841084724813 0.9999256735731684
P 6.668011445142566 6.862065075149348 11.004009224188783 2.194948454796923 0.5354977964684003 -1.8801199580212584
