# total energy = -340871.7168573196 ev
CRYSTAL
PRIMVEC
9.29558667611908 0.00000000000000 0.00000000000000

0.00000000000000 9.29558667611908 0.00000000000000

0.00000000000000 0.00000000000000 13.60503071279729

PRIMCOORD
 96 1
Ni 8.697536481371898 9.069294877823939 5.077982843987323 0.34573829898064323 1.334375801234502 0.2536724940916341
Ni 1.53081579887768 4.1240427858957025 3.870807766883757 0.07144838574897372 0.8539975714480647 -2.149974204079078
Ni 6.463081956271286 7.40896367030559 10.315116356378994 -0.424128920375405 -0.2268666867526996 0.35156647562664617
Ni 7.822868256578688 7.418668262756667 3.7041871650563394 -0.38281797744176005 -1.7275386122456957 -0.07853511739242604
Ni 4.010980565605998 4.653519400851026 3.6425704394613105 -0.46313564065590557 0.4902546083598847 -0.28798977931626535
Ni 1.5149854148315265 1.3118489600102712 7.721549150889985 0.06762078447276743 -0.41998507341036057 -0.16975528645168828
Ni 0.20012003695691172 5.990029552214467 2.303358990620588 0.3643636273913144 -0.4796081843896321 0.5785609462064616
Ni 4.433474273933498 4.50587759826438 6.2303418466809255 -1.4035580166571184 1.4882936064333014 0.5480787184572045
Ni 6.807251051578885 3.823674494830896 8.858330609494013 -1.7663990367563192 -0.5439677816126244 -0.20859539924733753
Ni 8.774039159410561 7.983561062806439 10.102456573046119 0.8559819488679452 1.2873210138385442 -0.19364186326129876
Ni 6.847398690272565 1.641991015079676 3.01513321426994 -0.7343574564852127 1.6534589595214622 -0.2725179089329113
Ni 8.720859108249055 8.038451501909515 1.2830345005468142 0.45878584832764213 -0.0732440441968158 -1.8352104991030782
Ni 2.579069808566882 6.508081891190505 3.2529896147463857 -0.4393897031892175 0.1982477374644263 0.1083498867610134
Ni 5.023530227014943 0.8292090878940255 4.421675385812662 -1.241518867902765 -0.5725437934781042 -0.3137707449351112
Ni 9.825063253918174 2.1977834358099035 12.09714445461598 -1.8125575375902525 -1.6446824988804127 -0.6111447936797539
Ni 8.248448099670325 6.99148028317649 6.0915977796250935 -0.5606105323756281 1.848606975014642 2.0750172909562137
Ni 1.24831362533296 8.349398170569462 11.850253673485126 -1.3094970357149511 -1.0430901247757844 -0.3627708289828978
Ni 3.7892715286800946 4.322847497343201 12.821285526729808 -0.21482183977302355 0.43288378374989966 -0.30318397055820046
Ni 3.6546435473879955 6.619796251417561 7.3339547930398075 -1.1278596531136962 -0.35802354410589954 0.41418157935470606
Ni 1.8601305467362172 2.5342093074472474 9.939332041353616 -0.7222233922258401 0.0915929790176487 0.182753241373253
Ni 0.9628368640637721 5.702321850151927 7.1209817484372016 0.22025715185598196 -0.2876570785671949 -1.4440554625505322
Ni 8.399473495793554 3.8696225795872894 1.4965940966663385 0.012105267903966248 0.5175286135844893 0.904960692759493
Ni 5.914316999040113 3.85939743428443 1.0464013992720564 -0.35736739857913935 -0.36281710883980095 0.24906199190281622
Ni 2.7420121467612617 9.70143195161997 10.108551689205289 0.5041740466544543 -1.1288613549053332 -1.0338740054941549
P 5.323154871148632 8.377675345125185 12.892984245593457 0.028921053909724385 0.0679660836273281 0.06985738711277002
P 6.111448504892598 8.043833646573473 5.094444398366263 0.8481778794424941 1.0944666794755473 -1.2180495811362313
P 1.085436356245053 4.327671906808822 8.864493583435646 0.008881104539713738 0.40783712519391696 1.028499628556119
P 8.01563083671086 5.93872720955403 0.5075873675378942 1.7369683902000281 -0.769726580013126 -1.5737426773367413
P 8.114117577150672 -0.03612543835500133 2.8648654084577863 0.5803823156859166 1.7884783851538617 0.6495437051729265
P 4.610332105326405 1.685754636975913 2.0315169958334307 2.332301927879138 -0.2434994102133742 0.6234518931818811
P 3.1959621202750124 8.585645504998702 3.6137950214617374 1.197682330333789 -0.0012032762794817987 -0.17374820966116528
P 2.9194648956990625 6.691065514178488 11.023938301711812 -0.09307753398297519 0.22198724717321122 -1.3440580615192723
Ni 5.146659567634645 0.2784046789542652 10.991762558119706 0.4746582965835245 0.4082973526597871 0.06919712782095179
Ni 1.3844010137273763 3.8240370227098155 13.445090036662673 -0.4537143473420057 0.35917025611583303 1.4114248209997047
Ni 1.2521434070282127 7.618885903373288 5.35636893176831 0.1290218132880681 -2.308785589924753 -0.2086725323421761
Ni 1.4351270300161967 6.549735414919697 9.244658908443965 1.4569217769902394 -0.04526324271317366 1.8148015964294228
Ni 7.7800341933463475 1.2699537510284655 11.137486681182734 -0.374208124285562 -0.620274523895164 0.15237745729487306
Ni 2.895593829210206 1.8757285411163966 3.344674774442468 -0.48564050662664104 -0.4031590029919573 0.2992728084292523
Ni 4.730542631741472 5.304879747816431 10.76987876416499 -1.7651800767475536 1.388523490921499 -0.6907543750832813
Ni 5.3010313749479 7.739375297387524 3.0026576074417886 -0.9433230945877754 0.28880379057712846 0.5628689893925016
Ni 4.72473289009212 9.169185251846233 6.849125810270085 -2.515709515006938 -0.3792999369861726 0.718352339306208
Ni 8.867022912560108 3.651706142010083 7.653918180739547 -0.33970109164762785 -1.4574534811239932 -1.165468978826038
Ni 8.637347557884613 3.3568780205820983 10.267281267534889 1.0620769502909322 0.6111352805980571 -0.5457215310789375
Ni 6.098787915890331 7.198316381480052 6.986469032419426 -1.8466051140932649 -1.2687527639180536 0.7949282760897343
Ni 4.298558129455591 2.863793627318314 10.565299634297368 1.3007478287674115 -0.9381274093194489 1.8864484713424479
Ni 4.130847155315424 1.8829698031081488 8.47691409852409 0.05445905027982879 -0.5335710117593326 -0.6548188375289367
Ni 0.5494528306424552 1.753844809106316 4.259911728004103 -0.7176653405415123 -0.6152950684027017 -1.2940483052600489
Ni 7.984704419963032 3.0773969126950416 5.352041836187873 -0.6906001088936041 0.33291646462562663 0.2391496178851107
Ni 4.261422260832934 6.921605358411407 5.129967482707059 -1.2237445746384796 0.22091818247874856 -0.3970927421932194
Ni 1.6511006899858596 4.780952598084569 11.361342998622238 -0.21465446095722387 0.8144738023218296 -1.500397331675371
Ni 6.938523326094319 5.03019516263508 10.825699691490625 2.5739681415385154 1.0477224813414732 0.43998619912263587
Ni 4.440734127098528 7.822310521380351 9.299378308752884 -1.2614009515386728 -0.13419950083426566 -0.04060363245397523
Ni 5.8334918732143315 6.03399767701676 13.247163758152556 -0.24560102993740926 -0.6272103317830487 -0.27003088084499943
Ni 0.5341123240121748 8.141149143096778 7.640054742826197 -1.17798562323581 0.5265686122995705 -0.2717959431652222
Ni 2.4550852739763953 5.5378643313353955 0.86197138300305 2.3631945036929367 -0.23722643272046884 3.1585141016838185
Ni 6.665911656733455 6.079146341322202 1.9421585214730808 -1.1989218591678448 -0.4173468644565651 2.3284208476571773
P 0.5624043715065221 0.7527872814591202 10.328122741204231 -0.44693203431284967 -0.42572968920362164 -0.3973483098474512
P 4.492770821103442 5.433642213939344 1.5612049307177776 -0.2757477287241186 0.6783716851482123 0.23901052120408517
P 1.531373534076018 8.739617602086483 0.5040717766710385 0.36747877598152845 -1.2622090492622648 -0.015335859026121975
P 2.5627095760823075 8.415508382745765 8.072735484551337 1.11390679047803 0.954073391125744 0.10243197861468166
P 8.239645179123226 0.2531541474081865 12.939336688368645 -0.24003896246859951 0.34441238108036815 1.6425348564097906
P 3.613008614832081 2.3900347586769333 6.334284166919144 -0.1705322738270289 -1.0902798950877095 -0.10915438494017975
P 5.014225344789341 5.282328654630308 8.499198408373674 0.842853124795471 0.2835862509319309 -0.5325765090565472
P 8.852419545950296 1.5677936425274746 6.437233718504321 1.4008534732417617 -1.4717971514401749 1.1600580922231118
Ni 6.425741584742572 9.060371114650534 1.2896520286750919 0.718076459937002 0.7007557092703673 -0.8056448911762898
Ni 1.4225965792268747 3.1473554977398757 5.802327489448546 0.6948681401413387 0.055217782822724264 2.9751502233097598
Ni 8.45318339539348 5.762817527998297 8.831161468865652 -0.7062807528536547 -0.2025237391319609 0.4661510304434617
Ni 6.153492443260628 5.629044740676983 4.461524636175232 0.7943711180346835 0.04753764056964716 -0.06724386074932291
Ni 8.716387931075715 1.5558116313498511 1.3359598526344132 1.8576181773743172 -1.4900887506605112 0.3223849689666835
Ni 7.089836885403356 2.211745406941626 13.526910719817486 -0.2561659499374491 -1.0302024701798387 -1.481072920315146
Ni 5.830851926608867 2.7603337480266577 6.766257514501059 0.1885449083543656 -0.9698813046922781 2.521741065912999
Ni 1.1633798502127566 8.745260023176334 2.93608819328552 -0.507032856259488 0.1365461466895713 -0.5633847526866556
Ni 8.315683077829943 1.2980543094380503 8.730837920505982 0.10813648519862666 -0.33878346492936495 -0.7509428716477197
Ni 7.000404046349894 4.902594644842035 6.7222317570616035 -0.24916406469831928 0.27395952647544425 -0.036769089199233454
Ni 3.0805945944988444 9.445152627983763 12.467010269628329 1.6711972573414897 0.7743951891333889 0.34637156168926797
Ni 1.799374592463956 1.5477523577338705 0.3765976788562853 1.0226565395117808 -0.30281990235056233 1.401085643857226
Ni 3.4909017887426645 3.339997235245742 1.4582683929538947 -0.6898678587132699 0.9104836794602514 0.10376483849349226
Ni 7.589344529034664 7.395373522639426 12.4393382377628 0.7955430268555976 1.1272086497932587 0.2640669499520807
Ni 5.498116402867191 3.2388147746806313 4.662430150203136 1.052267420399678 -1.1254543861063133 -2.172769090486406
Ni 3.588933045437167 6.959596421004847 12.96530855743791 -0.5088269720454335 0.5842839647331679 0.700937229153554
Ni 0.8305894825099115 6.308012979960107 13.488013337526748 -3.026640677879568 1.460710297498394 -2.332017306759184
Ni 4.680049005118626 2.0919159995787555 13.204417073434621 -0.20725765427252046 -0.6955019170705957 -0.3125003628631199
Ni 4.0937298778660445 9.157584359720808 1.107845226955601 -1.4628157738771708 -0.7254375282877634 -0.1590533266531519
Ni 8.3069173396294 4.037761150712849 12.703384024035861 0.11866206732029887 1.4626345111043004 -0.3710058152981804
Ni 2.4302474664770863 0.22111226026368155 5.373347320764376 0.9495963291909969 1.9113323790683212 0.5334062040466943
Ni 8.76688155769856 5.3865042940931644 4.862437710561716 0.9843789840878209 -2.239498730603472 -1.7459132580981416
Ni 6.62320773171406 0.6982593702349641 6.111257015807837 2.705004928374083 0.13005899630333084 -0.419737990396561
Ni 3.192708664951376 4.174359796372408 9.046678715531343 0.47897312190879443 1.7689886518603664 -1.117833379225946
P 7.430027469629479 4.031579585597939 3.5611847897611995 -0.530120591316887 0.48477070242717796 -1.3604192764861152
P 6.303262935187598 1.7659941408434405 9.651272966116126 -1.4156565996928652 0.4279552361000307 -0.7795425376622832
P 9.090312199214635 6.208522316163289 11.261917403931891 0.20078335940208647 -1.102575938846243 -0.3028877794740203
P 2.3809808572905835 5.457187934895837 5.45769919216098 0.15864709235366872 0.35714448393505593 -0.6542264553605766
P 7.477658055567525 7.694979575599838 8.4183035656481 0.916361735507583 0.8157840364928208 -0.17805557878726752
P 2.610851419285496 2.47628850709987 12.0363838525504 1.6421792728425846 0.26808069909716414 0.4596435683422471
P 1.279100608281205 3.0339772275044457 1.94134236896618 -0.6650114617912224 -0.11039057134012602 0.8908831316205045
P 5.86693739394132 3.9100955638133335 12.211426255872718 0.03427023403677969 -1.281664072663083 1.2365383839690383
