# total energy = -340859.95800867653 ev
CRYSTAL
PRIMVEC
9.34931589569863 0.00000000000000 0.00000000000000

0.00000000000000 9.34931589569863 0.00000000000000

0.00000000000000 0.00000000000000 13.68366885668870

PRIMCOORD
 96 1
Ni 5.253483271626368 2.8391253633784035 10.356936206141622 1.4465887704953473 -2.322662090796529 -0.15144748928143595
Ni 6.428710939726792 9.268733837401687 7.1354313146477315 -0.19136283741913496 1.7214571819383062 -0.19729668640506665
Ni 8.58185831974881 1.8244067453006367 12.914003002463376 1.3030453665523367 -0.3004056364821149 -0.22526360393163783
Ni 5.033559321039055 6.954413605950231 7.1740458578911825 0.7414305612819102 -1.2397270661096649 -1.0214306375244795
Ni 3.1476153805351843 6.370876073496587 12.28699021759184 0.38703741483974635 -0.4476663413757129 0.612710595504977
Ni 3.8780213115679247 2.869482591094129 1.8753193782691469 0.8436879619919406 -2.1046004039299686 0.012861172233384302
Ni 5.763909156178265 2.1867862175092925 6.303970501282459 1.7971936535396726 -0.2605666501083061 -1.1030634200056226
Ni 1.3990128860257698 7.981099347981225 12.312755996422075 -2.4530846410868654 -0.3362992650549305 2.001621551672882
Ni 8.938665599866745 3.016874551346179 10.758921249046105 1.4727955107977022 2.5753475383845457 -0.3961704874892661
Ni 2.544051614091061 5.145236895743193 6.501371015685615 0.639597392593492 -1.7300094423836914 0.656284880551502
Ni 4.705417042515335 6.611368518378507 10.022753334816198 -1.4857438434282542 -0.036201646731537654 -0.497425157966395
Ni 3.6695689712076516 7.369915889332509 1.7561343031474765 -0.397186073237974 1.4342981260534524 -0.028013711604106595
Ni 2.4730716101434838 8.57658530575692 4.071247356560834 1.4974459623565308 1.5577337035029948 -1.2002511195022296
Ni 8.712907676352234 0.9575382039387541 8.294724944190746 -1.0191665240806511 3.4951319264204326 -1.0524684806668907
Ni 7.73353882051443 5.841368235828645 3.153934582941423 1.0521365512487688 0.24302529879043305 0.3031145507728457
Ni 2.6764005255612817 2.152829503292011 5.901560999450259 0.6399326644457237 -1.0663292978093828 -0.6028622419559876
Ni 3.69086671211816 2.05202518261725 12.561347753398277 -1.2701900105852124 0.1327861654265068 -1.4815943400362548
Ni 4.32241298011854 1.9630103488995356 8.25415265426307 0.5251298229705149 -0.06179877847435163 -0.08479472514889268
Ni 4.272683970503528 3.4603499869691245 4.422370252800985 -0.05588961207876826 -0.38035434639261595 0.11362913288208172
Ni 0.18011176001697862 1.736485781506772 1.433706326311422 1.149975254065813 1.502261638577619 0.36502877177913906
Ni 2.9104512920027545 0.6320539358368327 9.433972706180546 0.44976230467279316 0.9854269657363609 0.3392699176474802
Ni 1.2193657869935377 7.4823227106525465 1.2641864059246082 1.5839676974988592 1.2816566164639152 -0.8276190814545359
Ni 1.9306336690167034 3.022586983170727 8.524227268598434 0.37818279266259386 0.4530659151247294 -1.2395020945830524
Ni 0.5887525806888865 2.1773247101337723 4.648274025638676 -0.15067333011957276 0.6281277013909956 0.8311780024503879
P 8.403005912541596 8.897491214015172 6.63575807795412 4.927116059628728 0.25230646698204284 1.8310124018613305
P 3.389659811804789 4.9479569875111284 9.523108146069353 0.7888689572695317 -0.23339883144426257 0.22380501710824036
P 4.615944092333786 6.01353588239011 0.36436620177120327 -1.2532484976348675 -0.0066897533153497685 -1.1537977131356967
P 2.350212253995549 1.404622475378845 3.834068309123463 1.377800190966724 -0.1372341738955314 -0.6021790998460339
P 4.222225714272617 0.49211151024566635 11.20440678752057 0.22719964461208614 -0.9905462892407972 -0.6270352396577652
P 8.594218114956753 1.369478398081829 3.243316844761764 -1.5038793766867002 -1.082713395594361 -0.4998774761616294
P 4.127788277513597 3.3683901188410457 6.672922542349801 0.1161488139801419 3.5971407014547663 0.697817709687966
P 0.6027961876343102 6.099343900860983 13.533490523217763 0.6748587868989474 1.0271068619736505 -2.83667934879365
Ni 7.200263208664339 7.6367453562271175 5.799398223220495 -1.1885975944237013 -4.013219754942501 -2.3311511021041462
Ni 2.7255872748721623 8.018225480182995 10.634426697601748 2.0402891434464085 1.0767936876758166 0.2863347602113456
Ni 2.818575567714972 7.205358585660049 8.542851105250643 -0.5205036370524133 -0.8424301783254395 -0.7515931036372088
Ni 0.6893259732686124 7.01440816408137 10.161998301464465 0.3241325477854095 1.0303099422919804 -0.39392617153977966
Ni 5.634168703757225 7.743841766292911 12.90490331360113 -1.3965085660095045 -0.20690669869100495 -0.822302554337629
Ni 0.7704593339452561 0.7791317590851103 10.786917774575745 1.7590392539571384 0.9204155938619826 0.10438190325220087
Ni 7.42776945419389 5.327155878463421 7.072102790577748 -0.1142510827367968 1.020669848099055 1.1254849822339326
Ni 5.650483259459085 4.301573355671865 8.501389695410506 -0.9311386367064416 0.5064731271012762 -0.4326500704725388
Ni 6.637238074611773 0.45401959374360945 12.533378340883843 -0.1538321874635286 0.5455538951528217 1.7140917427121707
Ni 3.883911380388654 0.6360330045512806 2.508544783349213 0.9423856703751706 -1.0210745397366416 -0.09606875540081519
Ni 0.26625822371215396 4.574994090056338 6.113274381087786 0.21559934136899644 -0.16136063463008984 -0.6207337229197697
Ni 5.860366045104393 8.911075769565203 1.2380354352921306 -0.12383384132922545 0.4724957417145669 0.023827955657533158
Ni 1.5733215258569921 0.7664606316680723 -0.14075301125268555 -0.15457060829144992 0.1803585158888313 -0.6713998818160696
Ni 1.282267982272687 0.037185967821535285 6.09845478094852 -0.2819589997411531 1.0582264661965903 1.2289867968740253
Ni 1.0178506387999007 9.041349132974785 8.800118092161377 1.405658865050205 -2.2124964909830154 -1.1332756819229448
Ni 6.053513555846359 8.646892158982128 10.625286806682473 0.8954635519023353 0.45564730269866044 1.0315119330198816
Ni 3.516399133921934 4.979202400207757 1.888687964629084 -0.6243312104630409 2.3666400390393756 0.5254447831077725
Ni 6.465416352727081 3.0091800646168774 12.797774180930777 -0.24002970649721886 0.43504145352285073 -0.09954231577171244
Ni 5.537982944983163 5.991041429084279 2.6609806993612364 -0.9233980735290741 0.3288631204918594 0.2850335249014188
Ni 3.351907275458593 4.149880710249124 13.399992580861719 -0.7022852585410163 0.22027849201222063 -0.12910126037575184
Ni 7.744655156749107 1.0347635506994224 5.284167725387688 -0.06882020409750728 1.380581867476919 -0.4072627407476857
Ni 8.914385427283518 3.7227759262215696 8.55256597907861 0.18833279234355954 -0.8428402692796646 -2.1182938422566617
Ni 7.127544232017308 2.0634313476351696 1.2038206799646074 -0.0010832057618497472 -0.05810667433474509 0.28267916573662927
Ni 7.772562863780656 1.3178701760335376 10.666268596632923 -2.7030040958939705 -2.5121207692144156 -1.653191307682372
P 3.4462605683773178 -0.3404553271537204 7.333392787986194 -0.7841674380288043 0.3445669043803614 -0.44356208939935227
P 4.984110790891697 1.6249484465364605 0.3237555796496156 2.062392917323984 -1.3932723184603941 3.077324320277365
P 7.597076210185287 4.4307248012108325 0.886469381493086 0.43781953048862016 -2.7757282630315747 1.539415364809781
P 7.653489980446047 7.6121099096515294 2.0246083146540954 0.033805635695535324 1.1312231702692905 -0.5879806968584648
P 6.993016930014977 4.153106224127143 11.029173500377649 -0.17637227754757367 0.3411198263720254 -0.3622021009636214
P 1.1021160201986782 5.31909676842617 8.83763783054942 -0.3025908170588918 -0.0057716123764545765 -0.3249388457367888
P 1.9035019551789967 3.43053501955753 1.3686818363936923 -1.1077641679154018 0.4089894936308053 -0.3817802802058651
P 0.876576870668938 2.317293313808586 6.842217144230934 -2.6931048345023876 -0.19477674819669036 1.557258563638789
Ni 6.556301049562486 6.4278601520082415 11.29012131283556 1.180767042635689 -1.5976670493628227 0.4808371717007267
Ni 8.257287479779881 3.6251036262689422 3.495041557391659 1.5691943958444265 -0.7017885214102558 0.3023018250635632
Ni 5.099939461717112 8.89362994667714 5.1171450071945515 -1.6820375424901033 -0.24981506801875683 0.6242581911332604
Ni 8.158783090739881 8.24061765008566 8.959696885282982 -1.2978363115475715 -1.3586290173549118 0.591298191267472
Ni 8.946369435911635 4.400863087221295 12.75261792157008 -2.8454938617614864 -0.6281510984297632 2.0998564614870805
Ni 8.076677401242037 7.358117053059874 12.886252363933712 1.5524521433890812 -0.7160452884395861 -0.9666350298408384
Ni 0.699694364256213 7.587642750756532 4.837272310122485 -1.5541105049281105 0.03812971699218595 2.685873349750955
Ni 6.822878084936207 8.833925217329243 3.6417715861000466 0.8556873004456619 0.23673149536192128 -1.1327002690354493
Ni 2.8468105007921167 3.081684007005374 10.523684989388014 0.03138828450329433 -0.1341370230274464 1.468062624098407
Ni 8.5526230099037 -0.2744837515668799 0.6583591701765198 0.21672985542901382 0.6041444511025208 0.08710151890519838
Ni 2.0709668959994674 4.084996460065222 3.474803093937323 -1.3624154809805376 -0.5296169122075911 1.152664113751886
Ni 8.333437655247875 5.539834109469678 9.846890838734172 -0.9760210990414286 -0.5125519863055044 -0.08103140145171851
Ni 3.6059281799970138 8.834028059800715 13.082572097454843 -0.36056250847766935 0.4847940994659457 0.22426910122885246
Ni 6.695886331298174 6.214723804538151 0.4824256192960233 -0.10882502662521905 -0.34938643725619184 1.328597503989828
Ni 0.20675076492317376 6.873224149380056 7.3511125458210005 0.5301635287396804 0.01132673786672888 -0.09016961630756083
Ni 2.781010017680545 7.295766467400443 6.1441719992445245 0.033088040803220434 1.5627882352077667 -0.9486434783594244
Ni 6.412321589500224 4.653341354687621 4.991392037871989 -0.2701293540960767 -0.22999623352061682 -0.6124894806331065
Ni 4.729930947988274 4.638382449746087 11.512206825186922 -0.049204486749108815 1.0943370958762186 0.5430974631925292
Ni 3.0642849306952527 6.337564462054909 3.849941577129548 0.6027344581288716 -0.6912711668186998 0.7526084322756006
Ni 6.054897254553452 3.5069469758620024 2.8304669622119323 -0.3813190242987304 -0.15526583458626164 -0.2209428650690969
Ni 0.47652152650191165 5.298173000139199 1.7435594736809998 -0.4042383520990651 -2.343363070789306 1.8279049665806004
Ni 5.064458809058911 8.668189899892637 8.701499641471198 -1.9251075784755425 0.596994727431617 0.7120019716081479
Ni 0.27181919662416915 8.539720954391628 2.917248244435564 -1.5549399428079416 1.8225146488029644 -0.1616570828245861
Ni 1.0793691353719583 4.933540342873725 11.327833647124724 2.6852022918258593 0.473253702926514 -1.4280943112355857
P 1.3038462026508497 2.6159478509663083 12.119584177459577 0.3791500416718696 0.026661568451586338 0.5650485135423235
P 0.4751574613575555 5.780326554351598 4.182522910694669 0.1117249738808334 -3.988208834720461 -1.5848930375266062
P 5.767041176900398 1.4891589869296877 4.052295358931469 -0.8507973193432121 0.19968087036652707 -0.3709770189427741
P 6.47263402436137 1.2368583564595437 8.865607243063852 -0.527337115034479 0.29448952810799606 0.7671449353288788
P 5.386673621499549 6.471914127061059 4.805964257011413 -1.3330817650134268 1.7577660436716696 0.5184297852425201
P 6.6131261897091385 6.680656296204575 9.022696313444252 -0.34000859558571767 -0.35307494185137256 -1.0651185653307333
P 7.779434610738173 3.4288708413827846 6.091996273740014 -0.3243747457032026 -1.1501817136496644 -0.02010679805220408
P 8.758868911785097 9.031766084496615 11.83760507958543 -0.9526909089559206 0.3517227986988523 0.7717220131765999
