# total energy = -340894.53765745915 ev
CRYSTAL
PRIMVEC
9.06613877248663 0.00000000000000 0.00000000000000

0.00000000000000 9.06613877248663 0.00000000000000

0.00000000000000 0.00000000000000 13.26921051289123

PRIMCOORD
 96 1
Ni 6.316614465839394 1.8882772104329353 11.426660972613556 0.7118435916534127 0.6400121115334074 0.30051825080057926
Ni 4.513259775452385 0.23544852544514722 6.081783344431305 0.5961570620216701 0.13453657245871023 -0.5960531894539541
Ni 2.9377371474924177 1.7230468348765144 4.682279796933775 -0.5713353749922999 -0.8873401514642525 0.3310164193894364
Ni 3.5261023426905003 4.1222100202329 4.933916819421093 -0.25407204352289786 0.9210457712468136 -0.718224298368776
Ni 5.065306019513073 4.2995346246503505 2.6185193148282733 0.5153094944459835 0.2973714776414814 0.2902109553373002
Ni 7.301124586136945 6.079471479094302 2.6263751239047974 -0.23886653942705316 0.0886161557775119 0.02753265820263
Ni 5.154534955382828 4.52835489618223 11.520155526683547 0.16588191953921108 0.4730811819043917 -0.3627250633466269
Ni 5.622012258802072 7.8390276540183175 12.478100047724286 -0.18055032018466322 0.21071913045855967 0.5479493919681917
Ni 1.6957486916227211 6.51654095372802 0.38268261592724745 1.4216223303579967 0.19300063013287405 -0.1922573242089463
Ni 2.831101225555813 1.580735657641445 0.5846625842034463 -0.4000829351697948 -0.18952912664450586 -1.3120059181797339
Ni 0.47317265167299194 0.11976369059535369 4.71062235935158 0.2282201154568005 0.22337332888746048 -0.2736491943238771
Ni 8.665868558332235 2.3671415839042442 1.424130806326691 0.6982126311335395 0.0988594307720749 -0.34392438570035605
Ni 6.942032969399567 0.5412629788378174 4.704014957557038 -0.7426652050199597 0.43197798410617866 0.7332588241043952
Ni 0.7327352925038714 7.361994640539459 2.598403366554771 -0.2441671257043601 0.2343305992299126 0.3054370282584353
Ni 7.499926872842087 3.8710145186942575 3.889550239013879 0.6028637846178844 -0.31486809176434805 -0.15099446090441737
Ni 7.769327180642309 3.7714139202930044 12.63405304367539 -0.6837149517379967 0.8255930521634427 -0.5767694015236776
Ni 7.808084923056778 8.945432007476695 7.039634484244705 0.9048665903837901 -0.6220280162511609 -0.36493775472722956
Ni 6.744608735758051 0.7923324610502467 0.4287848372025263 0.31050441547901364 -0.4014877859371214 -0.6346958415268167
Ni 1.9049407731365129 6.589686559763092 9.086582718973975 -0.013360223356989893 -0.17788280065482914 0.7601677326800973
Ni 0.0962143956429365 5.022232795136197 1.528360575085097 -0.5496465771649567 -1.2820371397317856 -0.6140288000957683
Ni 6.549396639929197 1.884841143912448 7.319959489029591 -0.44489752038132413 1.0109546776938203 -1.187373492208613
Ni 3.2308454076701456 4.281166627894394 0.5310472538898353 0.9347698057011257 0.8129619936629934 -0.8353879267666774
Ni 6.122508438916872 5.756218308149765 4.823212014491362 -0.9566362667569137 -0.641052894093096 -0.06120922451946878
Ni 5.154235772809804 2.889886068085735 9.342041118871279 1.0435639790884093 0.003998836746747951 0.600108076249618
P 0.16883869870986162 5.47537653346602 12.491103610284537 0.11890040858335006 0.06283030506265953 -0.09518429591333284
P 4.091765926893067 6.103514878599137 12.714344580136448 -0.6140496260313747 -0.08088407724057683 -0.5615356152930587
P 2.424693431587764 8.444990224193354 1.345126661543494 0.16653266574933254 0.029167879813207828 0.13246914840672022
P 6.204275942738181 7.7130083278051895 5.9110353169372365 -0.7242314237948044 1.327309895526656 -0.3660515566166986
P 4.614990916419112 1.0705659076655372 12.699629330612957 0.9974239901972369 -0.013477722771460659 0.027084772031934
P 3.9195727569099064 6.426840578652286 8.377542686253603 0.5605308281776281 -0.295965084212258 -0.6705102801222645
P 4.859831054815639 0.8399849920221042 3.8896164218254876 -0.02503894524649881 -0.7605549408161869 -0.9578608831926343
P 0.028818534693069706 5.632003143513358 3.9363777513752765 0.12958694176291877 -0.2295609457554111 -0.9602658930897009
Ni 1.5383151952420764 1.0697318229165007 2.5872039655712404 -0.7557873442242146 0.2959013208538582 0.2822104536303269
Ni 1.9008338123613657 6.228165217887216 4.929233252232482 0.17105009400371185 0.0971589031412004 -0.5283760978219545
Ni 5.976244425262455 5.806789229129392 9.128354045851268 -0.46462122406249656 0.26962747475899373 1.4827775617110786
Ni 8.785296801800259 2.599896559578318 10.133722631171734 -0.24030841407990228 -0.913742295606865 0.7328947558967572
Ni 2.5870045105225574 5.0783068622317495 7.0330397750441715 -0.6996532202348079 0.055284374394601564 0.0011917063152560123
Ni 0.6967753604541052 -0.025528433003663656 8.82950510672691 -0.35660840892592777 1.2049945477244859 -0.49374488090133034
Ni 1.5285962946880856 1.2018707926687549 11.254174059740519 -0.5314755626828848 -0.19116846202014173 0.844152817443501
Ni 4.1060178967353 6.622904891507329 1.587953210562184 -0.008162224095818202 0.7196152651790316 -0.02929926318474954
Ni 5.534025383917295 8.03764861795193 8.247796270471683 -0.4369618104740152 0.26079727806187347 -0.7826661708929294
Ni 5.304742739318014 2.672035824231401 4.865368652258155 0.9767528350011306 0.06371322188824512 -0.14986111863092255
Ni 0.9188259463109244 7.300897932672534 7.054323441966324 -0.6036883374017087 0.6072824825108702 -1.2141785282165993
Ni 5.0914799615833815 4.870574429028772 7.088518196835249 0.2989825308823431 -0.649732681255281 0.10051624964920754
Ni 8.255807110517864 7.381758822636194 9.205859557927772 -1.199755925033366 -0.4087938326802314 0.646629616849925
Ni 4.534918780511605 0.4526985909257181 10.538367061186658 -0.6097052330197499 -0.4327495721648805 -0.4572652979180577
Ni 8.028546214821139 7.438793900420855 4.69545561612698 0.2363738549121865 -1.0162215825197143 0.017916989489736884
Ni 7.2771809141564505 6.274583847398814 6.955374698928721 -0.4620709468368171 0.12371659902507079 0.8885660534515536
Ni 2.1642323364239555 5.374406948139717 2.5686002492122952 1.0434341383787642 -0.47832391836056976 0.8445875909880745
Ni 2.3936328408247305 5.242984203335006 11.42686042766224 0.24198965843706713 -0.24285586309210433 0.5472222839941802
Ni 1.1042738108929047 3.4399377616595963 3.838650217203925 -0.5488531347293838 0.0010286983748304863 0.27982061324191165
Ni 3.787533514681993 2.2954646923185615 2.6159717298882814 0.3199879294894166 1.0053856682464748 -0.34473556874774175
Ni 0.9522890637967268 3.6528650922668997 8.067653003570802 -0.05431892515753871 -1.1327591472978427 0.3034084278641807
Ni 3.9749668636122233 2.7394606968247124 6.921897075621196 -0.5178201766829792 -0.6610943861250034 0.8618731175413996
Ni 4.004531541510137 6.7653701930981995 6.119215617385893 0.6639501104062436 1.1641518026765112 -0.9565002553996819
Ni 0.7616843795924424 7.179266617530424 11.219886830258114 -0.04714606155818332 0.3733162085989119 0.4322474357174814
P -0.1073838783691648 5.694668293354016 8.15505783235897 1.9547971351201752 0.2985688403836922 -0.08353796992365613
P 8.605859787094488 1.7788851823690794 8.10054767416786 0.03113400240064316 -0.704833993104799 -0.43814451792820674
P 2.008974713301667 3.3056954477575977 10.395921705100656 -1.0517082054620983 0.02247632672564516 -0.695146590613706
P 4.040098003145684 5.865963915618104 3.78403398519147 -0.04255767085655251 1.1324575568970239 -0.21002621815659314
P 6.937617759912819 3.8652575206981905 10.414923424943108 -0.5138074559791603 0.8486147098695965 0.32775394658808066
P 6.25943432983751 7.79706956468635 10.343402470940942 0.7759550774213411 -0.4087766062890509 0.4143327602205897
P 2.3501607063504895 8.328290888436854 5.486897782369016 0.253230521458209 -0.09216144992660902 0.8191238994993313
P 7.098822769941282 3.9271157842055406 1.5067051964813072 -0.8392790342909675 0.018005178328168992 1.1987984462161032
Ni 5.3232829927069245 3.1518340099760875 0.3232350386673842 0.32512319383345295 -1.32643032113518 0.32189363115256175
Ni 1.740626077576317 0.9813097733800521 6.61653230270192 -1.065013664321753 1.4317571047991535 1.1314576548775999
Ni 6.9738007189715665 0.5713081620802855 9.403743444795117 0.2671034227855593 0.7901375395693101 -0.01657795896333919
Ni 2.5563609621340415 1.6237182206325558 9.061676223076658 0.9076786059112885 0.323755624061965 -0.33488670097812
Ni 6.393459056413673 1.900217314938165 2.5376303198350256 0.25742013405952435 0.7768004561407719 0.4337091078646724
Ni 4.058792380890394 7.005804188146556 10.616402942369886 0.1277167213233994 -0.11837076133212518 -0.6684094317291779
Ni 8.446431740227016 7.284669544620627 0.42198704649787855 -1.6582301556578602 -0.5837188362583172 -0.015715868073360034
Ni 7.465720331993013 4.1983746504139425 8.336925478817097 0.03926537325852592 -1.8390419570340264 -0.8974558997420158
Ni 3.006739528198038 8.409686680576527 12.437615205910996 0.3756230023552176 0.008666417425746366 -0.13108409513373553
Ni 0.301521636776705 4.915234227656533 10.149473233720661 -0.3278616758105386 0.21768707713596058 0.7183541390784209
Ni 8.545533701006564 2.350885997436608 5.771191036008829 0.40879151868738633 0.16542014941144412 0.4608846398381998
Ni 3.5979061602162536 2.7807750903177504 11.726465482743876 -0.019630372636417804 -0.31958503762404317 -0.24275970383387221
Ni 1.0850717293879115 3.204979714311437 12.639227995574847 0.20741629133757183 0.5648397399656272 0.20781224122440983
Ni 3.070846194072356 8.539486586576048 7.81372043479592 0.006676126468594954 -0.7804686490209785 1.1841765825378705
Ni 5.496763554367945 7.75900991494227 3.5061106005154956 0.17192426907854905 0.24057143793330182 0.3544597380140412
Ni 3.047781937533781 8.1848555100183 3.356791298160804 0.3071105593061163 -0.1999248680565331 1.2880568635633043
Ni 3.539121317686331 4.427077062144328 9.178604932139146 -0.9123708691806353 0.34236758273619744 0.5543318984557679
Ni 7.293255177852557 6.062635659757771 11.390780822583265 0.2191191815967968 -0.3229493261105858 0.19124688066656095
Ni 0.7732545856437514 0.08618905960506049 0.24943485742708912 -0.9959538334096136 0.7405324749476729 -0.6522495341398639
Ni 4.693041303424063 0.2618092299701321 1.5638291224240177 -0.4552588090109902 -1.1930173207579517 0.147090754974637
Ni 6.0594353128402725 5.512774355094017 0.522407223826446 0.05437934608182893 1.2667627300712183 -1.0550269854226864
Ni 8.072961227707335 8.714372399716424 11.592273939217907 -0.5484206751776555 0.8129679072002645 -0.04927596341699256
Ni -0.07943025329629166 4.928407327008164 6.0619058356023645 0.5556423897370752 -1.017606892903015 -0.7477701303466928
Ni 7.912916683416662 8.851243893805604 2.5301063314304018 0.1119867121826523 -0.06511370178019754 -0.3767661148207253
P 8.517392406865158 1.7118138891802508 3.5200162438641063 -0.03721260449455527 -0.08822791920015773 0.8196676878179431
P 1.8921031209122117 3.258968569534399 1.6991484935889025 -1.532733067693599 -0.5728515545265102 0.8001411877492414
P 4.78876159451458 1.0985530774511432 8.321095094248697 -0.9649805249565511 -0.8134857273769474 -0.5349270115665948
P 8.351164756065323 1.71764341628493 12.448920680715872 1.2300052108362107 -1.5399049028516898 -0.39480394615904263
P 6.339542730299322 7.702972112401023 1.3743323203537796 0.42665657189326517 0.012616403212429883 -0.03157880324754561
P 1.8632546679618396 3.2012988620493843 6.053041871916136 -0.47458039215773756 -0.36949914884566687 -0.03980993290808627
P 6.694971627051801 3.8476692118598113 6.044071834408563 1.0163233982049011 0.12716162015087776 0.149747990091826
P 2.2086836138644568 8.530293522059493 10.187104055110073 1.529460310479598 -0.02380198751560417 0.5634168914761716
