# total energy = -340859.3979626136 ev
CRYSTAL
PRIMVEC
9.37053215657924 0.00000000000000 0.00000000000000
0.00000000000000 9.37053215657924 0.00000000000000
0.00000000000000 0.00000000000000 13.71472099906131
PRIMCOORD
 96 1
Ni 2.3701917068575757 2.5803165139650606 11.411223836060275 -0.18169780352554513 0.5569965897721245 -1.0365957753006922
Ni 1.2743829665452555 7.007049484248989 3.114970014975185 0.45921213723178333 -0.34213901166515914 0.0934194907034262
Ni 7.4583811527439945 4.640062499297887 3.9650627939543854 0.022911357380534736 0.06901535082744889 0.1688397166159544
Ni 5.310046158920526 1.189186090598892 1.6253731054528378 -0.9993255780953241 -1.2115153795621394 -0.7574891574066696
Ni 4.292724993721133 1.019532610725497 11.045136833224273 0.2891670874538181 -0.04956187008852754 0.031321692931417025
Ni 4.811149670550494 6.1795097014232985 6.360928821138121 -0.4434744147815523 0.32259759919812186 -0.904788428847687
Ni 3.2746822975661893 3.4015124467010365 3.548506106357373 -1.1904531595752013 -0.4306541230884325 0.7365668054317056
Ni 3.082127237752967 5.964943262199824 1.5708150576281006 0.7018165464347139 -0.032557365110731026 1.509261209823904
Ni 6.950132873547471 5.161157777715976 6.819576063879863 -0.45637801021709784 1.5594866816383595 -1.456257661043679
Ni 5.8165421486535696 8.654913740344861 6.646304621643633 0.8240635028927936 -0.010376458138317614 -0.05915696997613039
Ni 0.8008412633639248 3.1331216722998336 6.6257737862720445 0.45860124312066175 -0.9031457510379414 2.1145824548433456
Ni 8.15711360420599 3.1292329015653704 8.608825716295742 1.772293547863883 0.46903606530074066 1.0073080820801683
Ni 6.487575307847918 1.9269280663200954 9.83459342634107 -0.02955354528740072 -0.21752895429154154 1.8490440625520606
Ni 4.605822575770829 2.1120804059400022 8.37346794091413 -0.40102344470619317 -3.207391801221128 1.1084925614409942
Ni 0.1748194541045026 6.072779343193088 5.2050933905899 -0.5837779716310268 -0.41399054638982247 -0.1462374058354062
Ni 9.00070510815972 5.334334577580114 7.539461554030962 2.6150194030528704 0.45197833848750546 0.581466806999347
Ni 4.6095895295907185 6.271931257457062 10.524608471985546 1.6551453460849492 0.6049252951326033 0.6246597974470532
Ni 3.6695939935498605 6.30924471544413 8.498587030925812 -2.336284052455338 -0.5357842173605676 -1.457985185257747
Ni -0.26768611040305446 0.45463009572038143 7.886581663267861 2.1231707107329885 1.1853844868030423 -0.899230218033619
Ni 9.600203626903724 3.3099529796011775 4.436039782557349 -0.14661355822790234 -0.19860409236258053 -0.8454535385327956
Ni 7.712191379523933 5.297424052464328 9.552576961518223 -1.0218880367768723 3.6012860910817075 -1.5732199720640518
Ni 7.000180884373419 1.5999058738814536 7.580276779785424 -1.911872053621875 -1.4243212173463986 -2.231620870517292
Ni 2.082385190379727 0.736384185650303 12.681576536839524 0.17646663703359286 -1.0253191739456085 0.5989891321538264
Ni 8.354728751239962 0.9780680071110385 11.990300217602618 -1.298197551541732 3.005974150669152 2.460987955094342
P 0.1675638512618641 8.611125244821615 11.82533950009987 1.9409946820194446 -1.4496704947444647 -0.3628957845965363
P 4.733074398840738 1.2486608565064556 6.331867053533628 0.1572558684330969 -0.5899391061364162 -1.24172841281041
P 0.9706184342582712 1.9133407950791996 9.281725485442633 -0.1433621411701402 -0.5371571864486943 0.008669502749539908
P 9.44081087945018 2.990071132462924 12.555840865829461 -0.7026272152614674 -0.6066168239024133 -1.8536715340217431
P 3.4261100929130035 5.078462833784315 4.954277985802093 -1.1707065730758934 -2.5332176990940303 3.554421822430001
P 1.5918472164558186 5.865924851715309 8.71061686716659 -1.7201621172759665 -0.9190400536706946 2.0437020257826997
P 7.5139858889808755 6.615529920809597 11.35805168990211 0.17890712815428544 -0.6142925952801163 0.8823486117869319
P 6.303153869715452 9.301302400667792 8.968247459798192 3.3491313191861805 1.3647284453844302 -0.6681651769288557
Ni 8.103354862751495 9.753037002034079 5.757302583096451 1.0980214867063411 -3.4652757622909487 0.5435967714264509
Ni 4.698028609571116 2.8173253770657385 13.474164235714497 -0.2329774276361278 -1.0115930826087676 -1.1690703230240511
Ni 7.59510658355497 5.148057774133374 13.40107877223631 0.8660974400353922 2.251442790339226 -0.20793951083089351
Ni 2.4951008969549164 3.583066502075078 8.82438074663364 0.5743739047083075 0.16132772450962538 -0.7071628983482918
Ni 6.652056254117883 7.9810131983920884 13.314922353824382 -0.3752049409811925 -0.6984381168807843 0.045681561197514875
Ni 0.6108818408843077 3.9344333363646498 10.091963518186123 -1.086158416720168 0.48402148296597935 0.7173215840488485
Ni 2.741274140244282 3.5226078303190356 1.083653286344258 1.1886112212704563 -1.0236340729337017 0.884354072252735
Ni 6.08795023432344 5.966039614430987 2.0227155174088454 1.075942395419115 0.6336504309814378 -2.032305868130616
Ni 1.8512047981147985 -0.18660383500971006 9.986168339038562 0.1554632953090484 1.7013904930954182 0.47240138222854766
Ni 7.783763502101839 7.64281196140835 1.6962639903623211 -0.7777975299467186 -1.501409574989969 -1.2199128595972153
Ni 4.603592389180944 8.33895814606863 9.038864725176479 -1.9390534991326733 -0.4811359338880682 1.3720954272724628
Ni 0.917189535526312 4.267827490488678 0.1870442500085529 -0.9582689172643303 1.3856034890612265 0.21912406669280327
Ni 8.243950323233152 7.886502013746794 3.7203785281823842 1.8026140532242956 -0.8287866194000759 3.1130461991590064
Ni 7.645379487146285 3.7487375058951073 10.882904814607976 0.8080771547668663 -2.449224386800511 3.251593435439006
Ni 5.002008664091577 4.821101175417963 3.575605684584043 0.21339821995261962 2.1234059666722462 2.5024073985813935
Ni 5.145658917969464 1.8182205258610369 3.8207978331844967 -0.8134075658408444 0.5941161203322414 1.5349053927545695
Ni 6.525169881791694 9.34584990927415 3.7577238459778792 -0.652123807195277 0.2592821269689276 -0.6583201658139759
Ni 2.3329625836575203 7.189343811642363 5.4274776645694285 -0.602853243094923 -0.47742120404064226 -0.0892555891337237
Ni 3.463995153345378 8.423264821485418 7.0367896783623385 0.08942605327331696 0.6499306561987 -0.28384824634406597
Ni 5.5057684585126605 4.435531899728896 11.610854584503844 0.1282042024827792 -0.37529518670215367 0.6289535397264007
Ni 5.789957949680865 7.025069017073984 4.055415336546777 0.09792740587610876 1.0424915719598369 1.2396352777268071
Ni 1.5407965587176107 7.007208783291124 10.618540557760022 0.49718964491682116 0.7772935937271065 -0.7844615722304554
Ni 4.511620618677913 9.144889482355353 13.263766746129004 -0.22718267533122166 0.5733945715141737 0.3179081641422525
Ni 1.2783279604710605 7.812502923409307 7.82005182390011 -0.2932404861922434 -0.13425349400065265 0.56900029910122
P 2.445961827722324 5.753553433287153 13.338196880933443 -0.5512483744344377 -0.19815826307441356 -2.2320427885460594
P 5.540551872889354 8.215435794691052 1.729604342827913 0.4735540077757522 0.6224224234761023 -0.404850017541135
P 8.471691730294351 5.355511979652131 2.1823959401914226 -0.815570377820118 5.423047663768731 0.1177189866807392
P 5.534948294818971 4.910917723586232 0.16523246292756416 -0.2841495796345687 -1.2009959680880542 -0.6310852413574228
P 8.083105143336613 3.390136620986245 6.5059209351826945 -0.8488479089263251 -0.2977815685957065 -1.4149276919466405
P 1.3553349915453248 9.14376501852852 6.073824157498853 0.17622726732927713 0.6517988197556903 0.07796561804220122
P 1.8194949181981142 1.9389598292672061 5.107019529719923 0.6633405018467028 -0.29820322951415745 -0.40215267321462994
P 4.29327785510266 3.4724942257698554 10.047212669037746 0.007018597409678234 -0.17994174006638688 1.3778243593364399
Ni 8.618696634588956 3.4999873663359167 1.7054939642742404 -0.4792749694199295 -3.644223256764866 -0.577349956617496
Ni 5.640198109010519 3.626274024621128 5.399197399324584 -0.08765430608487484 -0.48411481401073403 1.4662679940918297
Ni 3.0158494656930652 8.778089382042502 2.1653762431191197 -0.02032765581375854 -0.8285364510624827 -0.12246807132995037
Ni 5.165084030578 3.645708507761554 1.8882427624642921 0.02541869718342074 -1.5319182851017874 -1.604759951653862
Ni 4.560169344401419 6.592084850020134 13.024746966884672 -0.7871020951770961 0.19700975129226717 -0.07111028568326462
Ni 3.3536009171460694 3.007565915502064 6.56751344129746 0.30467315350921725 0.5790378858428802 -1.862490932085586
Ni 7.582606294013346 2.099336482569231 4.694891355494254 -1.4985556504809419 2.402903135136468 0.8913793545306326
Ni 8.984100525650156 0.8258099826387464 3.3864249533045077 -0.0064902357100339834 0.5147070849752942 -0.12814892376481157
Ni 1.8379361249581718 1.7753316013992568 2.8549246362754594 -1.0066043711449244 -0.28354768438451167 1.2341279747553326
Ni 0.6327086208163211 1.7975397619792042 0.7200157405443738 0.31399288824824634 -0.48961646055525354 -0.5894477683222945
Ni 7.680031714076516 1.2387843158941079 1.3356962308096905 -0.10568853787876635 -0.41248285149604447 0.45879099053396466
Ni 5.369352255254064 4.0308092568561085 8.023906808119813 0.18196854068842855 1.8522090905436035 0.15233066321733765
Ni 8.701616471285982 8.90878019031614 0.12999926302013717 1.9976643667973466 0.6199119983494227 -0.0749348016356774
Ni 7.265235749421685 2.9460577441743108 13.425888192469 -0.09791172214682493 -1.113066811075238 -0.7600579465751104
Ni 1.0026281711954443 4.633222011017988 2.7307932003250115 1.84794697283314 0.3748773824384447 -0.012831861657345643
Ni 3.493512328799738 -0.22409533310269286 4.591524081159461 0.49625427758674534 0.4254173001695254 0.14341587722621107
Ni 2.6798221921078706 4.987587415512447 10.906960844076684 0.552886424258493 -0.4935641323490919 0.7395919654112747
Ni 6.234627170001885 8.447225271528847 11.01783016624283 -0.143275752103921 0.3781555389690842 0.14751961498193947
Ni 0.3513181075237421 5.950915575960086 12.20681479040608 -1.1151069814337184 -0.5104197704538499 -0.10911890371655401
Ni 8.586349558503732 9.507716477146728 10.053973507796579 -0.17790542636264844 -1.1877411599606769 -1.7449629783697302
Ni 2.5676475548494113 1.2059687132143713 7.8497029979605015 -1.8290714760848759 -0.9884099596240848 0.17539345857407213
Ni 1.3993952324933892 7.68531669406263 13.487316714275684 0.5603225688215641 0.3799992770460423 0.656558703038179
Ni 7.99924825345056 7.79959033046451 8.132307932186059 -1.0799268339881594 -0.7890497058217701 -0.6132692962219244
Ni 2.0258996241451603 5.088901606310079 6.845058288302271 0.8463387693512263 0.4498394377676317 -1.6452525124512696
P 6.94531642015587 2.7347616205805423 2.826713712966603 -0.9677747998722365 -0.7251855601779575 -0.691505394316693
P 7.901054449772388 7.4261652641052365 5.824243788814184 -0.7196708010073154 -0.18699067649336829 0.6213574725466977
P 6.175892676113653 1.3404733279673517 12.45068944222276 -1.2318582048845494 -0.9065964285907032 -0.3861850941417801
P 0.45046395724196603 8.701475913307627 2.18360286469889 0.22030086060972381 0.2417849986254287 -1.4942485384651556
P 3.768143877439863 8.04935248746785 11.360012942226742 -0.5395956206868578 1.4349892385832062 -0.45452295928623015
P 3.573452336355658 6.703631661641945 3.6984627281974136 0.14081803459204784 3.1320273682471993 -2.2991917755887306
P 5.739591340770646 6.229182890973636 8.378157892125211 2.002680846175332 0.18883492879095867 0.8153613471331055
P 2.9540039552172628 1.2598211599877709 1.189257306641258 0.9583666191844591 0.752103210504408 -2.888021193600736
