# total energy = -340871.12817249965 ev
CRYSTAL
PRIMVEC
9.25635958042311 0.00000000000000 0.00000000000000

0.00000000000000 9.25635958042311 0.00000000000000

0.00000000000000 0.00000000000000 13.54761789311515

PRIMCOORD
 96 1
Ni 5.847316530765865 2.406644289264334 7.203607426029859 -0.43821239505166465 0.14291194100659904 -0.8198193829044591
Ni 3.573917540690989 5.6321431910674855 7.577195958461008 -0.8579280168507226 -0.8110251816515968 0.11252407274336106
Ni 0.15180244929817893 0.05262333104702967 4.559640253723593 0.2703530400711086 1.8240285143443296 0.41423017320445427
Ni 0.8518942631763206 6.7981298084832105 1.185387947537372 0.8802909579269549 -0.8115301463124733 -0.2212056318121803
Ni 2.0390834983289943 8.432960305665889 7.822367308969612 1.140951453300648 0.11711169211404346 2.54408549504647
Ni 6.679657659519968 0.7508138886241282 3.6079068938430345 1.6035936992599027 -0.2815694776122183 0.6991701099508023
Ni 4.466711955239212 0.43029021560203273 2.919349429900286 -1.6804033493207897 2.568324570099493 -0.27932541877304795
Ni 3.964137900394359 7.665274850050956 6.4459706746038865 0.9990800377434214 1.1983834701658715 0.1890493587946099
Ni -0.4878314506059474 8.63980292155249 12.560687703916111 1.2110016731505142 0.44256604403467004 -1.4417597245378202
Ni 1.7286437036630637 9.237125075216607 2.585007862982392 -0.7680556200686063 -1.0021522489108419 0.5516060148841726
Ni -0.3930139290882523 7.539684560408539 3.2491387190730343 0.8970257541831326 -0.8672109848145451 0.07747967954471818
Ni 7.630609782634178 7.991718890795287 5.363569911735625 -0.7776880009520477 0.7526328577556328 0.9118221957660168
Ni 3.0368172638262205 5.721457806689513 0.3889818587633528 -0.08972198724718097 -0.4290093883961579 0.7441158214235571
Ni 2.053393830565667 2.024060426388425 9.616600652474744 -0.4445092838039699 0.5375302535173969 0.9565354795129914
Ni 3.737819903507783 6.285364501508618 9.922979682100426 -0.4307096589167163 -1.4435769802522171 0.21408496160699902
Ni 7.692905084026679 8.075868457654014 8.035065498059915 0.25774229328563353 -0.15739959309981277 1.002226296681887
Ni 2.4634042875019 5.056369842996496 3.2422566155685284 -1.6675717447737601 0.4041457923852588 -1.5241784932553686
Ni 5.155598019954537 6.75699454557262 0.8249304871055395 0.9051805220797831 0.17519676918223376 -1.0699087876305253
Ni 0.6894414463027757 2.324336738003989 5.454297973497717 0.1264512243474145 -0.108632965219071 -1.1493206512009497
Ni 8.496023884921032 0.9517204009768512 10.67121474888682 -1.4290957559169064 2.0222191733185757 3.013434206491623
Ni -0.07589752210517313 1.3061741864483303 0.5639455715302267 0.5065194069581793 -0.5085698617293049 -0.08207475511456833
Ni 1.4162045352823072 7.239519325110466 10.049054079359902 0.11146195002743385 -0.5067150679087531 -0.46569337408075284
Ni 8.588300535676135 6.324287494429194 10.608516795843414 -0.626470882513863 0.8098183058276892 0.8433115524891283
Ni 7.381595191540407 5.617194170005244 1.2683795437862617 0.015165651996844852 0.17048265153601605 0.3830871719427467
P -0.3035197400862819 2.513583013928163 8.796997200428846 1.1517539432327906 -0.6697919138990014 1.2771543577181874
P 1.8004915683597347 0.819889473563436 6.511202093322049 -0.5585834746432702 -0.2397186030147033 -0.8509004205799797
P 5.040671056791194 1.799343779745668 9.283613290994253 -1.0282003521481453 0.47940635279147115 1.7656184498365526
P 3.9531783704019783 3.611961179431432 6.636246257736805 1.5615116824881883 -0.442927798249463 1.6301411107311279
P 8.570028481448974 2.800594961963422 12.27579453663698 -0.8499000043399233 -0.3399425182344726 0.8066229388188431
P 4.936860981736676 1.8957765360468684 13.37964135950469 -0.38835227699642794 0.7632916230210596 -0.4109245058699891
P 1.122379906440974 9.112969521341775 11.049112116800615 1.0417153559154446 -0.3064675264054787 0.26620199401721245
P 0.3163666418400194 7.002491719945863 7.995465865238628 0.5091051654074845 -0.5425277067319882 -0.1905853358231621
Ni 1.3070813097078349 5.855008565752071 12.220371156753213 -1.9310774229057321 -1.620899280417886 -0.2459661265863119
Ni 5.1387144196960035 7.9017193045487355 4.1438778948133175 1.2750401395886621 -1.0890403662536536 1.4669917596317317
Ni 0.39197443988373853 4.895299926275706 9.082052354004318 -0.6482653526811352 -0.05821517488815135 -1.0590317357067052
Ni 5.123608040517317 4.279289182193838 0.5318722848548898 -0.0441736091934207 -0.6107257038644642 -0.5590380456821856
Ni 7.898266682346744 5.853518291825742 6.720526339268583 1.405572733094302 0.2653543013049366 -0.1456254832830202
Ni 5.928809522364613 4.457538902686468 5.946253132390494 -0.11101689207021524 -0.18477901355403017 0.1743267078724546
Ni 8.304056239218344 3.4573059200457092 6.929715442362168 -1.055102575855628 0.06474397714560462 0.7926214823334284
Ni 6.618723043016723 7.732420483973868 12.703194916712306 0.732854646687441 -1.1636524944425894 -0.00486684117399807
Ni 0.33167480966214696 9.468608120866485 9.033321322249344 1.6080679329811727 -1.228779823069542 -1.589509453252695
Ni 2.746204591832316 3.320552460495514 13.023528834358688 -0.6329248656693229 1.323628847130643 -1.2455588423000934
Ni 2.7197221464706605 7.514683132613421 12.292065365877358 0.7712579290559879 1.4866624985877817 -0.9761164869687126
Ni 8.104692762042758 7.949213686635648 1.0672638377022654 -1.1693827120581475 0.3940241305702246 1.4485214687416859
Ni 3.642877421132911 5.846335356628033 5.1913932889017795 0.5798259289618144 -0.2534071562453894 -1.0969935596624592
Ni 1.7226085570794216 3.0718988674335876 7.587885202747495 0.22780231119309152 -0.504353509655112 -0.9615905254383955
Ni 4.540836884444436 8.9812607778776 13.222461890803999 -0.5919144846952322 0.3663408057223433 0.7510881389763323
Ni 4.934269200995235 3.5973639000412425 3.9612554699554847 0.11259529230092868 -1.9636710405710376 0.10480639238412917
Ni 1.43781813539397 7.735493595424435 5.9496122653585966 -1.9328687104782003 -2.661719121102255 -2.3074468165086714
Ni 4.623311050181016 5.34011429602558 2.6927380064083395 1.2985461931304023 1.3324341041270988 -0.7110468067837303
Ni 6.978156750055686 6.2000023515172895 3.941855991105796 -0.14460578376925418 -1.4366972224132482 -0.5747873380966423
Ni 1.036184684068467 2.4135865591074808 2.7347489209551457 0.26318583289870806 0.15289142081681412 -0.09890391085676514
Ni 6.229021039461641 0.6540590110022058 11.619805574618379 -0.21284671832452373 0.893987738687757 -0.8519478880078876
Ni 6.807654602708008 0.5962262006648789 0.38871620123735506 -0.3931003332043746 0.33147973217910004 0.6256064776310387
Ni 5.698141036376333 2.2194806942931042 1.841351917384537 -0.2985405582489181 0.3944493910331013 0.30537917843730633
Ni 7.03553692439924 1.379595632309448 8.893441989997775 1.084794703603422 -1.114712831319093 0.0949148443020301
P 4.107093121004432 7.939411201617125 8.546623775717778 1.3087295614213073 -0.7115111480146585 0.0918338913838612
P 5.9254309510409495 6.5721913223480595 5.898443108434711 -0.3228410826674956 1.5461287722742147 -1.9863186027672246
P 7.14419733198417 1.1790010592816773 5.82626201478557 -2.056948092159329 -0.20916772681103976 -1.7533794845681996
P 4.4227349898728265 5.944813768443014 12.202691509552668 0.5034590228653006 -0.5627561179637212 -0.005573894543351691
P 1.953517708422266 7.036545867616444 3.83062972058684 -0.5261497795945972 0.97244469454408 0.1846697416696755
P 8.497060597217608 6.401300407889165 12.867162074047636 0.009078308152184366 -0.4500176152167088 0.7552013898137574
P 8.748278201941604 0.7409031041960523 2.528744005629616 -0.19523106212528957 -0.764205907305213 0.6403440409515294
P 9.128492436711051 4.304522018983728 5.09571955410343 1.661539165426435 2.237689188198559 0.10948991390272757
Ni 1.0902140561677285 5.133743754488312 6.627332383258204 0.1613025276986448 1.306109350189641 0.007289591682877769
Ni 0.8184676966995597 3.553090731161549 11.018603154929933 0.6944099695579976 0.45847525906575876 -0.12323040341727164
Ni 4.975848769175787 7.8240491895436115 11.149879626391876 -0.795015693597218 0.6762438401719322 -0.9741819889501608
Ni 5.909648857597529 6.166068536523989 7.946138723913124 -1.2915036844613241 1.8961510433421926 1.2628795929667282
Ni 3.5628747034604906 1.2499325443590528 7.718295278933014 0.44248788249856696 0.07467974820207783 -0.36296186194778135
Ni 7.608283442818618 3.1391092958750364 4.45153059954622 -1.1906552482836785 -1.9564449551362435 0.6504839575990088
Ni 2.702468291820493 3.720251332624727 5.064465455269584 -2.037444732019078 0.0857401197812975 0.42647865155450415
Ni 3.6630007473182453 7.60626555638421 2.321940266454135 -1.8085458453276984 -0.9103273563880452 0.5160841678284789
Ni 1.4198978228388612 1.5464785429788992 12.343627918092354 -0.9246895386469882 -0.17638410462211557 -1.0205603191043844
Ni 9.051960853960203 4.763091339382823 2.974013788281201 0.014171406404375593 0.16035713306623997 -0.2960512161681611
Ni 2.9596377358900128 8.88902115256166 4.759101848312962 -0.10804495392608489 1.7142218405321317 -0.9710406151077018
Ni 6.841014523394274 4.651792869257498 12.674352099603981 1.3553999688946528 0.9333256170554314 -0.8981958632318338
Ni 5.742691896049751 9.097094864300447 7.344204126165221 -0.4824654513327691 0.17344379104686902 0.04026553238826614
Ni 7.803509327167689 3.1289180437452977 0.8299687237397056 -0.15946316049706086 0.6336992819415022 0.06410145846559927
Ni 3.283906532083491 3.425926860354687 1.6053388092530119 0.24014437769821226 -0.1843046450207729 3.0711174201357045
Ni 5.116869410589571 4.0179451198586404 8.74463489872792 -0.44633348149690233 0.2138383928138317 1.1537645459049162
Ni 3.114589198789043 -0.03358577586516375 9.839702989969977 -0.028078503403770997 -0.09194779125390616 1.6309564075435719
Ni 6.8355440147578745 3.1197727602719256 10.892217743981481 0.18693308378255546 -0.6295793462358577 -1.0083630057072441
Ni 8.705560101506775 1.0068512798912252 7.0666003422213945 1.2798771559659894 -0.6124889664124742 0.0745967015699683
Ni 3.6675733890549314 1.6065152925824302 11.571765992939785 1.1513675064276494 -0.36857586570044915 -0.3257960515307615
Ni 4.860884780573281 1.156545130429046 5.434979024978208 -0.35369612037513926 -0.25630016152246826 -1.4332568292731316
Ni 4.545381757101749 3.844249528383114 11.414531911716328 0.25930269579421794 0.7940062784960971 0.05381061806255248
Ni 6.315725361622646 5.780318998599605 10.55951455274657 -1.4592733079415512 0.09452712194530817 0.5593437498480625
Ni 2.5916233833249205 1.3254736966122775 0.8790440920788979 0.818831307959577 -0.44763163148303553 -0.7052623388914693
P 5.9914380527095865 8.383586882541431 2.084829354051413 0.4674733487993111 -0.59338566992412 -0.6283516444763437
P 6.842838026273074 3.9202257295465097 2.685584691561961 -1.0490630545297674 1.6000445484560637 -1.0798599853059663
P 1.3271583540942147 4.419393443988326 1.3356029311314181 0.16397287544195632 0.11013063281052 -0.2661066060899288
P 2.4745674574096794 4.4136359881984095 9.125824753819325 1.106892821054042 0.023247143453398674 1.2584336413802328
P 2.543360723375366 8.418020540963436 0.6593045900956872 -0.41250547720386377 -0.1943478881893879 0.22584133081197877
P 7.054373616573645 8.171782857806924 10.388733788969187 0.40112088951600594 -0.0693789048144547 -0.35953098188936145
P 3.0380853851175686 2.109524396337454 3.826795736361465 0.6020009223969567 -1.5135384970430192 -1.5926122605477346
P 7.227310186546319 4.843603156843741 8.91903397354755 1.4722275541093741 -1.0568352422760185 -0.2189841986808293
