# total energy = -381169.5887083212 ev
CRYSTAL
PRIMVEC
9.20923103066291 0.00000000000000 0.00000000000000
0.00000000000000 9.20923103066291 0.00000000000000
0.00000000000000 0.00000000000000 13.47864049670959
PRIMCOORD
 96 1
Ni 4.47526251478728 1.4349915430610074 10.55501522716545 0.6546504302718726 -0.2306822038440479 -0.44443755002577
Ni 1.977663882848045 7.773143297989835 11.644830988263557 0.8226907909149831 -1.8571165551475501 -0.4759088811611739
Ni 3.7675607601482444 4.0298672793016745 12.36446882686407 -0.019624201988830716 0.4866149547247684 -1.2151324074894363
Ni 0.7004476435855249 3.251788583351312 0.4361353539770295 -0.2519369994577661 1.5381539815988543 1.7050825972350248
Ni 0.10379079320348653 3.591977566868769 5.257437476570576 1.0410029032294523 -0.7498992608745536 -2.274035845148393
Ni 2.622871797688774 9.19260807802403 9.661380945741879 -0.1913939477673865 0.105599834819702 -0.7344639001560899
Ni 4.5716094867840225 7.701854642835297 9.887579913011844 0.9526014345659078 1.8449935466317708 0.3145590451643615
Ni 2.843506547745927 6.543895178880193 8.338008042012941 0.14639578579014143 0.5505896578045163 0.2683393520751895
Ni 5.440445151672244 0.40945713344774637 3.9668853502741737 -0.6002908816843855 0.047237592830725095 -0.6932416602815094
Ni 3.390838758287156 2.8579558307762163 0.7562058520209552 0.20711418671612072 -0.2872642140041504 1.784501402783985
Ni 0.9893752860376536 7.645484941478762 2.9872571140512165 -0.33190499264197676 -0.05872939552040853 -0.3239404863792614
Ni 2.1826889868017303 0.9145926487405459 6.99077770513023 -1.081213156899751 0.5408814293778169 1.7258853929129887
Ni 5.558443025137572 0.5144948564933625 8.131272783910928 -1.1133313775905342 0.7532013286645931 0.6381634883604429
Ni 1.7675737019876299 7.979558995785185 0.6325083856509465 0.9296309418126634 -0.21851394391263013 0.007365953446767958
Ni 7.709461467426131 8.217009801172681 3.317901650830246 -0.044957795657612896 1.030119166437413 -0.5560828197086036
Ni 8.484519535693934 6.870297943980606 5.091097588184346 -1.2035323613566626 -0.845258391802854 0.7869038631233609
Ni 7.579887590921241 3.0053127318390973 13.264909650727212 -1.0188556777084516 1.3004305546373087 1.7610809669775156
Ni 5.432230517852602 8.761708171722411 6.146678034008328 -1.08460289930759 -0.986806876803023 -1.372629445399062
Ni 7.079402737151893 7.588175898586799 8.802374292821934 0.8404301171762751 0.18384570310648338 -0.8920995205261089
Ni 8.086468955440143 3.2964809801301485 2.9351089240656734 -0.04472099705645846 0.9481745091428058 2.3349673905264434
Ni 3.1372533806440406 2.372684626188537 8.687293903654883 1.0841943510152618 0.19259825248813284 -0.9836030251537449
Ni 5.973318869952444 2.886246587607988 9.042132010509677 -1.794695312597851 0.6547458181991563 -0.21308968757326527
Ni 7.744686775004752 1.6224914809174076 8.685689655660061 0.4030985820676671 -0.5286319225865025 -0.6784285065280768
Ni 5.654854461749489 9.092457693731872 1.71792029260942 1.8280785160439872 -1.2898412091572364 0.14777158309174548
P 8.644815405945826 0.39569393810755044 10.389928715082867 0.6995604034106856 0.5036665108904165 -0.35663617684006965
Ni 0.3758627806330921 6.358329179479091 8.191495627408871 -0.2734237085766323 -1.2415561488986038 0.10759552509349211
P 1.9778572766935747 1.9357066275988426 12.988368423619724 0.2808518827199034 0.26442896127718973 -0.7805411541301267
Ni 3.521324348635257 6.028859740542422 10.804950065743425 -1.8931299971276814 -1.152930480039395 -0.6643774277516493
P 0.15593253672751164 5.29333689983933 10.563682034214404 -0.5077872179270094 -1.8692801870932776 -2.265931213763388
P 2.485773979669706 2.9542475473885212 6.514913729742959 0.35696862047882394 2.940833452305761 1.1303873046315567
P 0.10212576428578332 1.7326246713311937 3.936005878681527 -0.8137564645398309 -1.0160002105375276 -0.38603828415127067
Ni 5.36084056115993 8.444312034285238 12.458280497638226 -0.7249963269852868 1.29159958660924 -0.6625316327921622
Ni 3.662059812796431 0.35320715209082637 1.0385267923405601 -0.8171006984217154 0.3388587982519906 -1.0662555071486541
Ni 0.8824155965367021 1.8055709880188435 9.15672799413983 -0.8970059566887906 0.07347004416469283 -0.20585434616709064
Ni 0.7314173656394193 0.4125680115915525 12.009872922777726 -0.18735165937721285 1.6264358939653987 0.08092238667767998
Ni 3.0863447531160357 8.910943755856152 5.209669196724744 0.2489054117202939 -1.7026580469539319 -0.7098599855644807
Ni 3.5125571609712445 8.072894549330107 3.017260787800536 0.8803053561046581 0.7391859882221076 -0.4746945491380985
Ni 6.7671821873903255 7.430163917558306 0.4358710490548056 0.39612652162520806 -0.7852478155771767 0.28374385955571774
Ni 0.536851185036594 5.195673007846839 3.405823097623411 0.023273882926276048 0.4150698954969303 0.47019126195110633
Ni 6.538314385052051 5.389554942605718 9.09949722970915 -0.6156424244397913 -0.4040113236899236 -0.45675801926433596
Ni 9.169953370404839 3.760948532477277 7.3838553007846865 -0.3500690651455133 0.5143962386030948 2.406285935565772
Ni 4.094958122168523 1.6735750838294632 5.603339866838825 2.662903114108027 0.9290958952448 0.7218181863676214
Ni 6.1906475061741135 4.2571050477990555 11.041270898519183 -0.8285657616385214 0.14917694807970439 1.3512201264853503
Ni 1.4162968046598046 7.941644592830628 6.865588343380422 0.15232757789354412 -1.2336181249984495 0.062237408673667005
Ni 0.791533382060785 5.807875039717168 12.372595972991688 3.0840187015784046 -1.3958429074010477 1.2758968311620025
Ni 0.011767555038944399 3.2679415740684106 11.727602633227187 1.020005732152495 0.412186146191232 -1.4991624308270053
Ni 3.366986850671828 3.644737249775415 3.522130156324964 0.5702891931159727 -0.8947012198150139 -0.15693962274425877
Ni 7.17903740452264 4.41433424421469 5.474780847561429 -0.09313898334852992 -0.43111332211303816 0.4238743811624377
Ni 4.472997044025361 4.445286468730179 7.854812598033947 -0.5837995688975817 0.6991076321439831 1.1288554413680623
Ni 7.10102601092826 6.0578043527566985 2.5539324172958846 0.24713315031121952 -0.9626958426874324 -0.2263609507608747
Ni 7.381704945407011 1.2841627620093317 4.849627874502128 0.9366276848454708 -0.2305863016961319 -1.804194253227222
Ni 0.22253093066641771 7.367780588528873 10.1693510622563 -0.5181657329478561 0.7899385361846266 1.63104948147801
Ni 0.5567504908185248 0.8575635664630634 1.066300911327845 0.7614304014426048 1.2950011560916213 -0.5715122668897964
Ni 5.386948730306437 1.8306293048610467 12.697943360249353 -1.22471285208902 0.007976847557889487 0.5289615380117794
Ni 8.887073429779345 1.4994193213146112 6.696606326695025 1.3472310599306152 0.6894112307918255 -0.40954716590648826
Ni 4.482740410147762 4.051030091541066 5.662228292802614 -0.1220798347525962 0.783604880657115 -0.6696165646634017
P 7.695325298240984 6.056201946608024 7.386416387853343 -1.2829380542795001 -0.7937149725079234 -2.3173607331882735
Ni 3.1418119498600974 0.3072475651622335 12.254685587218386 1.3448188509446968 1.111353427928557 -0.5239514863916976
P 3.1175916730151894 6.454077551477764 13.031216211481437 -0.4227983744894395 -0.5715181804270675 0.8515120860220495
Ni 1.6016509917538988 5.214865044707976 6.5312232773826295 0.7522520773774464 -0.7924867565277771 -0.35404296219159676
P 1.3372263495303816 6.814554470314359 5.006924298302161 1.1033004757170934 -0.5175795214270829 -0.8203618856714904
P 3.844835415283463 1.5342762596636523 2.9087714450737523 2.6615558560515127 1.5706254718639985 0.13425092289749135
P 3.4605434257544987 8.494456295661864 7.445708178123523 1.8669739075576042 -0.7606274459253353 0.7305609655572579
Ni 6.791927390387385 6.970678559041252 11.05633996277824 0.05387258164873948 1.114636726665519 -0.9925340090947875
Ni 5.116215765026356 6.781088125806984 7.852521341425956 -0.3561425250331028 0.683625477347984 -1.0495219964440572
Ni 2.0075386273670115 1.814973612603882 4.80816791771286 -0.421311505531268 0.8508199450510314 -0.12684743134456863
Ni 5.968115654584622 6.40877734547012 5.719445243387182 0.9251775340270001 -0.6536320163096871 1.260436273632558
Ni 2.900953729098983 6.083148155751827 3.641174198402299 -0.22607504408933968 -1.6027637471594396 -0.8072996531708935
Ni 0.38167933076816585 6.1340936202027905 1.2076119524102384 -2.1749049058824865 -0.26713067647906896 -0.029117229080930496
Ni 5.562172763587072 7.124399038545135 3.719026272304885 -1.3298200635430195 0.6610961858972163 -0.19845393993796145
Ni 8.882579325178465 7.685738489041156 12.659974622833431 -0.9260465668955148 1.3295279862238973 0.07698654195838353
Ni -0.029341530059149124 8.793848387003298 8.41050955285587 0.48669671580529733 1.1204134812482962 -0.06271023454502749
Ni 5.662092917110743 4.554738176069242 0.31204004883907394 0.8030807299935395 -1.1332808241292676 1.9065876652944844
Ni 2.3018103864172774 2.5693845855537067 10.875119799363112 0.11705641339607582 0.0782335269916072 0.8577801784189484
Ni 5.144819635703271 6.077493688077769 12.331607528816281 0.41535271684467173 1.2168684163439365 0.29648239016830874
Ni 1.4038459246999886 3.0161059502658016 2.842982542516849 -1.3060651272152668 -0.06111975012945603 -1.7212833753646033
Ni 8.16979407517122 3.7647795724649122 9.523602565571162 0.8388275485758457 0.5085670335158273 0.829274871890404
Ni 2.3720123523445533 5.005401091537847 1.5010079136171768 0.8793183096010405 0.39764964313795387 -0.7087394988067923
Ni 6.6329300216697655 0.12176168606856407 10.071576659494934 -1.7386064400240833 -0.2149020581916557 2.5384714912938025
Ni 7.4750220804904535 0.7708024827430768 12.993112098373647 0.5250701733771731 -2.3526815199767546 1.2865278285132875
Ni 5.842400445759587 2.9487772643292525 3.88063537886023 -0.6486335346538313 0.3825912061429346 -0.08996058562054829
Ni 7.688068424418251 8.771580467075164 6.62653052722888 -0.24531589459682265 -1.3708533273352455 -0.2849993292293737
Ni 4.552923957613559 6.907549282321919 1.3135678357605836 -0.4251478485582227 -0.9895906101957473 -0.7119713754805286
Ni 2.1208397931551892 0.5532058579068878 2.8611109132275723 -3.2433288814373693 -0.12294732495921407 -0.2059919001862194
Ni 7.710014021270501 1.2745022789635867 2.2641013493082105 -0.05591095223500694 -2.0997081088346743 -0.18039296867119256
Ni 0.6392430960907491 9.044514438501988 5.005764856152057 -1.3456899406957403 0.39991092836830483 -0.7894572256728339
Ni 5.696636741614641 2.1634416945561568 1.509904030511542 -0.6046622712792038 1.043685335157622 0.37893998254359257
Ni 1.9075540092281644 4.571056932939651 9.103366027542819 -1.043507929039493 -0.6826546287942825 0.613714097068827
P 3.924872839640534 4.054658528452433 10.002647409255857 0.5243253247913486 -1.160952321902607 0.41517248251306565
Ni 7.735597264264857 5.6948133139282175 12.588537699063986 -0.6365555204433747 -2.951462135664201 1.2254399600630315
P 4.92377967949358 4.960349534760169 3.2151404496234366 1.3925752923933694 1.7280662026143918 0.04641715381195877
Ni 3.5105495486700318 6.571688637252032 5.761700877712345 0.6514643192344071 0.15625956595809865 1.5545398791560452
P 7.842949266995311 4.519347102337309 1.3922358475066896 0.5376233274518354 0.9106973381329542 -3.240836196922502
P 6.509157960530766 1.8652836401338186 6.5812699209134164 -0.8772472860046248 0.36289449904495563 2.077835734241615
P 8.5039049664006 8.44632885581719 1.145725000917665 -0.49166408711290166 -0.6287828184764913 1.5591377829393729
Ni 7.095353124792722 2.1427117161615223 11.229675182834203 0.5769709760115225 -0.16677820610123537 -2.2779909731413994
