# total energy = -381168.702101978 ev
CRYSTAL
PRIMVEC
9.19873850826001 0.00000000000000 0.00000000000000
0.00000000000000 9.19873850826001 0.00000000000000
0.00000000000000 0.00000000000000 13.46328362957473
PRIMCOORD
 96 1
Ni 4.7974915305600945 4.553991731302022 11.73875820058953 2.157762846885561 0.5752737908147577 -0.5466615263947037
Ni 0.21493311773504883 5.037376225700134 10.946982328077763 -0.5764624118062202 -0.08622657249941279 -1.0623633711830993
Ni 8.071368454550274 5.059857941894714 6.506427596680945 2.897056050109495 -1.2828843182234293 -1.3998126906820731
Ni 8.10806222128521 1.7806917434315872 10.90807350518094 -0.24076324222913373 0.08507986048947927 -0.24009244141435424
Ni 2.13893660316887 5.428856126603955 3.595518164627024 -1.6955366054178025 -0.8020191214982445 -1.1496500095159103
Ni 7.529433991421188 3.674803929039595 12.049517333919422 -1.4428503864988376 0.1291313422827389 -0.18927792986564823
Ni 4.355225395977766 1.3237628201364264 3.7751446853497823 -1.7919514313041267 0.08213774714201982 -0.2012073343133825
Ni 6.414565317382437 5.66323997629213 13.138629540959473 0.05221807676445201 0.4230076622867682 1.4897447370575312
Ni 6.171838212134326 8.05657688350245 8.018852858087568 2.8212738128718575 0.33741666648882535 -0.0106047720990398
Ni 8.80886809210521 0.27680199121357024 7.92509471884319 0.774355337034389 0.24891106814724875 -0.603169231673445
Ni 8.461376557339884 6.739446353618189 12.192780322609124 -0.754764559386655 1.4104272329731258 -0.6275651440193063
Ni 3.281475081754797 1.7934871882870131 0.5011132225576101 0.7824358000496783 0.6400270239317429 -0.17628794536388348
Ni 4.8574305087613565 4.260597975972183 0.8758146249594196 -0.5426452061464591 -0.9907404075294743 -0.7821956590144141
Ni 5.683127648310412 1.8703426460634927 0.35440438653301204 1.162147884872605 0.5634109779389006 -0.45467799680685567
Ni 4.993902988901613 7.757461513003612 13.21013317284315 0.7214132376197189 0.8390350366009615 -0.8350158881392392
Ni 7.8867865735517295 8.648764053493643 9.755885550208715 -2.0877938738955915 0.5664271390574052 -1.195160849463516
Ni 6.823807981777147 0.6099361353747627 6.578213629827787 -0.22936297081199208 1.0223490355736908 0.020571653503764574
Ni 7.766301500427095 2.2398191651598514 4.99323516050729 -0.10319379648137066 1.2105491589941282 -0.30988786494093723
Ni 1.2444604979950702 4.564524286556849 6.661807163345891 0.5060146994076189 -0.27786323240522465 -0.3253281107554074
Ni 2.880492884276099 2.678764555246991 7.578387836447504 0.19604198806235915 -0.23470726584304094 -0.20199254921883925
Ni 5.076976793710637 7.009272941644219 11.055725211872454 0.25480197971038704 0.2674548925877071 -0.976681101222931
Ni 3.2210945641192716 1.7805813585730212 10.118492451606992 -0.5007778764887117 -2.0894134117768854 -1.231431401759776
Ni 3.493800357206227 7.5181563383710435 2.222855772019743 -1.1875295581705032 -0.9104124599026838 0.7343008922156644
Ni 4.724462747880565 6.871365458342605 6.5832490191260336 -0.6700299980517364 1.8604183658272733 -0.013464610145338103
P 7.3855749244952325 2.9608530613120445 7.189204860475676 0.6308029342303136 -0.2908439609356088 -1.1762503857122582
Ni 8.859985480359414 5.037578597940838 0.24769074438828895 0.18765582088119295 -0.354003624313229 0.5721450153777887
P 3.591352975963805 8.790093467410799 11.775539355337495 0.010936187296529553 0.3944043967277788 0.2788227681050166
Ni 2.903526524763508 3.233338084681868 11.796825235564278 -1.6137750106682789 1.4988035048256896 1.6492639476035078
P 0.9354104902253056 1.3947126879796325 10.12788896269241 0.7859939497145819 0.22321546315335752 -1.0812707496105636
P 6.894757849620353 5.550215079858903 11.121358209028072 0.11100146545124753 0.015532548417960344 -1.890047501547616
P 1.5980783924108006 5.241413438020912 12.467229276587597 0.8558906747057196 -1.2518639585825149 1.0507525264170483
Ni 0.94704689406579 1.6870485884148834 0.9101599538283655 -0.3174700481635694 -1.8820192319265006 -0.597436442954726
Ni 0.7696124326593851 7.519416565506337 9.712358960728553 -2.258839597023929 -1.8155307612859637 -2.245384499960288
Ni 2.1276589501187244 2.5253755955315156 4.099771836410833 -0.13381306402912438 -0.2338413182983199 0.738171173804348
Ni 0.5958298703238671 3.2434842929317136 12.508076273626074 0.10534298161388952 -0.6077349966672566 0.22591743546555285
Ni 5.1386911283871655 5.539314575075525 9.11333712824449 -0.3480137252783813 0.4657615083145269 2.280059939855286
Ni 8.513643787870818 7.269689220477508 7.331134951998194 1.292755040369922 0.576276263937343 -0.5430622390792196
Ni 1.278652207935845 6.651138466765501 1.019383011757819 0.47377409420635824 0.6212047490189172 0.19257408411841673
Ni 1.5563253196582645 7.2774621542681865 11.892952969772537 1.8579956153183934 0.19153253022777983 0.05023755599931348
Ni 2.519000869949337 4.592433258297584 1.006105553019989 -0.5409937865859651 0.34831171613477435 -0.8075302811244609
Ni 2.7918814390623554 8.070476176943533 9.830593102612266 1.1662176840666043 1.4413210943385049 1.7838725109507343
Ni 3.144745036944552 6.92772612737869 4.963346620302942 -0.31020693884325284 1.0271372009909536 -0.595907150794393
Ni 4.628013977708645 0.013136718043158642 5.753803393754846 -0.5504587886536068 -0.18776817808934115 -0.15754383198716093
Ni 7.897871053099385 2.964541755335787 0.7813132276673661 -0.7402116012731446 0.05335681835458552 1.5836565940163436
Ni 0.5603668947619421 1.9750794793660653 6.37404303580291 0.33489827094234587 0.5591835701211143 -0.10935313121454715
Ni 8.745203624927349 0.055959604049962385 5.210425648600011 -1.8467485816496645 -0.8167086051896193 0.5475063908935023
Ni 2.1328746346859613 0.27857826756265913 7.912115299223489 -0.173763636280133 0.9289539703502969 0.32739759168992644
Ni 5.235636630422632 0.317786049451431 10.430314959074401 -0.7681659203942255 -1.213130289457743 0.5867465673410476
Ni 5.479817136308526 3.2487919648810886 5.139218216086818 -0.5093645897164583 0.5366221398808306 0.06650415436982095
Ni 5.33701592427716 3.0701340712922454 7.721085102737055 -1.3775855038527565 0.9999804380705035 -0.2038118618157651
Ni 7.135580816058202 9.503400423463383 1.6594440949090261 0.4156820751596325 0.0011251147433787075 0.5635145933963005
Ni 6.568874150919295 1.6709599952789094 9.112367581236754 1.4947995258726192 -2.0772027286433064 -0.1308868915212649
Ni 2.1876347232728413 0.40948643095737586 2.6155526659892514 1.1196138681651362 0.49283085372749313 -1.6847677969370725
Ni 3.11568622292709 5.699179446493531 10.467474181962956 -1.6716587703589403 -0.4999214420256874 -0.8258031112917198
Ni 6.218485013616616 5.2888145360367345 7.32510333935139 -0.7903154599080712 -0.32324294609160464 -1.0704698023403176
Ni 8.93733766999944 2.518816895185061 8.699677229759503 0.8099949406148694 -0.7767174095086623 -0.6102014559298782
P 0.5127119115714178 8.46160652579523 -0.012848797537066024 -2.4784920254163763 0.9326746137349937 0.647019396089176
Ni 1.62368767959808 8.94898327257814 4.639298989749362 0.9817186636468384 0.3689782433451903 2.0996366321667903
P 1.3448003344314363 7.493016186832669 3.1811582421639653 -0.28756374752244024 -1.097965179547109 -0.7247173622922873
Ni 1.8803140782872754 7.402712173787583 6.891315681780741 -0.36627627103299504 -0.7523749761085559 0.8156117725810147
P 8.003270195553354 3.5427468432419715 3.00115457317444 -0.21524761445653254 -1.1812663508696106 1.555720786838024
P 4.497171125355247 3.5323522690603535 9.81064103942649 -0.3233175080832819 -0.14949525065107155 -0.6026647812332009
P 3.0274703234565408 3.0179956230963043 2.242148285675591 1.0091721318721008 -1.0920089619636741 0.5752002572643449
Ni 7.733949538129084 6.481688510128693 9.187209435218227 -2.323076295515812 -0.7656647512389265 2.455005769368978
Ni 7.937931558020578 7.424559177045408 3.500265230422901 -1.4701092222147907 2.5788933467542745 -0.011668694587179904
Ni 4.710094318790575 0.8305227976160261 8.274896976647828 -2.0971881706262976 -0.7245391848432102 -1.7855105607747894
Ni 5.266571987035714 7.300247428823823 3.863154533084342 1.1835926850099423 0.5456659952506537 -0.1658081288784822
Ni 8.966617253734036 5.72221308698094 2.6014427214430706 0.7804305966941915 -1.1032436543372288 0.5232395479263375
Ni 0.7024340474838457 3.4875912089118972 2.0960042521773214 0.8994446480372703 1.0221680299111364 0.6036436002067023
Ni 0.0769354867989398 9.004847209750677 11.359079360940221 -0.5937739065014742 -0.8955663960287867 0.7672902026574915
Ni 1.8423324882024057 3.5793762188094096 9.540028879156997 -0.4446738344062922 0.9212866836130261 -0.009256742711577606
Ni 3.615297291534383 6.005727397469135 12.909147698865443 -1.3817118673163042 0.47867770215556277 0.89973158315007
Ni 0.040399018487461746 1.3022653689307253 3.1639795985496533 -1.1720795421640202 0.24880385314542314 0.3051696335296615
Ni 7.952925501309108 7.175595327288326 1.0324626976240519 -0.5962462793013666 0.9220323035297991 -0.07231716150717223
Ni 0.39921236024635853 4.150452284599883 4.4506650645676284 -1.4393428875662115 -0.31915874871990196 0.8562483151554544
Ni 7.118609144053702 3.72858895137581 9.461215010014795 -1.5635999324757845 2.3654848423890096 1.6444840097163613
Ni 1.627974291605721 1.1580843461672854 12.171265393800816 2.0554506816781957 0.3106319421958134 0.1764499248630445
Ni 5.8962900089393 2.6148241259227167 2.6783046183362997 0.7029897408072087 0.28156150719241835 -0.14384833677793937
Ni 2.5548851477214556 8.665643738116005 0.33975171643221563 1.3464317039577716 0.4390693437353213 -0.3693973331604799
Ni 8.100776820619862 1.0251625789775631 13.168033307659954 0.6109547891561349 -1.0056486920998746 -0.5864148950332416
Ni 0.12458587062035711 6.715318063283334 5.141722112628621 1.0304842630863156 -0.5697209793173286 0.107651318032092
Ni 7.143942469094567 5.324873589834915 4.435734592572775 -0.2186090747295977 -0.6178576869235554 -0.1637381337233309
Ni 3.6697262255455656 5.108197311208348 7.287635038858852 -1.253223557934203 -1.9609495278748164 0.06796068431068941
Ni 6.459574743462666 0.5537042486736711 3.9046215250784284 0.8386226316538911 -1.0194046082333863 0.6901990168004436
Ni 6.634976283723817 4.8819543448394045 2.1991064696992986 -0.06668850246648515 1.690223420735005 -1.4151776031739176
Ni 4.853815404643325 0.028207930732683968 1.3199453437776905 -0.5602366939759771 1.0199702509288693 2.4660219179738236
Ni 6.784216612504858 7.210449346380496 5.8129338028671125 0.985443420796593 1.048466301486033 -1.1183452858653578
Ni 8.950059524949156 4.756124804812539 8.677463196846945 2.4508274696215726 0.4818039064893702 -1.5577355032752076
P 5.369561060077661 6.74166324952772 1.5479001953282252 1.1801679755991095 -0.9554414751178643 1.0924154533734733
Ni 4.318825988865673 5.182182762662115 3.093014092851484 1.4800028271794188 -0.5864087243856545 -1.1761699101833099
P 1.785088740297794 5.675989427456487 8.413528400646868 -0.15359718863458707 0.5138161977299086 0.9915179091254472
Ni 6.818629092162766 8.614949491819635 11.770759690961594 0.2604589208858482 0.06815891636442455 1.4994154273780755
P 3.758540043000013 4.830515000747715 5.064200666205459 0.05433203778366127 -0.5445174834685075 1.53558673509231
P 4.328788222351242 7.785526863293982 8.629627918387431 -0.3940992067825342 -0.8586954911443663 -1.0382957887109343
P 2.579344592632007 1.2852844981880105 5.939771524602214 1.480151179831825 -0.3331411790419231 -0.04911398391783155
Ni 4.943917045447708 2.3200321623843756 11.664305453234501 1.8646478305275889 -1.3371129976600067 0.13545574183886994
