# total energy = -340888.1492151543 ev
CRYSTAL
PRIMVEC
9.05722539020437 0.00000000000000 0.00000000000000

0.00000000000000 9.05722539020437 0.00000000000000

0.00000000000000 0.00000000000000 13.25616487693758

PRIMCOORD
 96 1
Ni 6.3977068187712565 2.1585812901223833 11.23954358129181 1.4489493003077238 -0.6947874075020744 0.5285133947307671
Ni 4.319164226995311 0.4194491523279263 5.924590890465946 0.7234698630384314 -0.7362770421054288 0.8829494785957245
Ni 2.961631097770744 1.9313445691974336 4.643912844959688 -0.7620397528918295 -0.13391873636905324 -0.33351527455189006
Ni 3.4381498255519816 4.399637672147297 5.0907519517596596 0.523794391988543 0.6627314075077941 -0.08014848462613294
Ni 4.004135823024981 2.8416409794394544 2.4876384300742447 1.098203263699844 -0.49290927237391235 0.624541269591318
Ni 5.3399587836474876 4.9429624923811 2.634795695139736 0.2225099524459007 -0.8847703338545472 -1.001702820078249
Ni 5.12611769866849 4.648394359946881 11.073550005153432 -0.4160919090035415 0.7713463750047361 1.138354124887117
Ni 5.646328480407316 7.999721625540849 12.337459504080694 0.8923049516686955 0.766029847887829 -0.6611941449276613
Ni 1.941787549755705 6.593605540796277 0.3173488650449428 1.980447488698428 0.3353862663223579 -0.8222135941682485
Ni 3.099436777904393 1.7573915036274794 0.3683808942362034 -0.3091733553724159 -0.9712059370409725 -0.42898753401928696
Ni 7.9390563317166505 9.03709090415455 6.736809327098816 -0.1336456852133247 -0.16278194045764868 -0.4859490390059953
Ni 8.823258876400667 2.3958805881507494 1.2051136163669192 -0.48769636071440514 -0.27402380405447646 0.46965338716976535
Ni 6.9446183001508315 1.0077974386113095 4.600260642792607 0.7523073560954141 -1.5976580505017581 0.6842209448401377
Ni 1.07945820372583 7.43221401424843 2.2519703382891954 -0.1725369629618835 0.6919728208714148 1.056122018259078
Ni 7.531127969735751 4.132594446839345 3.53654570776269 0.9091233087776149 -0.7681656632839093 0.7055271625170817
Ni 7.425466381537318 4.18989951014566 12.529580457510002 2.884171995057975 -2.2517343534377154 -0.10372858593891812
Ni 8.298139078649193 7.456795323212132 9.019229150504101 -0.19821199913048446 -1.1697722341870822 -0.6033826332358317
Ni 7.071446623444389 0.8551940640838158 0.05928859560662921 -0.24401877305195394 -0.20683419358185667 0.06541760617386153
Ni 1.8443499219622252 6.596395166131877 9.065347635070156 0.0450189879128515 0.5049680033106594 0.5535047745687822
Ni 0.37265047015569086 4.704630670689556 1.5847879645997474 0.1260853563675635 -0.08241105540806452 -1.9047722093523005
Ni 6.419652475226322 2.0564973058446077 6.877629251750931 -0.35695679340428205 -0.9312592214447057 0.3846051512491699
Ni 3.5379332746503978 4.572766530231733 0.10200428069675825 0.40990172103242956 -0.5683094436817826 -0.12035359609010884
Ni 5.746836507514979 5.524336715325481 4.841217248322647 0.34441829461763906 0.9611868622420736 0.48638664076404614
Ni 5.440810985309543 2.8805236468606674 9.2825226846142 0.15803568402191492 1.2101326402819996 -0.7723496194582697
P 0.39727253663241274 5.614872737580884 12.64019000778908 -1.6455067945539208 -0.6288236990167557 -0.9765242639300925
P 4.438755827421515 6.316445395034215 12.514959379005912 -2.185817953250565 -0.7085901177131216 -1.889122161519869
P 2.9045252934169716 8.387678806141881 1.4043979291401458 -0.8571062922803754 1.0619733348335323 -0.05200056143700722
P 6.6988957827649696 7.656226363032231 5.353090854342576 0.23974045739157418 -0.22736805186915038 1.2201054352239953
P 4.9338328094645885 1.0244174466984108 12.467767613263659 -0.6545005349575695 -0.16939790311226957 -0.9577066170029571
P 4.066268387317905 6.266485741296639 8.277798362484608 -0.583280463169318 -0.9401279846892454 -1.4209160483195915
P 4.92164178445901 1.025114853032311 3.910224172969 -1.1371243662450738 -1.4093424845493792 -2.0726775870794434
P 0.2792885936642252 5.67851785846811 3.4297275119169974 1.072789708722746 0.251518938083741 1.1661595771351594
Ni 0.8552945992825988 0.27348200664262273 4.591325690216081 0.28673276698071265 0.5143818404253915 0.41611453471136073
Ni 1.937666512328113 6.803398046148606 4.714965870268952 -1.7893728719436732 -1.393006209283201 -0.636114319140898
Ni 6.04335194334905 5.638955899163229 9.021005272349267 -0.22868497090836098 0.6452005977128824 0.5455477245052346
Ni 8.595080204063697 2.614295571813118 9.880442646399736 0.7578462836357722 -2.024306137754591 2.3991135861870485
Ni 2.0154318471705386 5.431554501241414 7.036716693738673 1.0806709112430355 -1.017164663159274 -1.0648408861893146
Ni 0.5862008182084777 0.2155039915102189 8.880874602528449 0.09660483040994332 -0.16026688734527883 0.24755943921536075
Ni 1.7047056251301125 1.3357776744969279 11.543667086222973 -0.8999159312467341 -0.6988206970311835 -1.45361636676609
Ni 4.676200041051731 6.8529501247559805 1.3920828201504827 -1.5689717383106592 1.053715208589798 0.3586406088646082
Ni 5.851456514825119 7.861408740800728 7.405741556680594 -0.5885059732343155 0.33967949438107303 0.4073285609886146
Ni 5.3214911016368065 2.8456714446158906 4.71179765292352 0.5319260199567419 2.4360343704727985 0.5705167357457464
Ni 0.444894520567655 7.301346168553321 6.760259388645579 0.16754413773298243 1.3942048575769925 -0.7482033612293696
Ni 5.318538446249126 4.250320258891739 6.976109366155215 -1.272040176420074 0.9547328790866139 0.7994223073053459
Ni 0.9475216054670814 7.294661936418018 11.331369352403673 -0.3489097547300894 0.5489847752112417 -0.2556782116677532
Ni 4.621050597322925 0.5368326012709504 10.107229223236441 0.868040422694376 -1.3518744722398977 2.2968315028866697
Ni 8.52981383988078 7.571242419772683 4.1343859659672075 -0.9642595876301264 0.17087165944431862 1.2642098817423777
Ni 7.1507879154569265 5.903309128611852 6.925391622675464 0.8988257835063488 1.0254191898585823 -0.3903546521384374
Ni 2.7503079213738806 5.421953842618891 2.3413035610492483 -0.8193822953670404 0.2361213725817482 -1.3275672629531008
Ni 2.6667550196825944 5.34054750328 11.117454903901239 -0.7012318775758374 -0.5912992197087364 0.5139123569881408
Ni 1.6151658976374244 3.8236072120211113 3.5663983217436632 -1.456179756617892 -1.045965132330734 1.0296831073412591
Ni 1.7205285974070421 1.357062153518556 2.5345657248431217 0.014617235692542568 -0.03402160836108334 -0.45076452068506245
Ni 1.1759538801072886 3.4530399036420056 8.210696098770764 -0.7382737608204833 -0.08126974271476971 -0.7138333683899318
Ni 3.7385689254108696 2.5179176393581617 6.85297276781877 -1.2026319610295804 1.621916665938807 -0.2809166745195678
Ni 3.724484940356133 7.038559839049694 6.0717345696937635 1.9759879102651774 -0.9236027333407125 0.7340476385542778
Ni 1.035168372910612 0.12429954604128597 0.2688256872106997 -0.056791040847115094 -0.6089647553092996 0.15579393917558976
P 0.04246389423191573 5.671118105548676 8.001698817783582 0.15817426648230826 -1.4061422324445267 0.9146455241474248
P 8.528600171715292 1.6999505819444296 7.894695854545532 -0.6743918745648579 1.153178334384143 -0.670670974069845
P 1.8484981310651638 3.2869666239226114 10.353806742673214 0.08862849707268607 1.2043617992364934 0.7517648533283827
P 3.92983034817671 6.184164622221073 3.769191403526668 1.0443047139091757 1.7303436857946586 2.0875339353659856
P 7.074716281711115 4.103602269244353 10.398333872786461 -0.025219693798737217 0.6448995215326958 -1.4387759593191478
P 6.483578370092132 7.785971112813008 10.053621319222307 -1.9582501266657824 0.7531841022734125 -0.09678712162407849
P 2.199701092147146 8.562148133543424 6.266002991197979 0.4238941786567796 -1.6395418352197377 -2.039757439312655
P 6.895211137145307 3.7763103824675186 1.4809523129846176 0.05247004487425802 0.7011483167230957 -0.5463547937875622
Ni 5.389501805029745 2.894834062543294 0.12279151805954082 0.09030537055447674 0.9210133753469816 0.8976448758243702
Ni 1.4782931116906814 1.2621514915323253 6.92433102161443 -0.14724013606830771 1.8021255436236512 -0.06742023842618712
Ni 6.897402985623279 0.7014250246839461 9.048538330978138 -0.8003065096825119 0.14869332357506648 -0.8554661855737912
Ni 2.7571461263361483 1.6981029080208503 9.279619843964655 -1.1209320727559275 -0.50126612897904 -1.15888669762283
Ni 6.42509586752079 1.7770456821283018 2.3697776653676295 1.0341640259307479 1.1519362344469257 0.2376738046705326
Ni 4.057238333877665 7.2107376884969945 10.245464215840567 1.1486184829276025 -0.746476865456566 0.17106397796078282
Ni 8.01084389798279 7.4814943761023365 12.971475225119375 1.564476935764099 0.4050132825918767 0.9001766411072885
Ni 7.721945588470927 3.7686570272448483 8.120646449504067 -0.28379733850147254 1.2325444323182966 -0.6719894357709523
Ni 3.19413006648785 8.498330925379001 12.094513931915271 -0.2080634380032675 0.06187899689298375 0.9850541557779746
Ni 0.1627157663690461 4.924223093616952 10.15870233929083 1.0093677928226745 0.08040919448668733 0.30476879854681704
Ni 8.637259701426983 2.4476064007858636 5.709562403274295 0.6282346592825052 0.3549269074584468 -0.6298104884100573
Ni 3.863939035460818 2.6464034348478718 11.335014885512695 -0.5725139686814333 0.3596304835817032 0.15193471333049963
Ni 1.2925203673448866 3.261035788416687 12.738921913051577 -0.13457102524107148 1.9020154725427694 -0.3714313328713732
Ni 3.365891283579832 8.445328044002588 8.124570945146651 0.09873138983464286 0.4219504246668475 0.18374697274509
Ni 5.721177388762523 7.79103410165262 3.4111819377703223 0.06762001314181904 0.42910323366154485 0.37462490010800636
Ni 3.189981857384911 8.510232119180882 3.8581931318474902 0.8629655792746299 0.9283644163954141 -1.1699563251734302
Ni 3.3614894721736572 4.116336727756868 8.823515195871439 0.8585342829761535 1.272441011402918 0.4198693737681026
Ni 7.516337521121998 6.2590044733511645 11.08681974567028 -0.4339523342237301 -0.7084718469677025 0.3463386515688035
Ni 8.352591116044099 0.06439777629433156 2.1162405741520396 0.023135557576198864 -0.5304247528208672 0.19280214096882278
Ni 4.903572620353414 0.40725359870978906 1.3287447391946747 -1.1488848492151116 -1.1221854855470546 0.5674010729349003
Ni 6.295885494021833 5.754616663889268 0.12776665181553248 -0.34778335443513003 0.7053150465062756 1.1911735826809937
Ni 8.077215243629807 9.052370442924543 10.91407853682079 1.0188147971681873 0.43408731713969756 1.7723840506951607
Ni 0.05159991720600784 5.2546487802837785 5.556719012281238 -0.06820108245626964 -1.5802928197504333 -0.7292137075007441
Ni 7.700217305418635 6.353263015129073 2.2887825240489854 -1.4884499295055076 0.036068977808415295 -1.1700203456421463
P 8.640411615767208 1.8111914208140631 3.389031588027644 0.4710045018810211 -0.011201525142774256 0.5354443175226455
P 2.291550412044309 3.414628211926803 1.4666491430820834 -1.7059536869860683 -0.2663032954817672 0.3079022019694762
P 4.615362659950336 1.2898303714855577 8.211756699831799 1.7637564569271493 -1.464603204794897 -2.111262903551809
P 8.614598524187786 1.928246998207903 12.260202279567253 0.11066233694427394 -1.067493236210497 -0.555669900540901
P 6.623838558232104 8.003625289565667 1.2589778398518237 -0.0938195543553223 -0.1062868335843976 0.3081243452826113
P 1.700140783671857 3.3304322472523107 5.899404558864522 0.07922134482617324 0.5602400364100868 0.44796870310748016
P 7.106706400819368 3.9986652590551675 5.906854126522092 -0.15395637174621873 -0.15065250418396636 -1.3237995683805523
P 2.212517065685701 8.650139075541347 10.014926136360986 1.0379934269791673 -0.31100912302957406 1.861583332669652
