# total energy = -340892.7002079473 ev
CRYSTAL
PRIMVEC
9.07074828023261 0.00000000000000 0.00000000000000

0.00000000000000 9.07074828023261 0.00000000000000

0.00000000000000 0.00000000000000 13.27595699340813

PRIMCOORD
 96 1
Ni 6.484287873991172 1.9324140633711797 11.495571498978487 -0.12619848490666008 0.32346791761821714 0.7245859789207456
Ni 4.774497184653352 0.5690896737757792 5.905915196467451 -0.11056874878920313 -0.879125476863944 -0.0360113850976025
Ni 2.663325885733323 1.4037980682384699 4.721235565142735 0.39391897245092805 0.20583557711401326 1.1908349683946524
Ni 3.4796569442635037 4.370821675766639 4.963203216870897 -0.1229033590951561 -1.0406357496980208 -0.15782871021743142
Ni 5.089832676439023 4.36210468670882 2.932645471701806 0.4277868288429665 0.19381566983500167 -1.276803145026356
Ni 7.034673664897832 6.239205327317687 2.4466393164224844 1.340719998284975 -0.8055628729854448 0.6374682620656311
Ni 5.025756910877696 4.218678015551443 11.47490107789112 0.11505609513659538 1.4180991476960867 0.7089554714723403
Ni 5.745656844877516 8.053917361537708 12.331957074790596 -1.1076767504079181 -0.16019361090518217 0.9626040543045744
Ni 1.9891243813623205 6.228275075689517 0.40634775131796563 -1.0331044743179822 1.035197609401585 -0.46046349314038115
Ni 2.5178582962221387 1.4882467343449188 0.46061713095795204 0.577681628925302 0.35427924657211884 -0.10746594149416332
Ni 0.9061559571179718 8.835471171319004 4.439267727829587 -1.5346079161188084 -0.24145795430331318 0.6568037291694495
Ni 8.614099560542646 2.1510372374310758 1.630154962247062 0.26520697709379487 1.1588553301642623 -0.6943657465836235
Ni 7.046764972300614 0.9424326005507883 4.939372547097013 0.08640732105165118 -1.1098727296179725 -1.0180120987612338
Ni 0.7402238525044506 7.46687667699666 2.435607472414035 0.0935840413057485 -1.6932308401027614 -0.10575667211254046
Ni 7.394882148222559 3.669770756607764 3.688459219204877 1.5770388315895096 0.5721038777272083 0.7146059848898982
Ni 7.470740815746536 4.0316754698532105 12.60550816481264 0.17906987898439483 -1.4117660063892072 0.601717329718267
Ni 7.694216840114375 8.790616321276428 7.21296012861307 -0.1185139717782088 0.09338015282505853 -0.09137906323462971
Ni 6.905007318819241 0.7815755795770692 0.4614217063267643 -0.4583140508975462 -0.5671169660355782 -0.790641218678606
Ni 1.97872023313202 6.3056122751764745 9.356681807589275 -0.05667379854296046 1.1284996006905401 -1.1639574272775177
Ni 0.04425618065879319 4.75933996434574 1.4757953182370431 -0.261816206244691 0.334638589523056 0.13069714410796202
Ni 6.478609585593467 1.8912147248689786 7.010767707913564 -0.16801002162580742 0.658932088366362 0.6290013622452006
Ni 3.724875552160576 4.56294919421999 0.8155192265627774 -0.12131236045895236 -0.4703229024329642 -0.3713264318623928
Ni 6.008762968302184 5.883278237161839 4.584334390268601 0.9006582087293972 -0.7613926062261339 1.8396739341910704
Ni 5.2130225082748645 2.80610853376572 9.372679886258657 0.21061011568452115 0.5326996648979729 -0.10505450383919328
P -0.01763716287619543 5.57014693719828 12.510398648300724 1.4455112211604524 0.6535109173507907 0.025550337665278578
P 4.140941703141962 6.211748172397792 12.568069558530388 -0.982791584996043 -0.5542532226990325 -0.46572782686311404
P 2.324034547848068 8.485494492008035 1.4047024218379125 0.8005319954297567 -0.4235365382070448 -1.6762240211321198
P 6.4568216483230385 7.775254904882906 5.691429190679429 0.2535197705638537 0.6902972329412047 0.6010125903417586
P 4.659824785414068 1.028414223109653 12.635857074271176 0.2974257279181845 -0.7810731153741967 -0.22398088056447232
P 3.894289917023105 6.252113002061992 8.121673129659658 1.1188402232239054 -1.0697830606859384 0.048270147860297506
P 4.5589036405053305 0.9847748533311216 3.690291510349184 0.5212199463931474 0.6281187025299312 0.23265706818223156
P 0.33724316293285594 5.571017729029238 3.684994193377523 -0.9112233858397533 0.41820766979496365 0.17289640318383126
Ni 1.5161755681732492 1.006236243664941 2.672542673019119 -0.16749965764829217 1.2807852696025552 -1.5545177676688584
Ni 2.049508352390315 6.4337365940544124 5.005765888833442 -0.03600572867064767 0.6885491399018464 -0.05546923671189801
Ni 6.003066538408 5.63971957619253 9.156546632590405 0.06889913696455877 -0.4419469223934324 0.2627202061161991
Ni 8.697468807608638 2.342620510990078 10.305528334219964 -0.3381417175803079 0.40859508640586406 -0.2652488860753238
Ni 2.5328250308167295 4.964719845976482 7.035487311014884 -0.6800742696616159 0.22002960922620815 0.5750948420347322
Ni 0.4973464047279019 9.171524252082884 9.1400052161015 0.9770893924049431 0.2407853537163208 0.4153619728160524
Ni 1.5552251393427727 1.151903389637386 11.413260808232005 -1.002900697041092 -0.6204650426394154 0.0025099109060472908
Ni 4.143427088159489 7.074058853752205 1.417752507329572 -0.5028023631179084 -0.21339410618756152 0.36360155241430925
Ni 5.420307247035828 7.939526155493839 8.161819354291294 1.5051104208803239 0.36338429419718066 0.6055377319056217
Ni 5.295956359425376 2.7889557488454946 4.773662675815351 -0.023320162783179194 -0.2349324944799696 0.5272625530428017
Ni 0.5963236882889911 7.442394727499204 6.9153661133083455 0.9588019069496648 0.021613207394401486 0.7214613172488349
Ni 5.074965720075062 4.4758337281312315 7.177473547351883 0.8468671310508705 1.2094078463008333 -0.2775068775070705
Ni 8.227096086919484 7.309272426341499 9.16572078735948 -0.5160286320001951 -0.7111105701421302 0.8307897658730337
Ni 4.703065042270078 0.3205983399140231 10.424984646080572 -1.1704291510447906 -0.4392701468922176 0.13931393924269556
Ni 8.4491298623173 7.207843319531369 4.88636218731262 -1.3480170461670204 -0.7756102924874126 -0.635714255489002
Ni 7.32986302484436 6.255686876868216 7.277799651176134 -0.21908241482159044 -0.5428897180570973 -1.8225082210450612
Ni 2.2646665006228575 5.436135702713138 2.7343688930171384 0.6556472469675032 -0.5723848993027368 -0.702974571298557
Ni 2.4604495306165846 5.109888100795774 11.547785447067483 -0.37082969473163235 -0.053662008299830165 0.4426408631366635
Ni 1.0445964379682893 3.416207060330678 3.719962834914255 -0.522472587853326 -0.41643926504063117 0.4953731605333727
Ni 3.296663669286973 2.76850121156622 2.8685624495418875 0.9964739675791419 0.059708214493910075 -0.60553850323657
Ni 1.0431269767535478 3.4140572929980006 8.241488643150536 0.1547960940386947 -0.7036132333238204 -0.36095768703355896
Ni 3.880611228678473 2.5992410494237563 6.989817907780432 -1.3710029655392324 -0.26655089271619903 -0.39622602331754986
Ni 4.364426798258042 7.247945097496633 6.0832691872637055 -1.1278439693844124 -1.1304071021258983 -0.9166790096376858
Ni 0.7200786277401313 7.292174065910709 11.144209716411401 0.5880655432627873 -0.5912768511112333 0.9607610875585647
P 0.2841112551220584 5.606212232197125 8.109777750418841 -0.31576874920174647 0.05697513183346317 -1.092464304333538
P 8.721079965275134 1.5883152289191773 7.828486590924333 -1.6070001538382908 0.675113840332547 0.8937429696668027
P 1.7398511490023498 3.1968310141669325 10.455785278801416 0.08391129410267484 0.07321216251761586 -0.09968012690115736
P 4.036501107916436 6.057491027842876 3.825427517615981 -0.4182333808265765 1.9621754298621175 -0.3976889810163215
P 6.827987595520653 3.9478436146270233 10.37368684356373 1.4232966327366263 -0.2637051957372878 -0.7585096282513839
P 6.5211423240868225 8.02788431409136 10.37909028828979 -1.1723726479244068 -1.6967758771415422 -2.3117364450229605
P 2.3275993519060525 8.543193521557242 5.889957936165145 1.5659144395415743 -1.287378606549357 0.48750429930825717
P 6.951186498104732 4.020826854959192 1.5562338065469656 -0.8422980236229494 0.020988943546841273 -0.02119668868227317
Ni 5.326161951061732 2.7761024985906246 0.44732032111418796 -0.10689489948204171 0.8753187015233442 -0.21072967198152096
Ni 1.669335152191229 1.1064317287145475 7.111093811737813 -0.41571241417693566 0.41419546331177703 -0.12774628900975418
Ni 6.793908794386181 0.9057486805220342 9.422198915045804 1.1701753831627717 -0.558728999082199 -1.7345350981681869
Ni 2.845384873641222 1.7077679124804905 9.224174503162184 0.02197187628540087 -0.6498455526840615 0.1974085293925826
Ni 6.2467703313491345 1.9516531203864083 2.4952821109297285 0.3060075560499246 -0.058728881299776284 1.2018007233775365
Ni 4.190540554513613 6.639316032146416 10.305488422927711 0.061025647753752965 1.4224389127220212 1.2562893413437204
Ni 8.089510977628118 7.321799129659759 0.28179821432107616 0.1930091147733063 -0.6814660078028199 -0.35407278698826766
Ni 7.627555911304891 3.746409508480309 7.984758348663164 0.016916573249680544 0.784564673467223 1.1059412557740502
Ni 3.014109861637576 8.288822528686872 12.258301692013905 0.5218064150242369 -0.24871489297604263 1.0022900600402866
Ni 0.23051038962729703 4.81191402113983 10.068924215925607 -1.1373177132028027 0.04439472406529128 1.784802221853855
Ni 8.604357576933804 2.72984168257098 5.901043297588206 0.5885717934752445 -1.7197707953748187 -0.6703747829856648
Ni 3.487113099316082 2.513005445914196 11.724409242630486 -0.06247986370177626 1.00831081231307 -0.5329081813643533
Ni 0.8449619682722213 3.407589849503489 12.66417413612414 0.5397303464925092 -0.10044503009163992 -0.29930417588782
Ni 3.09405036586917 8.282645349136015 8.003436833437213 -0.9650610004854994 0.9056852296303435 0.4511481292767262
Ni 5.643982827864929 8.079877842998146 3.6195306033356065 -0.2636748567199846 0.569632019147948 -0.442909800527334
Ni 3.069468638141084 8.327808604618722 3.390161313836794 1.0423704730009404 -0.9964816808886258 1.1284234960369663
Ni 3.4195178834379663 4.359093198293423 9.507709765771056 0.24647803322572392 -0.5069737208867784 -1.157972927559309
Ni 7.254739087927753 5.990231429649609 11.320727384220005 -0.24475642254892685 1.2360539881334518 -0.48698467935936135
Ni 0.5079011273789722 0.07220678428289759 0.3774265776322726 0.12753083056483844 -0.416866839496353 -0.23942112637894253
Ni 4.62603624822325 0.5142533723708461 1.552768780719612 -0.6103305253085748 -1.1658312472614634 -0.4774299457913907
Ni 5.9847073439719685 5.7707374637587545 0.3009193516091959 0.1017534644904183 -0.5984355736432017 -0.19489527605242563
Ni 8.094245908208952 8.822209737393372 11.409171714925797 0.966054731857336 1.345136896405748 0.8957322321826896
Ni 9.176331748649632 4.962951050069849 5.906022231296673 0.31137884766416696 0.6053801232818348 -0.08048889868468719
Ni 8.008717823062044 8.81288500820353 2.3476937804802325 -0.9779849076360189 0.6632476850225802 1.1221775151272544
P 8.704426071508061 1.4674747208772747 3.700128736814538 -0.351236345980737 0.7832577817303413 0.428021827671908
P 1.8839853385223793 3.4483991458314067 1.4134384594670344 -0.31981875090140405 -0.10604977787292705 0.046468575875184485
P 4.77812548394901 1.0581934895787692 8.192420430550877 0.26884585939796274 -0.9462279269393962 0.12593726082547343
P 8.55426890515724 1.6351928558190836 12.552350858906774 -0.23809109471360926 0.5866552931788218 -0.6135156079047757
P 6.192617964361434 7.814186556325319 1.2707519613659723 0.6355129381114732 0.79096106391187 0.8317670421846384
P 1.868565066515831 3.00355151068721 6.0297136755101395 -0.16137091904273498 1.4989233182330055 -0.3670159774124969
P 6.840351025370608 4.0751969199046325 5.876522343873323 -0.22023118371405295 0.3488773588302572 0.305614434376564
P 2.4441947497720347 8.521605140748076 10.188487562615439 -0.6080013629547658 0.12140543439339092 -0.47491283579649174
