# total energy = -340885.3936425302 ev
CRYSTAL
PRIMVEC
9.12231437643104 0.00000000000000 0.00000000000000
0.00000000000000 9.12231437643104 0.00000000000000
0.00000000000000 0.00000000000000 13.35142918758035
PRIMCOORD
 96 1
Ni 6.523804928132029 2.3705155084254743 11.079296279328078 0.2438832759153542 -0.39047857931081137 1.6692257354374156
Ni 5.108569065694599 0.3927922641431985 5.881584869143647 -0.8221837693715774 0.03745403108140001 -0.23277276782448944
Ni 2.863923251931441 1.836923969805179 4.64518924463536 1.8239403255058972 0.31518896543887653 0.08937437409977511
Ni 3.5939820766759785 4.836760584598908 4.7519340070712985 0.6132422996387309 -1.0926980176108987 0.3598958214279479
Ni 3.6467181764616607 2.5722372476679576 2.4106810589109195 0.05931020772454302 0.416530796313173 0.3423853233480103
Ni 4.95684673190538 4.5963054982382765 2.7013015768476483 0.873256933898309 0.17625632079499967 0.2894041431652887
Ni 5.432465962250635 3.2755494464703356 0.37103919312625716 -0.18678730223331055 -0.16722737782351196 -0.5432818112891934
Ni 5.571991761631714 8.172362227036922 12.39171544792803 -0.27879885684561667 -0.06933673872260962 -0.018682149790535566
Ni 1.8613352832503418 6.8591138400542455 0.4492438826008596 0.11438015211549334 -1.178519641362409 -0.9604278725888621
Ni 0.6636045885018906 0.4388581276093358 0.17334860463542442 -0.1524067678709117 -0.6672632339398766 -0.09016010322586408
Ni 8.241482003559343 0.18789778393799925 6.911327231222436 0.5462025844804141 -1.0498904355270693 0.7755807248010579
Ni 8.686824272273618 2.381617365100647 1.4105515539717752 -0.02779465361476503 1.3763040660371717 -0.5227263557353449
Ni 7.327380484959738 0.9550698327558923 4.930309006963929 -0.8307601981866789 0.060397527251450825 -1.5379930305409577
Ni 1.0171563048440009 7.6449100060356825 2.547919894061541 0.5463892465699235 -0.16320205871420282 -0.004592761577004993
Ni 8.0875064581031 3.936652696352397 3.7320720237639815 -1.1831476270527237 0.11345044121237235 -1.7671449137834083
Ni 7.791469109851073 4.036405204769009 12.888989228294259 -0.06737910077560655 -0.31521081981574745 -0.18269102067674992
Ni 8.323263552526415 7.238146005094049 9.221245029276636 0.022788972870057527 0.30079850104515937 -0.6578758791877057
Ni 7.0788977618906825 0.8497755183161345 0.20819949472731533 -0.07366519089463443 0.245706445167022 -1.705511200132011
Ni 1.8903077539162003 7.023123931396017 8.940050598852197 0.013496748934854174 -0.45922807807138327 0.19289264380010004
Ni 0.5020037004040897 4.978986589054638 0.9897373643275114 -0.15909523563468086 -0.17271256930779932 1.3529597348842761
Ni 6.6127474939355935 2.1820849813240977 7.145284493006463 0.8102366243120305 0.030835497323617865 -0.6300763404769343
Ni 3.2475530634497063 4.420208340261661 0.4108498855799324 0.08171248667914315 -0.028666771807073207 -0.5707550770087978
Ni 6.903329698151668 6.061504276871206 4.387159107271946 -1.4224651379742663 -0.4694734099484753 1.5700996812675154
Ni 5.372413766282957 3.1312891658941755 8.922025817747452 0.3215377904750398 -0.20732296029281713 1.0382937318284053
P 0.15292647929548198 5.820538340901858 12.380139230901905 0.7559279835671369 -1.2489699248641717 0.006499491681414614
P 4.1856827582879355 6.1777408074834135 12.600505156399706 -0.4229901787852715 -0.12728734709546466 -0.4493257313560068
P 2.5315517252593525 8.706218312776016 1.2927204427952135 1.0468261947794488 -0.02971063969055528 -0.45591855408217613
P 6.905555542875367 7.996182968230333 5.784386608770625 -0.31199642664350785 -0.7243885181979589 -1.3809281950727443
P 4.989723553152155 1.3382344062376466 12.58551080815239 0.6497679053685906 -0.21622360521655665 -0.12594754523811857
P 4.455940445928591 6.433822418482147 7.927251111385405 -0.596212597849954 -1.2397350365294648 -0.0747450542223745
P 5.106142530053189 1.5055650200360853 3.7737947533245726 -0.8628887032901074 -1.3253152336941303 0.25199382083763056
P 0.3802299249259587 5.735509247993651 3.2793379436578456 0.8500542705296005 -0.40770471338111075 0.8276813021510391
Ni 0.8671206869949957 0.8283809542567399 4.999856620033652 -1.786924924623813 -1.4991428904429793 -0.03194004324170628
Ni 2.4270464910187752 6.9296840645728475 4.659848803942675 -2.0040281042318453 0.7740563177367314 -0.04847480767193587
Ni 6.532717429341268 5.623414248137836 8.917446415897874 -1.0528104373873417 -0.29225832478463215 1.6062625043413177
Ni 8.90138110793514 2.3789901385415266 10.198088914372684 0.5476061496961601 0.20054424680808688 -0.6279263840134669
Ni 2.4723387822202825 5.636231099927991 6.821191466689938 1.4456850277341553 0.6242854448267701 -0.36909548564934497
Ni 0.5039266842883351 0.11193992051031133 9.361421249677386 0.8818454468982685 0.44804583620231875 -0.4346496174010708
Ni 1.808033599969293 1.6073061930009211 11.666585409676179 0.03130575209181705 -1.3593239865394073 -1.328045745251416
Ni 4.5555378749996995 6.928124148803369 1.3480938036859023 -1.2437127902302902 1.0990059621067978 0.8235438829438978
Ni 6.060272764421619 8.000306254357842 7.846047917153917 -0.22408372469092372 -0.09311378653754931 0.19090415261516155
Ni 5.267890287413497 3.063729305141232 5.205909634172908 0.014350355184401094 -0.5065898551847985 -1.1729701722990895
Ni 1.0023416661911815 7.804240350069021 6.814035011010667 -0.09536221625209383 -0.4323572218224683 -0.281882895087579
Ni 5.249153053550879 4.678251248865293 6.8601647306778935 -0.3640011018455731 0.6069531241959095 0.6873571764762744
Ni 0.5765777087310187 7.519067678316691 11.262264364541949 -0.5075871861010612 2.1594366350435585 -0.16764955296259515
Ni 4.861007696384124 0.8628295502817653 10.34917359838245 -0.6471286679735306 -1.1787520690881892 0.23776970681844856
Ni 8.848599396577251 7.45434485735502 4.554880156128475 -0.25000532965269207 1.0385382437390438 0.6168238463424022
Ni 7.548788178766744 6.15536377015868 6.9878707472372605 0.38514713979556897 1.5228255787719 -2.013193058560565
Ni 2.78536187996218 5.395365509417497 2.5546357419532937 -1.9942229452159654 0.6764747252358156 -0.42975937918830504
Ni 2.507888441598384 6.433092633326836 11.18430506532582 0.92863232534482 -2.20781811167074 1.1344506760676527
Ni 1.4120886639551495 3.803941265859038 3.8515004521992307 0.4333725504608601 -0.9881767605673563 -0.782205172096111
Ni 1.537547854467603 0.9572500659073848 2.512551768740823 0.021073532840847578 2.1302870100627955 0.533533730763494
Ni 1.8518754431746192 3.646563097116157 8.05343552589595 -1.7480585865759186 -0.11920662696985922 -1.161283994210413
Ni 3.879291583144929 2.381754199817268 7.084374799481295 0.3355559591310028 0.4614682802558117 0.07681659203942255
Ni 4.567469862289039 7.004432309105607 5.68275581581053 1.2696675624228393 0.5275482026040205 0.8248458895847731
Ni 8.29208348176574 7.521968574309053 0.04487357696864742 0.5495792142621309 0.46424610011126505 0.3964278549157108
P 0.6092556635229701 5.715759437228039 7.819291256665872 -1.3665302744798595 0.8151546304389381 -0.34731052856376954
P 9.093852820334053 1.8585347327168347 7.8527500815740074 -0.30703342621127766 0.8889314072107724 0.8755315888650986
P 2.3844087933197127 3.743031572333869 10.038018750638152 -0.00808560522161188 0.9823951208885726 3.07649051152216
P 4.292806096773192 6.6601744067163855 3.554991480290584 0.8583036550225863 -0.4318324596672498 -0.37396386948523985
P 7.386301513936683 3.922084360189495 9.989899454191256 -0.7282302605415523 1.3557475820420588 -0.7672603778608205
P 6.3672660123177565 7.888576147079682 10.223403336947547 0.789611234752195 0.9455650965444167 -0.40041203637443945
P 2.596703294999769 8.939685706274542 5.659323326704928 1.662964327908736 -1.5212530920784575 -0.10912661702603788
P 6.821402192153534 4.231558877613691 1.7781169697587507 1.3238846718951909 -0.100129298623434 -0.9223706607058243
Ni 3.1385322835606404 1.6778672952050822 0.2940094577517057 -1.0705492494280016 0.2529502712136289 0.03929185562108716
Ni 1.9438283727438423 1.033503492322974 7.285848411770972 -1.607282975186032 0.8874658784088394 -0.2919443930886392
Ni 7.19362911062006 0.7005244195090891 9.159721403989561 -0.38263311512446363 0.06624061629578915 0.05562093179841388
Ni 2.6962459901842295 1.8288507215245478 9.340967196236898 0.7627408927239122 -2.1399947242688633 0.7400478220017708
Ni 6.429434585235836 1.7902268421796976 2.14792465043542 0.8439754113253722 1.9913489661022798 2.1899160345793383
Ni 4.25738414979727 7.357794281307337 9.905839151076723 1.2860020379168047 0.925873017432128 0.7346541617900251
Ni 7.425810257782349 6.473276428441164 11.426086536206228 0.06597219312575088 -0.4493771534192325 -0.3667886918930393
Ni 8.297310567940656 4.0909566451285295 7.598351537589711 0.5297665504115779 -1.6868686453301591 2.661724006198261
Ni 2.8018915137299807 8.523644311546013 12.479807814025659 1.1535688849543424 0.628752222348872 -0.8973170601713062
Ni 0.35668979250994876 5.044785843120391 9.966841892209194 -0.04246459692211396 -0.3083531734639657 0.25930423845611467
Ni 8.656574677585967 2.685509026086712 5.6793905940131 1.6088798873595063 -0.3782079894735744 0.6725201114634417
Ni 3.9122961167938826 3.0495988400715173 11.591671139020585 -0.06803113253730864 0.4810611147860747 -0.470238570249274
Ni 1.131468027109074 3.757964801074426 12.0799193014785 0.17825432506163494 1.4084652241507485 0.2970413479955723
Ni 3.457047014596255 8.41614695816866 7.82314999567458 0.7539294650798692 0.6182927175784448 -0.725388420217383
Ni 6.117287229680313 8.45627601939634 3.595446208143821 -0.7892183701891504 -0.5250768582453925 -0.4919641348518237
Ni 3.4925966739743566 8.754922349578605 3.2915545471577565 0.46716764463343413 0.2609361176325829 0.7660835839439
Ni 4.1869233930519645 4.993062320237704 9.763178924453584 -1.3804270870666098 -0.1593770285411578 -0.4857014417715635
Ni 5.7658774327690425 4.929425054694559 11.421426857989566 -0.535175380131975 -1.4935070323134407 -0.15519075837395208
Ni 8.337430506853895 9.167926013598148 2.2422393472135194 -0.667133907450864 -0.5589066623106439 0.36223012598807935
Ni 4.878413072338299 0.3518020564322514 1.3573994766475654 -0.969840938372646 -0.7790329450157164 -0.41020999630146776
Ni 6.167934319458917 5.849063818160088 0.17867968519497343 1.5332058935649595 -0.26557773016965225 0.8233266247267691
Ni 7.861820398823082 0.05173264519712945 11.446607182542138 0.4332859042843248 0.04050515920289798 -0.6588698676698589
Ni 0.2709445979180922 5.150002617887398 5.482003778593167 0.2682053976004865 0.4502472147290117 0.7622068745973131
Ni 7.721044842363534 6.558688658555909 2.299783818941259 0.08443297093409975 -0.8524178856657707 -0.5904358432671767
P 8.809282221334854 1.7838229774418408 3.48034358121668 -0.7387360451688826 0.4264051180040914 0.8103844627438044
P 1.5987859513126619 3.166884436844484 1.3614187683904424 1.88005079534622 -0.6279490097212863 0.3288430658872014
P 5.151270619594752 0.9292628052011966 8.206335550479551 -0.435739765141456 0.43932131184512724 -0.6605395420627979
P 8.799822381259132 2.0128842930651736 12.37306305158972 -0.470706511024628 -0.30913350327341604 0.10739240794375053
P 6.602129119925814 8.107986054024025 1.2805093126839673 -0.7042184710079872 -0.3764272434240678 0.04467471719955532
P 2.2952199250262315 3.5016003983280095 5.951613228184431 0.02410280658547462 0.4757265899470388 -0.943710302723865
P 7.10451322084211 4.100708399266376 5.829220959787174 -0.7429390275066367 1.5186040844913846 -0.9008402428332164
P 2.4747105839750443 8.622365998430748 10.273497614471003 -0.39360606919619956 1.7240974477746307 0.22790926908460107
