# total energy = -340862.5213515134 ev
CRYSTAL
PRIMVEC
9.28766419804523 0.00000000000000 0.00000000000000

0.00000000000000 9.28766419804523 0.00000000000000

0.00000000000000 0.00000000000000 13.59343536532578

PRIMCOORD
 96 1
Ni 3.994568701046669 2.663033417145343 10.983047575952954 -0.13288386734663565 -0.36032288166303755 2.788087813038192
Ni 3.979931342067354 4.86524079337909 4.901344730917345 -1.5307841714973442 -0.0901701305281931 -0.12039216263752812
Ni 6.557016713530856 5.819065344430931 7.7542393685340425 1.2622874679086842 0.20694552234874034 0.9638075876943724
Ni 6.757834591608744 2.371540072243183 4.166659833361218 0.31627808473799723 -0.4176173445091324 -0.03672075245980128
Ni 4.175483114471846 6.771013787288724 9.21112932909014 0.3612644196407004 1.5686863458597564 -2.0905464969400644
Ni 7.466418366106769 1.2418071588384048 0.28949835460472567 -1.2241906610369626 0.07078272714051681 -0.6790198602551725
Ni 3.1481467002719845 2.741727796987816 6.674200103110753 1.3620323866095059 0.49788949919732317 0.6986438051336871
Ni 5.848804445605911 4.851272146231317 3.3571841612792466 -0.3305484786140823 -0.2578351101097559 -3.114358747322843
Ni 4.164189314650243 0.7072036275790362 13.007776045796072 -1.226840439954984 -0.7858373695320596 -2.0666313808853634
Ni 7.47074641768314 4.218327110012189 13.655557197011111 -2.019930377284399 -0.28481755223587074 0.9180764042058447
Ni 6.1150446312030216 3.3363054918722037 6.924903883821697 -0.7013023258024567 -1.056040257178549 -2.5197782857596733
Ni 3.7660921586030454 8.170757678007366 10.955547730647208 -0.17020085862953913 0.7789272726757877 -1.1096950663895275
Ni 0.9626199691694886 5.263068607160805 3.91399914177658 0.06505842306222989 0.28199216697193374 -1.0581485617708033
Ni 4.929938663080808 7.279959217078387 12.687038632227559 0.1824645064882406 -0.16147042073507675 0.5451882842832868
Ni 9.198149818193189 2.3058669977871316 9.926225613814239 -0.6472657077720272 1.1781692000015258 -0.9280252878884404
Ni 0.3657268595683861 6.697659814434262 5.779031796115931 1.3795989347383595 -0.3554115604043492 -0.10033755797949817
Ni 3.8258304155541585 8.742431992661428 3.515792391290324 1.3361323789142925 -1.1573805453909487 -1.291777506948001
Ni 8.754143737377746 1.5686865048263459 11.910296404299585 0.7441649294939376 -1.1543101339957411 1.8356488721920772
Ni 5.231889918015145 0.6655345215760557 1.3487221067383959 1.7531324015543999 -1.1017405874291413 1.9512448989925428
Ni 3.099182133940164 0.7646171821491073 5.110560515079686 -0.2439722360847347 1.4416085436719366 1.8525219937983322
Ni 5.967928028263713 7.462972642641461 2.540124182507866 0.6744407255249223 -0.2753497219547516 2.8991211601686393
Ni 6.342313777284138 7.8868244918673645 10.874341037604289 -0.487893821437192 -0.7225743478073555 0.35505597683714335
Ni 1.9753840380403236 3.132515561209683 4.574204401561817 0.9628861043213675 2.2199177231477507 0.36410317464107617
Ni 2.557571988712524 7.798498804117817 13.009312225475753 -0.3857719178637614 -1.451155049709791 0.6661160077093109
P -0.026032394342082682 6.364585596340229 0.2994974540191487 0.3760346359713395 0.5103470082343856 -1.8869516362311114
P 8.288023727799771 8.901269627981383 10.770010846686494 -0.9507340423398658 0.8657763092505477 0.6312899011690611
P 2.3214609861921254 0.1814670294526321 11.768326096163852 -1.1991504302388833 1.8087430489401688 -0.27309589292356834
P 5.136468454719787 7.727215980408272 7.086883535983467 -0.40925174615325643 -0.12547266248422909 0.9607546598006613
P 6.153402684873434 4.92710592546108 5.310860141488129 -0.5824931913813323 -1.874385626640643 4.2437240384477874
P 6.630835069601666 1.8997081491041186 8.670762802115881 1.1583763336453146 -0.7319773862888104 -0.23075522317382843
P 6.405813538287677 3.134809614298446 1.8242932435355013 -0.31208538681288833 -0.13762858112047263 0.22516127402581868
P 5.684236321396212 2.3336649771177727 12.746020873302458 0.4275911678923926 0.5114772651840869 -0.7720644841176832
Ni 7.331236411827625 0.6571570483531228 6.75947200682959 -0.7603142855602906 1.528382504034387 -0.23116402857647286
Ni 7.391513353309703 7.565350566517724 6.700653228646847 0.07145327084498017 0.6692344987336345 -0.4928239117489577
Ni 7.358087049396914 0.5161266518472815 2.5147586424644603 -0.4751061827542204 0.6196561735848748 1.956394304403966
Ni 5.546035876210801 5.532317995999857 1.0156023790891593 -0.6035605535745928 0.07811628468745258 0.4822109121198018
Ni 0.27190844713586476 1.1099316130596644 1.9615732811861095 -0.8206256808558384 0.22869062733531584 1.9830890400863332
Ni 8.18997385549988 3.8728074217200064 2.990405938109047 0.31896334487964423 -0.027741174669010285 -0.11630590838329648
Ni 2.2897807631728084 1.765389947607383 2.8655100720720292 1.0843473316533585 -0.9247198776642913 -0.6375271403280246
Ni 2.604614008528661 4.892332910220881 8.643385553979252 -0.724520672900449 0.40755224696364645 0.992135488104788
Ni 2.2192409526094212 1.6729126739036773 9.355872005027472 0.6638642355606567 -2.110833015103242 1.196808412369268
Ni 9.20499482680217 4.706523897695387 12.22320338807402 -0.11412766978505506 0.4048687865942124 -0.8661748302405469
Ni 5.481820965054085 6.938219608167284 5.01395208828334 -0.6842880506326473 1.400632358369891 -0.085265237027408
Ni 1.145382627795734 3.0290974189287985 8.053879852583826 -1.0221286920327688 1.2944553108904802 -2.185392692787688
Ni 1.786017850077598 2.7184343348557585 13.11769276680654 2.6457312303144307 -1.6765546649986611 -2.4674303682855765
Ni 1.478168928295632 8.870657486359667 3.885221313859443 -1.4794886065471617 -0.23944040965265215 -0.6848117843466013
Ni 4.708242115595877 1.1507880484340343 9.3057669135163 -0.345135889509954 -0.35833593313999573 0.9840192867555569
Ni 1.0366890921771268 4.551837848329591 0.5669004551899971 2.485501366854674 2.1491293395802793 2.440737946596055
Ni 8.069178493263223 3.4900999254626086 8.146260534578532 0.849505340004666 0.812999274658832 0.3000107150365414
Ni 2.9023858145158576 8.953847095736396 8.407186318647748 0.394652765293159 -0.7836197930554504 -0.6840183419110284
Ni 3.2760099750614717 4.379310195791675 2.585471203584329 -1.063975967085858 -1.4075756224569436 -1.7554818756231831
Ni 5.116945784304482 4.896512359168019 12.411241440037989 0.9800394761722026 -1.5936828679040942 1.2104306311383928
Ni 8.02264729498507 6.0567366745582625 1.9027823659963479 -1.4029959735060613 -0.968413204787184 1.0264404320342453
Ni 2.511356571021489 4.793939394340891 11.948833709891508 -0.0947135269245014 -1.0489409271296064 0.3109813551154322
Ni 4.524467101557992 2.5366468809838456 3.067263217947644 1.4579255356644054 -0.6507634365126406 2.2404551809794704
Ni 6.553069456191892 0.967189500018361 11.178575200430195 -0.947317303348833 0.5325397422813408 -0.4135339184683781
P 3.814081520180533 3.0788049984067776 8.950693004930955 0.447782555238603 1.2244292594103299 -1.5195739046038217
P 3.1827896882116073 6.298299536038596 3.024620764723196 0.13172095738678605 3.4032980350365714 1.4966414641773644
P 1.4403402714918565 8.595268951400485 6.720458244057692 0.06395207737192858 1.2303744212501713 -1.6894531182278838
P 6.688743656680365 5.758472622361737 10.658558874762775 -0.2878249716036269 -1.1139237597588945 0.024304381073319434
P 8.991824355169404 7.3599538699266365 3.297726391790808 1.1473031065502886 0.8795597361878852 1.32463054892228
P 6.381359118114748 9.008402835993058 4.262493668952693 0.09910702800650673 -0.19468213160035505 0.7974497569600072
P 6.349279525529371 8.012235823274528 0.6416810132850818 -1.3489071620814574 0.7437460967889643 -1.9077857993676435
P 0.926191892146221 3.362756759875433 2.440279933460002 0.033383974777084435 0.02582544570353617 0.36878052551208745
Ni 8.777622952796344 0.5358118563883083 8.746234362436892 -1.0609060699112827 -0.7152292202961941 -1.3605558020639794
Ni 4.380452578503893 4.979701968544749 10.415358598061598 -1.0184080486480718 -0.1426455747190898 -0.9460656903299189
Ni 0.131987926517097 4.9952123679708 9.933104058014797 0.7901149138614909 -0.10488506814086451 -1.1570164771833105
Ni 8.099186936703683 7.178017813425492 9.356578796282756 0.3350409671677972 -0.7232888573758769 -0.3782229018719099
Ni 1.2081486633174416 7.103781512459968 8.134678817162794 0.3301229610408895 -1.045859459990805 1.615200944481528
Ni 8.733292930963684 8.76012499320432 5.333017722272996 0.3817000617872329 1.3487924908804643 -1.771117525277911
Ni 8.3199825807489 8.352805186480435 1.07514002249081 1.3005881632610956 -0.7108400900895628 -0.3812678593458208
Ni 6.239777963114316 8.759725623638259 8.738023138405413 0.13519066110294137 0.034866472859881883 -0.936070012569788
Ni 0.841351864818588 0.3369025933296142 13.675539606810602 1.484947315668888 -0.5550129836831925 -2.642217303623901
Ni 2.812954894711399 7.434078718920237 5.361767687197152 0.3407573008262841 -0.8595233863623003 0.05641411712367059
Ni 7.393853844720101 3.284471037263347 11.047221621386631 -1.0428199018335331 1.6976253696260308 0.19395193830254984
Ni 4.5240863073205855 5.181606503348894 7.247258279749535 -1.590605771640667 -0.06977228359813145 -0.8734806198733409
Ni 8.458926039080469 3.563713952918225 5.575891073189867 -0.1401876000969005 1.0110667777916524 1.0348389405105853
Ni 4.137236512773357 7.886044328063898 1.244925027752971 -1.6754529472940498 -1.427591146346922 0.02787950001908747
Ni 1.2916447656169612 7.557502490161429 1.6337679550647688 0.8575055846013231 -0.1810753394501978 0.6753400974107401
Ni 7.7431814753863435 5.884236885013325 4.57022185109841 1.9400243476863748 1.148063381755081 -1.2079636576551391
Ni 9.140101916149584 2.755380663548472 0.3880915552677457 -1.7333369640950278 -1.0341105469849932 0.8966218338764945
Ni 0.9296023224870869 8.592882021668451 10.0731703949635 2.9650804977785836 -0.4321870147931911 -0.01936889144491503
Ni 0.23924094539858998 7.514138385418775 12.097790199133991 -0.19972277934805602 -0.24669323456032352 -0.141744145950743
Ni 7.249282061806383 6.533407470811682 12.84506266815247 0.48097626838175234 -0.6110005547924058 -0.372580615984468
Ni 4.2584033815830935 2.5664788588020953 0.8678523574427502 -0.8739092227703271 2.565359831044214 -1.588982119994315
Ni 4.792109724468476 0.8351179845223212 6.994230725423981 0.22196127903128227 -0.8278684784611806 -0.6083122093269653
Ni 5.89254934458597 4.11354368107524 9.057496500859022 0.19569231803242426 -1.1163940756762578 1.6199482293585261
Ni 9.265801165150886 1.9054386379938633 4.271396823976533 -0.5088477979810399 -1.3637694239052707 -0.8929394999289009
P 2.098575617673341 6.443001346252892 10.76466858216562 -0.18753035104692217 1.843535731139322 -1.7509536487355262
P 3.3121204139647564 5.399207190865628 0.2848628813391317 1.085258787724034 0.422407309698608 0.6053251016741833
P 4.934666084223239 2.2001176517601766 5.225547372046252 -1.4044805284713877 -0.7346076248228058 0.8056181517034126
P 2.7083107807393545 0.22476054794640077 1.4680370152813333 -0.17778329896248737 -0.5541763467145101 -0.47680696749541107
P 1.1446117516565948 1.9239303776688734 6.07933820569796 -0.7391343090485657 -0.7921735961627324 1.2987230850278988
P 2.2959849229432288 4.890048144796444 6.5206211433327335 -0.03894192848083616 0.6041825034293078 -1.3518685587026265
P 1.55632462360714 3.142787717955319 10.762072679986229 0.3737993188829175 1.2473527009757228 1.906201228489343
P 8.794517214207113 5.932430575206007 7.541665164951068 -1.3333391324398713 -1.6485769488388122 1.102447383688179
