# total energy = -381163.81095355307 ev
CRYSTAL
PRIMVEC
9.29555696140277 0.00000000000000 0.00000000000000

0.00000000000000 9.29555696140277 0.00000000000000

0.00000000000000 0.00000000000000 13.60498722232041

PRIMCOORD
 96 1
Ni 6.872976825056887 1.134894554745234 9.994074424849954 0.45933786417637024 -1.0223006988342587 -0.7443065972781245
Ni 2.401990521216135 2.3460870413878294 9.440827040358235 -0.5307772510642795 -0.20846041633137002 0.4636190080502274
Ni 8.920713668810977 0.2661039103832567 6.430628224302387 0.17824172665614466 0.5651508434481427 0.2452323337440809
Ni 0.5928994420081147 6.757033342533033 11.122988218218147 0.7198029557098055 -1.7606989010477483 -0.9874370541878541
Ni 7.735604515124523 5.431635642526526 3.032537898650359 0.19549537153026975 1.9488316615653596 -0.6515489085284134
Ni 3.090122015185176 7.897458753696265 1.7778728805622968 0.8706994575837779 -0.2559265802331334 -0.9438843664078841
Ni 1.2370248395595995 3.3638761689835794 3.7612073167183757 0.5131623661959936 -0.0018848757275386895 -1.3973164066227808
Ni 6.738107588470774 9.080662318196689 7.350107541012843 0.6394981480114664 -1.1374773787091186 -0.2757914374778605
Ni 3.957741419364518 3.9521083118194644 10.295641814763137 -1.2863820469640426 0.9735358707257299 -0.8448662985707578
Ni 3.1809117204533934 2.8388724048959717 6.833962442751036 -0.18540070629842909 1.5368835995268626 1.0396299341413258
Ni 3.328097570071184 2.471688607639919 2.055550688972528 0.3773147882353437 2.046673192595881 -0.05510876804868573
Ni 4.349037891491642 6.739241646425388 13.09832382757139 -0.16140665737667684 0.26987352933152875 2.2992051453251694
Ni 0.9990864669016115 7.590844805885047 6.431540118444581 -0.6642869249203721 0.17834637055480898 -1.626164128361251
Ni 9.010425089466612 3.9034832531261046 2.122677624328718 0.4995625160243719 -3.153662687128788 0.7454340260143484
Ni 7.07880834381947 0.895427062959917 4.964432581451952 -1.041208077261723 -0.6304460651115271 1.1813555681493075
Ni 0.8699981372169319 4.448593307015612 9.189856296779183 -0.38583799521500645 0.3890873553902396 1.7414842757925102
Ni 5.507784845511807 8.749154868725975 2.501045835773234 -1.4272723295549226 -0.08426070702229359 -2.6242488920709386
Ni 7.359413323130587 0.9789058126436714 12.338213117489529 -0.3296254525791807 -0.21605236974601502 -0.38589121705044505
Ni 0.7816447974397348 2.726089411753831 7.5810249794649245 -0.5903232289487124 -0.06964912775670586 -1.1668501754442806
Ni -0.02264862464277797 2.001324127627931 11.047998171191395 0.9905362619384683 -0.3550703750148466 1.4812662672728747
Ni 7.155598940238098 2.0173589634616236 7.638601659554137 1.0035370450735104 -0.41712446403311393 -0.9164378401611571
Ni 7.172526149544274 0.026490478352960665 0.8421068184233118 1.3865188017866446 -0.8903306015511441 0.9580056363006145
Ni 5.842666582175348 2.70206969245281 5.480769168188061 -0.23020629264889386 1.5838036611171693 1.151818477922139
Ni 1.673878836568421 5.469152510598865 7.325142463564409 -0.11008126762982332 -0.266748867659618 -0.9350618830202476
P 8.076937368349562 8.124140206821151 9.45688139686164 0.762524405837732 0.9603322275512622 -1.9774665516932328
Ni 0.8355404369549521 5.821956081168121 4.3892681326537515 -0.025843700535981295 -0.3333296409036453 0.27266471892342076
P 1.4844260892487173 3.8572750392540547 5.688000597835603 0.3243582906429704 0.9158344022492033 1.6855602109313808
Ni 8.38829205023335 2.8983267875002023 5.224669136253628 1.0617275373713133 0.1460725981227678 0.3172874998391181
P 3.011964971886806 0.6990714350082714 1.050451855800057 -0.6101515765285492 -1.290729525299461 -0.8949225917972008
P 6.43017367156484 4.060494506498221 11.180728500110646 0.9714085399700818 -0.5187612004400097 -0.7775483900503899
P 6.455652793315653 8.153625713641135 12.73702969523373 0.11327226376329524 -0.513339000983174 0.2842107718898073
Ni 6.781071652948064 3.4695666521308755 3.4500617848672013 0.2009592228583184 -0.10162285244982498 -0.2254086141499344
Ni 0.616544550361833 5.984897899909453 1.6373742546539316 0.5428868898436199 -0.6942351345430302 0.271911385697164
Ni 5.075327646966369 2.193249493110975 11.270793151932473 0.5084760164639178 -0.6108884546945738 1.1411417149345833
Ni 2.8474243173406077 7.659817838862439 11.768803548033146 -0.16719729591652494 -1.1739893575922233 -1.8300482381758485
Ni 5.453312881462278 4.209641718644075 1.6414550041791436 0.8483077201521392 -0.7577092438372757 0.16855715237852906
Ni 3.759764646271194 3.2529058094574217 4.295394161571262 -0.545156659714403 -0.7386817948921794 0.9283081092361819
Ni 5.5438144244633385 5.142181292946611 4.899087604373628 0.6213777842616719 -0.39337389858073546 -2.2709032130566826
Ni 8.868054338377432 0.03186702852467533 4.0322871387664305 2.3953325218780614 -0.10119964886947733 0.5046962377065115
Ni 3.3531583917567698 4.4106767299920575 12.40148983313423 -0.2348183374996085 2.3757268318319924 0.835347046226413
Ni 8.139728855918602 3.1000310789525476 9.544551513198964 -0.1838503310921737 0.1803469459246055 -0.7858329986566853
Ni 2.606511366441007 0.5716395735818897 7.5746714662519805 -0.22090224163914862 1.506392630026857 -0.8114792384698799
Ni 1.1057436879774312 5.46914321504186 13.01512952193199 1.1298036642139446 -0.39473606903558467 0.42124414262844223
Ni 7.37664728581793 7.0800818351291595 11.071997440267005 -0.658680120256556 -0.44730175894744256 0.6882822593937049
Ni 4.871225101806724 9.162862928792249 8.577821950676194 -1.0575970601427076 0.15666374337505276 0.25751963575186615
Ni 8.262932168463392 6.605320556653789 7.496742164100235 -0.07919280558108296 -0.08406941694709393 0.8774974543422178
Ni 1.0291854804839282 7.952228175569957 2.7923007347450253 2.470081432755178 0.6268496060095204 3.3942829760221547
Ni 7.631066681045852 7.817665692365009 2.9469630008619685 -0.16712813324148634 0.24012792263798002 0.8306948921663823
Ni 1.1265471445547086 1.386404440630579 2.5208277106356576 -1.7281086258165528 -0.00010644367087723603 -0.9150314467319337
Ni 6.140682139756905 7.038130986365418 8.997699471926714 -0.28456686967764544 0.5590421594472437 -1.4162788066578964
Ni 7.741088893757496 4.9687633814606 0.742772637156062 0.4744140417832023 1.1164190153769227 0.6624974371201171
Ni 7.791833339448005 4.156034241396014 7.248274714022638 -0.1761087394735419 1.1223767756222542 0.5413969355616548
Ni 7.823363868809098 5.40149944671619 5.220329040687976 0.9082128811482035 -0.4987832146561861 1.490564404745349
Ni 3.8504428048553505 6.910131166406029 4.0998760633057705 -0.8161874425788265 1.57873036035932 0.4800298453080829
Ni 7.579374088540829 5.336030838729698 9.47922047945615 0.3942920395196306 -0.6863184507991149 0.2941809957286417
Ni 8.27213476989838 6.769833324528972 13.148118267335983 0.7105333574824214 1.3604197907067472 0.5909899159984338
P 1.6616644746637994 3.2719431102037424 11.650508289587018 -0.5312364500888851 -0.3710083864013417 0.316589445330829
Ni 4.74471257096814 7.460335185534298 6.431105086376745 1.5679890626824158 -1.0996538801034415 0.12680449392177517
P 8.015177687608082 1.7466723434748828 3.202954274779443 0.585105946413831 0.9383251271525517 -1.066151377470622
Ni 4.053913252138654 1.1862896894260957 5.511638783446097 -0.26524965740627227 -1.6069698148209872 -1.0577148166674946
P 3.093682213518106 5.257455495366102 0.82365699687971 -0.19569206092210814 0.559186912555224 0.18250127326344698
P 5.8428431977584445 5.404790073895973 6.9015104668395555 1.192681791795404 0.4201604226459603 1.7855223878493314
P 5.0500716185836785 1.653726068981496 7.291484181204862 0.49383975460798174 0.33651678038237526 1.2947291333771571
Ni 6.022656452463923 2.0329847947870947 0.9256236798907868 -0.23426452187866753 0.488387730354475 -0.15668096976623339
Ni 0.26863044277722636 1.1680518065822085 0.11342717524258962 -0.38053123829011243 -1.3515379148360853 -0.6046334749237974
Ni 8.654712009554776 4.723871932162843 11.706057608693433 -0.3906575280908369 -0.43618096644393267 -1.2220044520189213
Ni 2.9730165880356925 7.68730480092634 7.68363398546505 -0.6598620563797991 -0.8672202407859259 -1.1881077992714764
Ni 7.699630709515021 7.652734624424599 5.582751653646047 -0.2641592525555708 1.1445150022821902 -1.2767825762010656
Ni 5.077995471826815 8.392428573100592 10.99208167758328 1.563886353367952 1.2551698830272966 1.336663311717098
Ni 2.464112728680812 0.5509718321368855 12.125267708950988 -0.4126664282617602 1.0116969551764834 -0.21641232418859505
Ni 0.05431115091334244 8.883364120764732 11.208564045562238 -1.0745876811634332 1.6821912944591482 0.22187591840632753
Ni 2.994136093551141 0.5247518544927715 3.397260232411478 1.2161827031308217 -1.5185320936028686 0.9034337145920054
Ni 9.2828592741703 0.7284844364836163 8.706185226914481 -1.3789790417661736 0.21519362129014555 0.5524375096465324
Ni 5.187683044486278 5.8422482821101225 11.293160121197998 0.32422536460953194 0.08922833544021407 -2.3064667119835893
Ni 3.5643348557972496 5.192665463040978 5.767970274749955 -2.110719629453829 -0.21028821356872812 0.9814715806330386
Ni 6.133450196406985 6.806318385773751 1.09483999961052 0.3987397908783391 -0.11258243678512223 -0.16299379935813865
Ni 0.9528224796875314 7.488342698790481 8.755924822892746 -2.799533335870972 -3.624132399552262 -0.5151413442992354
Ni 1.455200858024874 1.3841549158353597 5.280938861027932 0.1866078392326528 0.1520010477920608 -0.013571053816215336
Ni 3.5128002877613125 2.395548700211643 13.175151606218039 0.47441249912130556 -1.5102595691814311 1.0082653037871152
Ni 5.709377590280092 3.2743413639110424 9.077451632807147 0.48220576991347913 -0.14069719274346734 -0.9039980717359076
Ni 5.386515008824066 8.660512437125922 4.613886901679219 0.445783008310071 0.11178050970911717 1.393426070429439
Ni 4.899743870698184 0.16237757843112596 13.441795588463286 -1.0148779240076264 0.4084847860802449 0.034024950795193014
Ni 1.7974446758364069 9.0823448140146 9.626249234160555 3.168598482503014 2.899851867687077 2.8021190943202776
Ni 5.922329505708534 4.747761513665793 13.200769231768225 -1.2542946795111949 -0.6502211908559253 -1.86395903199068
Ni 1.192750101544598 3.15862097475531 0.4987233653229613 1.0377003212187808 1.0201563987977462 -0.7015398957345595
Ni 3.860407641964753 7.209699082007426 9.596849246465016 -0.6286938583071108 -0.5136668166362379 0.3304127243671664
Ni 3.9772992713031208 5.003584538001477 2.9128278564280636 -1.941694536299946 0.747608407957848 -0.4012725846025218
Ni 1.189264267667708 8.07759735289692 13.17430756964198 -1.2220484178829791 0.03336134906926513 1.9604831297613592
P 2.6236337824442892 8.741551103095853 5.496863495586586 0.4046397013025418 -0.44273110885762457 -0.3005840710415082
Ni 7.917128152318928 3.150654682401991 13.21734042124111 0.1711565376745891 -2.1635344592620163 -0.4710754643282725
P 9.008826253661745 7.958958158841605 1.4144426292248788 -1.4502425651978506 0.8288023031293597 -4.3700004277802345
Ni 5.361100955972288 1.6761190658066354 3.246108898175337 -0.46194367723033347 -0.42081682528303654 0.16551630866967626
P 3.772239283771956 0.7238124895328837 10.258582288095447 -0.6403759226307294 0.21158507800328077 0.21994116327745994
P 2.5057847107344027 5.710548830462726 10.102614925774994 -0.8233312527124594 -0.4671617310961632 0.17061454912819005
P 5.919392109694942 6.573827209520716 3.265115523583541 -1.6819709509182261 0.42363912522318004 0.34234804235217164
Ni 4.146906004417065 5.248438805071213 8.202623524170397 -0.2695205168674842 0.0010988894911335915 -0.11617246812922571
