# total energy = -340892.17278329947 ev
CRYSTAL
PRIMVEC
9.06392090109284 0.00000000000000 0.00000000000000

0.00000000000000 9.06392090109284 0.00000000000000

0.00000000000000 0.00000000000000 13.26596443391828

PRIMCOORD
 96 1
Ni 6.923965350833799 1.94948621238799 11.676290509775205 -1.860953412395137 -0.0615007876179586 -1.2292253952473926
Ni 4.66415768219411 0.5020115979647646 6.110316215317932 -0.3137185515409371 -1.0218322438382723 0.14059537705828043
Ni 2.758114842175616 1.6541746089724876 4.967267883061463 0.04483001183049699 -1.0589186071676084 -1.9009672337839132
Ni 3.264071964862359 4.442091622721418 4.860317243251096 0.1365168361135326 -0.15013751222076077 -0.3758842264364043
Ni 4.926821042906731 4.576844933177766 2.791171867706345 0.3144171202698585 -0.03277513754849194 0.204007522766339
Ni 7.0889015175368435 6.058660024316264 2.632869584633017 -0.20146855839456915 -0.6293263496847871 -0.9447963366991922
Ni 5.218670228578618 4.624158599726641 11.37719653221203 0.11270225019243815 -0.4460902551378447 0.08174051170360117
Ni 5.7190983595805305 7.961312957957504 12.76975103775538 -1.2196634625905705 -0.3058520043086668 -2.135637989962064
Ni 1.581808265346774 6.465521300953418 0.24089363574765943 1.3624275651653956 -0.7820735316142531 0.23065237904737695
Ni 2.7654475540986123 1.4576234865371671 0.2445899026477804 0.40362925776015646 0.030180380238122216 1.3673183175987937
Ni 0.5357311961055937 8.917692560621227 4.782220688898908 -0.636450105213762 0.6203915090890025 -0.5880640006008905
Ni 8.359790107859462 2.307076015584589 1.4209970889974446 0.47902454397202016 0.4904775230039682 0.6035536115960572
Ni 6.950758300703239 0.7314130885366923 4.888613897580394 -0.6538461892030224 -0.00781949604441879 0.2780930890278437
Ni 0.7198892196381788 7.415121090862627 2.2834835361477945 -0.7544557698969845 -0.14386582027943612 1.107186955255693
Ni 7.619702847122143 3.980339241750934 3.8091226843291692 0.11611616096999357 -0.8144583757028618 0.46055502441292295
Ni 7.79841617343329 3.7341903447264473 12.72603937333036 0.09842671411003048 1.140689457888513 0.39363229444844466
Ni 8.100888274276686 -0.23720733916041273 6.96000168712978 -1.6737097393506983 1.335733343703661 0.04941248899485684
Ni 7.1399404555323835 0.5240378318882173 0.4446369793336566 -0.5047929111853757 0.3670848829772194 -0.007310160508168056
Ni 1.9294005639067047 6.5580911240307485 8.879586024815712 0.0369017581223558 0.3420037716388755 1.5087233350425628
Ni 0.20814025156355645 4.704129572899196 1.4007800136646347 -0.8730057371194514 0.47768062834961605 0.9016141448847634
Ni 6.490719000762972 1.8119230864852527 7.185257340330164 0.42563121595254444 0.8525798651649317 -0.3393262248067124
Ni 3.657491446960817 4.218493760634403 0.4851218879557272 0.21271044985697563 0.591158066145182 -0.633147266092774
Ni 5.912894050094231 5.709780649003472 4.900406964926513 -0.2863126487241585 -0.145119233070563 0.08339193126409508
Ni 5.18069240044839 2.8059814078929746 9.663551726120676 0.39288950274514917 1.024444227539823 0.07695337472760296
P 0.046857751332897185 5.416925368123361 12.342998080541951 0.6889690010480843 0.7386738244723795 0.44268817143483113
P 4.194945694409503 6.213290513075617 12.544919576048194 -0.17278558863757987 -1.1438169477739013 0.4885983037033844
P 2.532060657553209 8.238433272337835 1.286863750723461 0.41056018055203486 1.058245492359984 0.7601556484952393
P 6.205694947449572 7.8873694921134945 6.028093764219948 0.08322429533797925 -0.1812254918748169 -0.2701995452123798
P 4.94646255926907 0.9638482733986409 12.488937175651168 -0.4916509744867791 0.2167385971797622 -0.07914781127576047
P 3.957779142892667 6.051544846492344 8.061474721092562 0.2309470274696603 2.0641757202560194 0.03428180400100547
P 4.654785588092284 0.9845412045731778 3.883704250197133 -0.23362817384624926 0.274562707277082 -0.5120385370041955
P 9.010271447619353 5.823623494186208 3.6342370517696687 1.4938369048490339 -1.7027274667392869 -1.0661547199047317
Ni 1.288082848070362 1.1061427659562655 2.5346610964292386 0.24781680664180544 0.39340526603930315 0.22768506888893691
Ni 1.6246624828646061 6.480340811452922 4.852331929030874 0.48474910516062325 -0.056293789495722404 -1.0876036338071269
Ni 5.812293593192703 5.416698770103491 9.119567830131412 0.28590307199056564 -0.001969979242177252 0.24714600582702598
Ni 9.03847836913278 2.0055284346622617 10.326902927017107 -0.6072166622699414 1.0353827288291975 -0.36604230064531795
Ni 2.0441316733273314 5.1807467839731585 6.901524895730024 1.0851333178897635 0.4643733697177487 0.04894969042582538
Ni 0.7521794374696672 8.969084991527764 9.177247902893306 -0.8534949207800332 0.06794551480203781 -0.5033368954651396
Ni 1.895845929124341 1.006484956817398 11.362325357363995 -1.2362326798031613 -0.051238743570318206 1.418963295468595
Ni 4.27548769459213 6.721821789268084 1.5487612101289194 -0.21686380990371681 0.746081172680044 -0.3118190205253791
Ni 5.477934618993185 7.9607328670266355 8.155543716669355 0.004293742279347444 -0.1678477850163303 0.23127355757114365
Ni 5.112060392190135 2.8330190836238742 5.022228779584915 0.5446812627398813 0.12003426507747715 -0.18373026057454164
Ni 0.7588350745092917 7.5273414942230925 6.933031990804841 0.8578570544034709 -0.9156364273057844 0.2449533690510814
Ni 4.881583014219864 4.514920226307667 6.881957703518201 0.16382503701018236 0.01568475772510847 0.024584374207583467
Ni 7.996888847077108 7.306227146433853 8.912538815257301 0.20278213499967013 0.895391303903503 0.9463770509227508
Ni 4.49468049117287 0.3910184494799152 10.319235756416784 -0.1274056178408838 -0.8415138371587572 0.9769778065277434
Ni 7.822743736846544 7.161503523103222 4.660359899381088 0.1785767413980602 2.0394247385635844 1.0784782744670909
Ni 7.034644887659148 6.108629419658018 7.112745973971734 -0.27646120985137546 -0.38125654649191115 -0.6485337758511733
Ni 2.4243087671445815 5.361173191314523 2.389611171949993 -0.266692817610702 0.13353538488770553 1.1373470237788412
Ni 2.599142735355552 5.279289730854266 11.325472361804405 -0.31656219163731936 0.14122015512647293 0.5003148208093642
Ni 1.1073210756595901 3.516746884859104 3.854120519114973 -0.6014545629751835 -0.05269527351118666 -0.6057259366570277
Ni 3.7549557872673427 2.584812676578967 2.45241235996095 0.061064214301172245 -0.8932701437954422 0.6976511022031147
Ni 1.111898355660966 3.3945289768619697 8.132580273335718 -0.3545903500546345 -0.4465329991022181 0.9708999757647794
Ni 3.4796391931251773 2.6267876937797032 7.0627330718101655 0.47269165977545685 0.6722995108122035 0.33287327009251705
Ni 3.794882358368453 6.8229660814173005 5.997847460527688 0.8401398396293661 0.7331446671240341 0.3372847688966514
Ni 0.874013035225102 7.437463655621818 11.519805542821235 -0.9680414232700619 -0.16153572675537342 -0.934124973028275
P 0.029035363874074478 5.7039253561700285 8.007933234565577 0.8032380815070103 -0.29238636572206417 0.08873005564755687
P 8.643672107152717 1.6258951760926998 8.129621809588295 -0.953015639285191 -0.37866616005691556 0.1748077612739312
P 1.7963603344805747 3.3425383271829747 10.449321147663808 1.8365292179145014 -1.3501685452923846 0.3088051733997198
P 4.043378810878794 6.285584345334972 3.853722612992081 -0.591628320913381 -0.11324912383484367 -0.6318771411310989
P 7.10227080070918 3.75251759257354 10.316038005160376 -0.709568936686623 0.3124016325017265 1.6282534067901122
P 6.328393243248831 7.705429409999398 10.334902743510602 0.0684569072208176 1.694765788690049 -0.6839373521614479
P 2.3564925117578595 8.473261332289612 5.798990476642169 0.48481801072534564 1.2518529028389216 0.6706666031944707
P 6.700820684786524 3.954171702416335 1.7186054899423502 1.10066612341804 0.8694851255607026 -0.6003173640469468
Ni 5.60407720469447 2.5810058298451497 0.4453983486804201 -0.6287041427197559 0.6395511127365888 -0.3176220003604014
Ni 1.4692071773129263 1.2800612781669607 7.007400554534127 -0.4550734324730614 -1.835492034899239 0.21371806518588354
Ni 6.736396573906129 0.8874521105875575 9.42106374670521 0.9765389192181118 -0.9345854576044614 -0.16090169271580032
Ni 2.6800472923699705 1.6596038975285752 9.34527486658738 -0.06703328740041359 1.0434158835463192 -1.3595798113039552
Ni 6.241542754193021 2.004893960206626 2.6998891213818754 0.4071074461167441 0.04542650776391531 0.865635155686993
Ni 4.304238451353247 6.894126923577304 10.381505798669165 -0.601679534501796 0.3106357988505553 -0.42075254770400444
Ni 8.042199387130331 7.139895135928409 0.15188049519020927 0.9908440229868742 0.04077306815230397 0.35611604267054153
Ni 7.826314921639695 3.968157332202717 8.376554735761532 -0.7867259427846 -0.7514475791982801 -1.6259234731053545
Ni 3.255823796939087 8.26223512834499 12.370551493366076 0.3470945558982216 -0.33335946570031627 0.4006025551186907
Ni 0.43977237304308536 4.85893227615365 10.109314444417047 -1.3185110662881034 0.9072548881103085 0.24184284844655768
Ni 8.684332855838207 2.498632917661973 5.912308520810886 -0.8083334937520467 0.2360511814654451 0.06718086872187139
Ni 3.6994664641615533 2.7461142110432957 11.615638377384697 -0.11116884426704725 -0.004236149568534639 -0.041911809742437495
Ni 1.3360128612332847 3.560126809783035 12.784118258607224 -0.07702587983675122 -0.43617865245108756 -0.7326857252097445
Ni 3.0710467076162167 8.63290416924849 8.044056584501188 0.2650079737091113 -0.432018607536127 -0.27499053884311997
Ni 5.696792050504518 8.09362807372005 3.539147458711382 -0.8120631359978078 -0.474399386495183 0.5561818071803131
Ni 2.762737441780966 8.245738792498447 3.5880980693557993 1.421031233741217 0.2715300910983453 -0.46567306236577866
Ni 3.330021052565351 4.399844687896838 9.092823825434266 -0.05633081338124492 -1.7289126097750869 0.6951329637669512
Ni 7.4704835190772885 6.0891238621076 11.046382457435362 0.0396536098358801 -1.2168583890416074 0.7665782641921314
Ni 0.7290474052092486 8.902546748973108 0.35728253628165546 -0.7498187853456054 0.8966976814197525 -0.770876120236537
Ni 4.705480097097622 0.36949254398433573 1.5994774725441645 -0.4405940079099638 -0.8350889074690199 -0.3279526928624481
Ni 6.22633349509934 5.597496798197443 0.06506807460173748 -0.40722931640658905 -0.6168618986691892 1.323664842574901
Ni 7.8409622176440985 8.880838658669553 11.602014398038026 0.9269225417425649 -1.435657211184508 -1.4699734679678749
Ni -0.1289007367991432 5.197841338592159 5.842662259815692 -0.7936051864029365 -1.2674610416898238 -0.2887847644137349
Ni 7.8508509552312296 0.046732669225928884 2.5704527068637595 0.6829706173728044 -0.9679866587727264 0.7868850940702836
P 8.553458903482035 1.7121565102968475 3.8213136577981803 0.5348437078241692 0.31655139300404195 -1.0228303460854835
P 1.949576851595938 3.304279517508108 1.656162326802788 -0.7716294534627937 -0.46173567498458545 -0.1608584981826907
P 4.628137660955561 1.3069086115611699 8.305315943882693 0.48788225147296616 -1.5646535705512796 -0.5933895265788619
P 8.945908546055449 1.6261580297957487 12.602586052928896 0.11763825404147482 -0.1157376945846523 -0.04370078332206022
P 6.310745789461348 7.648236069784185 1.4578763699273423 1.001228708655308 0.809337766646845 0.7850986915938221
P 1.670788775789363 3.2515093706407607 5.979725963682636 0.14641764016701236 0.6071012197379997 -0.5772964776717412
P 6.7952939312307645 3.803529338806696 6.1233700740466075 0.4664513352926999 0.8626884143538432 -0.5217441943277338
P 2.397851182344549 8.267646289059487 10.297028244077433 1.2625800594484384 -0.05378953501662995 -0.7484177912330208
