# total energy = -340897.31235478807 ev
CRYSTAL
PRIMVEC
9.01706136037788 0.00000000000000 0.00000000000000
0.00000000000000 9.01706136037788 0.00000000000000
0.00000000000000 0.00000000000000 13.19738075945002
PRIMCOORD
 96 1
Ni 6.343664787185748 2.003086019809857 11.356160682502773 0.4344333876252066 -0.09419904918192809 0.4222754121064341
Ni 4.550333642559632 0.1527589337105696 6.0541531049137225 0.2073568988545461 0.4673741042172854 -0.7341977909788969
Ni 2.8381019454187957 1.624540777995369 4.655824240305939 0.19114275098852887 -0.43089554967527727 1.0038872293240775
Ni 3.440612950702192 4.444311038208741 4.86487127619375 -0.33895804283401626 -0.0005149919632055647 -0.10654960032748102
Ni 5.284863439329794 4.4354833353970795 2.450885897655692 -1.0630195167098597 0.5679134937949446 1.3811930186983568
Ni 7.296154984735783 6.078563191003048 2.575627019132966 -0.33331472850530985 -0.2396831217910775 -0.8455139594570857
Ni 4.999897257555581 4.601748924921324 11.425988803619742 0.08969216245051004 -0.9827311640717526 -0.4509254717429589
Ni 5.84699604503135 7.98075731422487 12.383589871398224 -1.2822130031880175 0.022673273227799662 0.3969135363028777
Ni 1.922879261372948 6.323493621517017 0.2045781804093023 0.35786490704084817 1.5489346171541258 1.313547551635241
Ni 2.720149769239683 1.5060295440283884 0.39706718700900784 -0.4772371130542942 0.01211992319198558 0.47530981412459433
Ni 0.4338117109697053 0.10363759169135602 4.889550070703697 -0.12553668295294507 0.30617776307920175 -0.24180608167135131
Ni 8.658515694343118 2.228350240076395 1.2925569345553236 0.970323020215387 1.587870117877059 0.5072832817073973
Ni 6.912605274013765 0.7833445587121578 4.983924435532519 -0.6583908711509112 -0.3604984880089533 -0.791554988742127
Ni 0.7202386566412521 7.320573186180094 2.4199510661582777 0.8592534205303654 -0.5882426922705998 -0.6318030933600539
Ni 7.538326194554789 3.805867044463166 3.9021223682363324 0.7113453118607556 0.5541624627574392 -0.6100993831343752
Ni 7.658415414213334 3.8722326141197874 12.426178352654363 0.4076674323852721 -0.7097501994594938 0.14433813193016434
Ni 7.836213824877635 8.749380618993904 7.057074823460023 -0.22242407760031369 0.2837240620613759 -0.035262679857036044
Ni 6.955156785319416 0.9052317803529752 0.49336939949986636 -0.9047886859580031 -1.0399865461497961 -0.9198872321623383
Ni 1.7476687472428103 6.533293582006231 9.272875117904885 1.033112187627466 -0.28400534074722056 -0.8752819347481378
Ni 0.15655601813752656 4.9780579355843395 1.2928995828769203 -0.5588786372861858 -0.7828358637015744 0.45087096435593965
Ni 6.354918079431871 2.0394157589602004 7.029202185910351 0.3116256735676504 -0.2885736768441933 0.5500697807453042
Ni 3.475220431183457 4.424843203305393 0.5671073183074734 -0.24065268479319846 -0.15823288763438556 -0.5446267553528621
Ni 5.98751792513037 5.633021185255314 4.633032716683102 -0.05565744146330415 -0.15629093341666633 0.9845543333234203
Ni 5.250319078276192 2.649519129685292 9.219518462289514 0.6272314148289714 0.24011378157059296 0.3335993496252642
P 0.1820770061537135 5.500551540713815 12.333216059592964 0.31726333146940194 0.43791440419527167 -0.3843482980433574
P 4.076613320891117 6.264774519668658 12.536072883039298 -0.49910845920608876 -0.299610137164013 0.2954855734726782
P 2.426328833470523 8.383675672178196 1.3806175532056721 -0.18236783300937626 0.28170883140355996 -0.34001913710867887
P 6.329273557678688 7.719334678968787 5.840606555539681 -0.5441364459800049 -0.2544592516589876 -0.08741416504961075
P 4.744795582126847 1.1852385785251316 12.591079660834987 -0.25361233027766 -1.1467567471285154 0.3038455154015993
P 3.8195910114492224 6.010412243249687 8.172108367714431 -0.12999728982745998 0.5526570818565063 -0.003872338471212685
P 4.964126576193106 0.9307500632508339 3.80744412844862 -1.0863777318198258 0.9914646872900086 0.5468106503780583
P 0.128784371672115 5.501128632623872 3.570287306304349 1.0657497711568291 -0.3315517230676161 0.31664395271784823
Ni 1.1905135592655018 0.8331466888440174 2.623243413655483 0.9187027249359341 1.1910421993094518 -0.2729118019372203
Ni 1.8527265260565737 6.594853058099405 4.594100653700843 -0.14201693999615542 -0.26090706416686027 0.7683083595093607
Ni 5.8445524214747 5.413654122944676 9.232439009132039 -0.04305466509762908 0.600065653047457 -0.2968652274290242
Ni 8.503160748743399 2.435886918230852 10.22119943322919 1.3128705801728744 -0.2494851954831639 -0.7955728516522685
Ni 2.1553210622708274 5.188038237295447 6.9568537962174295 1.2511381361600842 0.32195636606969713 0.458245659553456
Ni 0.6270797916479884 0.056243016871767866 8.93623666752778 0.0677231143785866 -0.48743822195701214 0.7557564909862791
Ni 1.4519542286437743 1.0845991596477467 11.367682683169518 0.19920855871579884 0.2389783824145691 -0.3057794991995185
Ni 4.285024653971755 7.019628772146162 1.5564331121352613 -0.17169595511782687 -0.49100871291708986 -0.22580764936056594
Ni 5.5447261230165035 7.603618733941148 8.076268730457727 -0.726182119763272 0.8520268208749391 -0.21141641363590044
Ni 5.155703056210032 2.886226000480941 5.061155563808192 0.6799835097200224 -0.6287339675164269 -1.267343799385669
Ni 0.6151186601059357 7.314712096468572 6.8630998051919185 0.8917076844043289 0.5839949727378394 -0.49549580215416594
Ni 5.104089398504258 4.609115863835654 7.051492360936325 -0.3467407721032286 -0.6541966305639056 -0.4053966340732244
Ni 8.2694024569257 7.1999790111002495 9.193426694306035 -1.0098573308645833 0.17140284935744027 0.2947438102106472
Ni 4.603624473629012 0.4134890586745838 10.546911008971797 -0.34212384215650754 -0.7200340978840051 -1.097457386672755
Ni 8.169168805797575 7.077238775479878 4.7511625289657795 -0.21459326870198528 0.3983986054888365 0.16645116177911978
Ni 7.198202650064603 6.0618275256113785 7.026931689926718 0.17528650068256263 0.04647346097119093 -0.3761084266320684
Ni 2.3292962390309984 5.214043441492416 2.546170985655074 0.16171673241792794 0.3550734603386401 0.5559367810490425
Ni 2.3743815445042467 5.154530838267728 11.423282783585236 -0.4566122377150911 -0.8839959175823678 -1.1541211579133865
Ni 1.2279343628082977 3.298882784416488 3.8478937628131096 -1.0123854966030759 0.3274220171699587 -0.15248441518638253
Ni 3.6929193371915843 2.539411796658525 2.5871751692768843 0.009388640303751573 0.4880660853489981 0.16563277964288248
Ni 0.9875304969638429 3.3831201691627055 8.149434967591933 -0.1926923548638359 -0.20733838691178488 0.23171450176330416
Ni 3.7269948110682654 2.531323492856624 7.004416990079488 -0.02676724079151519 0.19768106632767887 0.13666313188340978
Ni 4.002691454037179 6.761488347128531 5.979825470310526 0.2463546202739822 0.14104763410435064 -0.026785495623960317
Ni 0.7980685177736113 7.401898060192739 11.330664040551543 0.5979794599423895 -0.4706100946560798 0.27459253207375295
P 0.17605811787303488 5.614058305773265 7.9942738888057505 0.04929781779386349 -1.120155085380587 0.2986467448094792
P 8.494287960626263 1.597850277155206 8.001809446762548 -0.8438620256759596 1.196341242924862 -0.17196823494260705
P 1.7956395122663467 3.1628423836815087 10.280943774924012 -0.683945322581248 0.8876437987476004 0.9041484812708429
P 4.09003972486105 6.189328769489724 3.701535139067522 -0.9927427826714839 -0.20349484479597857 -0.5482406979563654
P 6.905094062121922 3.8823497566679848 10.282620046581506 -1.1240194534319994 0.4531744156781357 0.6765125204522865
P 6.320481923111404 7.6631223201047405 10.170851770901104 -0.2913610097813434 -0.04658813217218428 0.22223715840048822
P 2.2804778702645647 8.488697382747581 5.821113472865267 0.6662767016568912 -0.3273009182110621 -0.8644881865667434
P 7.027230154648951 3.953566505193528 1.3611253722373682 0.8874306542955297 -0.15403324773074117 0.9477816445797613
Ni 5.254367738707689 2.9290119553750533 0.5056894100734861 0.21527101149530023 -0.32140717843444644 -0.4038069209886013
Ni 1.418888665609694 1.1872493831492386 6.930538405118804 0.3431952208438154 0.14719925552804328 -0.24205702133989276
Ni 6.905761324642925 0.5993694611980206 9.237031398347543 -0.6539150947677448 -0.05336710276723067 -0.0865376759819284
Ni 2.624063966215096 1.6046311070983825 9.1040811444497 0.7886383293159643 -0.9461906459435575 0.1946294239855487
Ni 6.478009980434934 2.064618444719746 2.606891875066445 -0.38402125372124185 -0.18953529729209292 -0.06263875787714374
Ni 4.052411528913077 6.634645348710094 10.308038240101215 0.05009306000164921 1.7529974186384325 -0.03277822287228548
Ni 7.969657312017357 7.121449426026945 0.22266911008349796 1.141461817278163 -0.31811796616021343 -0.15499509742337825
Ni 7.597442047091312 3.9874886890315997 8.231813034340435 0.24847063817572043 -0.900981653507087 -0.8870596441093561
Ni 3.2412998322660553 8.34932066940758 12.404033352312013 -0.05655655623880583 -0.1718147400838783 -0.032753283171621
Ni -0.07566396305742433 5.009807007698601 10.135390374734175 0.7291021216235444 -1.110472053764868 0.4311500888882446
Ni 8.591690254570668 2.517635594114946 5.884619732448775 0.24116999074924916 -0.21738805783830306 -0.06421612966659264
Ni 3.5303417256550507 2.757399248621681 11.57320494987543 -0.013970089026846906 -0.04071444700022666 -0.21968019630658941
Ni 1.13122638256818 3.366691083848254 12.720875746761923 0.4194963066994001 -0.031092350529430324 -0.46134666707628286
Ni 2.991752666471626 8.417669992505026 7.890620968110533 0.24695522997245856 -0.7376343274642715 0.6352216321232995
Ni 5.700162222166075 7.803941763219885 3.586401696186597 -0.3693402546702994 0.7021353632267134 0.15566589823815774
Ni 2.9534301568193646 8.497191454298742 3.5671196127417986 1.5174051790872771 -0.6715670035215531 -0.12474658295148193
Ni 3.4668435814265277 4.045603647786617 9.139330639680903 -0.6955420262799119 1.1361784573920366 0.007114756667910328
Ni 7.067716758963928 5.984812806801975 11.373476144922831 0.5170107934078063 0.5753511810199124 -0.48848003295796516
Ni 0.5507801257833913 8.985429244329643 0.2449114946856703 0.23348213518668823 -0.1847597302803205 0.25733271655204065
Ni 4.645806285429783 0.4875948735748527 1.6188302732041273 0.19191279638533398 -0.723098852852258 -0.14105663296541512
Ni 5.935579653225188 5.463644709653414 0.2539664274369175 -0.03411596784710254 1.1037468192258928 0.6716680478757917
Ni 7.950784603146254 8.688299047138745 11.42342795826886 -0.3176022028660595 1.2162348965249958 -0.22057005511071043
Ni 9.18676218445098 4.937517228902795 5.8055148588776335 -0.9493279060209585 -0.59697261594443 -0.8366775921123785
Ni 8.0762660253394 8.776431802277852 2.750875404919702 -1.8535910584927946 0.43328847538748605 -0.21224533729509898
P 8.401727828489685 1.775892148469064 3.5810302328925143 0.8107629291291456 -0.43821342349292913 0.9494034964539004
P 1.821491426424707 3.2378282637446154 1.688643967023343 0.11143855298866615 -0.5085554635516016 -0.8690984316452451
P 4.656635775804458 0.877080515615479 8.179749425286037 0.8087232729912976 -0.07157848356893479 -0.03867736196553984
P 8.569066448284193 1.7076961154102284 12.28999458064798 -0.5680245654515121 -0.9339341971737076 0.6626576168470651
P 6.467342797159964 7.9151491777002 1.4396098720051989 -0.7685901524158376 0.1756017179301363 0.4256458712405637
P 1.8914367693359047 3.1583518872563734 6.002986693438242 -0.40019246416446563 0.4332267689116152 -0.28622137456193286
P 6.902361892610243 4.0179573384704215 5.948389290216247 -0.13087763554988427 0.10728930670698297 0.681422299049078
P 2.390017128442369 8.475568541793772 10.122139803455587 0.45927538636955095 0.1326871779547973 0.7811381642841773
