# total energy = -381170.9070027249 ev
CRYSTAL
PRIMVEC
9.23204284903141 0.00000000000000 0.00000000000000
0.00000000000000 9.23204284903141 0.00000000000000
0.00000000000000 0.00000000000000 13.51202789874775
PRIMCOORD
 96 1
Ni 6.6224398978141625 7.338107874258199 3.8360782133962594 0.8992626139334513 1.669150145004474 0.43694381275188626
Ni 6.0948471021766 5.672398044719135 6.654809287120252 1.4987595389616317 0.6979958871370431 -0.6440855102718327
Ni 1.7866957535754302 5.567568196002391 5.515285289859487 -1.1105543290660294 0.2329751136432826 0.15829845076499835
Ni 8.74439729437934 2.8566618457572486 12.440200153011908 -0.2671296480378044 0.9516904927158643 -1.6616240118307577
Ni 0.8626180983254909 8.317332215401983 6.867340149939115 -0.3388166321601455 -0.737323223981756 1.5696068007914967
Ni 4.336281383743391 4.733970101768156 7.939545935762383 -0.8580419167207675 -0.1784114194647895 2.9508939218655565
Ni 7.896849583111992 0.912822871580139 -0.06740129982485325 0.3581919513629637 -0.37148712580997306 1.7548247016551586
Ni 6.558701872667495 3.4409486177021225 11.832415061917875 -0.810113725580921 1.8894710602188556 -0.1783276015017316
Ni 0.9567997086001488 5.230017006338777 3.22614574909117 -0.10030721896219501 -1.5524002071052232 -1.4350357755504253
Ni 2.2614812630254293 7.870298227329574 5.200212278589139 0.6688822576005383 0.2114660359269132 -0.7472345695581969
Ni 8.336867218474165 8.475329399984842 8.820287457779274 -0.07693871943958362 2.1347728137482913 0.07340190993091875
Ni 7.158119963154576 3.5510130348224243 5.494450415127303 -1.3464322181784036 0.9939164912646109 0.3222065344072903
Ni 6.273339422307779 5.264397134618933 0.1901293103828266 0.41873011795733694 -0.4770908172844171 0.29004743317624243
Ni 7.072058857937711 6.500281504311744 8.883915621613768 0.44035618086754486 -3.108714661663188 1.3691671978820743
Ni 2.0920640412023577 3.196991880375837 12.289581217226445 -0.926178721598005 -0.28334019635939584 2.3119819853748633
Ni 0.9771009712446334 1.0472737303900297 8.421561058116838 0.3495815839861334 0.29493407184458237 0.564649221221376
Ni 8.283570634005494 2.171487307473617 9.121997086749534 -1.2453510971646617 -1.189468684174745 -0.3392956286790931
Ni 1.9009330541497145 7.868581067324174 9.595918476971011 0.00945831719942242 0.9543207312498595 -0.8949642436684134
Ni 1.4762683063627013 6.856416796614442 11.781178146251378 0.6781459422906514 1.8051357912048847 0.9980924770191713
Ni 5.227976724826984 2.724117403835073 3.9424313492145684 1.0129794214333327 -1.0630925360396402 0.04092810567292951
Ni 2.6845765634956793 0.6141044245547679 6.944317848009135 0.15856173172871404 -0.5638946024435385 -0.5045993071173309
Ni 3.0854318722830896 3.6724790250968598 10.343173888675668 1.8688829516548588 -1.080711277562668 -1.5127571387923044
Ni 4.111564224112015 6.08929864430969 0.18108560102105445 -0.862571686270321 -0.01272130422141035 -0.5993213186822646
Ni 0.09810061254504618 0.3665231871310629 2.0737855191878896 -1.5122963971058019 -1.0355033135674616 0.4037480427262079
P 5.755966498315257 2.1245977608745554 -0.0490886192511382 0.12337232831177464 0.23257196466759303 -0.03616667972854416
Ni 6.22762234517477 1.5221700243565062 7.235772523570804 -0.6476135780297492 0.7236395558470763 2.474442280827035
P 2.3749153758552524 3.838369606478734 1.7206487944645132 -0.1638576900203307 0.1055440418811021 0.7458474594026832
Ni 4.648536775477997 3.3956285184198243 1.6244158242264153 0.4793554449488777 1.031078702137205 0.19464253661167122
P 4.142685441199125 1.4526527402669345 5.654418640899157 0.5364807292069599 -1.1042055040298662 -1.148175481852913
P 3.0014572087932168 5.24999514747687 11.813431211815166 -0.8561387861607836 1.5825116817786231 -0.03186959501508705
P 2.130136986698426 9.269709775386076 3.5245447674273644 0.07951085104213403 -0.02033099824786821 -0.6003104220684112
Ni 0.6784526877463646 4.842400447270417 11.317675116600299 0.468185030154355 -0.769860534487829 -0.33663813645158797
Ni 0.8686567776778134 1.9569438592720825 0.44360428408312946 -0.6196903692569199 -0.6085171262489197 0.5995295780383288
Ni 7.8682671778608215 8.002131801937686 12.407851997404812 -1.21709467342213 -0.6911649802581387 -0.8394063038974512
Ni 2.1371994996238604 5.506193573873908 9.491375744792803 0.8336696585239901 1.8409499726900165 2.282001894073005
Ni 3.412643173742145 2.299314175402463 8.253944084686523 0.5288548372305859 0.871869309522163 0.4940716681131297
Ni 7.317252689031328 2.417059652331865 1.798654018924862 -0.33996437261134355 -1.1488560528597054 0.0224506156940323
Ni 2.1897944488215084 8.882564050512745 1.3120478015667238 1.0211313611165058 -0.11231838449045818 -0.1754677634554333
Ni 1.597226534269948 4.206423466345793 7.912373263483388 -0.8267017118465891 -2.1164130802941807 -1.5068808825171855
Ni 4.904310527895206 3.2429305265418007 6.32273731500075 0.6593789460957935 0.3770743900897635 -0.19140628906256066
Ni 4.797154204332436 9.12397274396005 3.661624912094986 -0.8632769398674618 -0.16658820157761633 1.5351658455048078
Ni 8.167016090628223 4.345901172590846 9.878198348159744 -0.3699390645965629 0.7543416129166235 0.14789319627127434
Ni 4.253553046063889 3.840797633798197 12.703305994011313 1.7834009706309542 0.11523530102693703 0.5796114989581631
Ni 7.50504167650357 4.265240812552255 3.203769123171342 0.37777707258374293 0.8464063893643681 -0.39301111592467797
Ni 3.5936650736662252 8.23039406609634 12.229439072843775 0.8966341751716687 -0.8719279306742403 -0.3545823796348345
Ni 0.7185345258078897 2.4311939102257742 2.7358882587107973 -1.4951360832764315 2.0848862133304933 0.621554161938536
Ni 5.193698149020268 0.979889048242648 1.78226344971203 0.7317542145344108 2.1929764186722167 -0.9204122514278729
Ni 1.3536483107082935 1.3878161019985331 5.144069455251302 -0.6492205175055529 -0.01979903700379816 -0.38806199944951875
Ni 5.821975606049712 7.842205120359512 7.88301167379966 -0.8218161016195138 1.9690032514172287 0.283270519463725
Ni 5.727079435643774 2.6158624671505684 9.553544322622708 -1.047613980788067 -2.8397664723594063 0.6680242804756172
Ni 3.1007755278152103 1.9285183987525882 0.5099411293454956 2.068269687819735 0.04731061216050561 1.2583871044130135
Ni 0.8730466141432306 7.4249352390473655 3.332525657834294 0.04279009858233276 0.8082607315325822 0.050959521767002566
Ni 0.8755965044308189 2.7201291612418865 10.526288692756866 -0.406785544000951 -1.847504743089399 -2.0321695996630678
Ni 0.2626516244818479 6.226302163020081 8.389618189199187 -0.06648152866200165 1.1869682863503945 -0.5606460135992538
Ni 7.014053931518749 1.3030105546350794 11.455632305356698 -0.48874228548041637 -1.5652379822998397 -1.8955715166896385
Ni 8.459745711333687 4.876263581140344 6.982746227162235 1.0611932621343982 0.2966055460097344 -0.6407101660416965
P 6.313406489100441 0.3837150976797482 9.346283109970955 0.8095745652479993 0.7823180435248913 -0.6956433277444665
Ni 5.77465215342778 8.114707334764809 10.782057829152555 0.18122883430892658 1.1842814835468507 -0.051189635499937644
P 5.869816053081871 4.594169274016711 9.640751124380808 0.08276741030621874 2.5218688497401147 0.04700439377399647
Ni 2.859099105119751 2.134623759615761 3.1976215057111497 1.8660768496646316 -1.0288786091620925 0.2794568021445897
P 0.5139653769065374 8.685229130537365 12.992923493008066 0.824941791732689 0.9595213016141927 0.3470696161975571
P 5.898066104783609 5.210758964557788 4.46218521710705 0.08883315688432442 -0.6788375690410373 0.42372551428939925
P 0.13422005773389614 2.82714700415906 6.760108123623418 0.6069184143032322 -0.30667681420280735 0.9086093452556739
Ni 2.8505594653079513 6.318077902878572 2.2109598306945166 0.01810750823398817 -0.07328646739897701 -0.5458459724719438
Ni 1.520896002417016 5.251989268773463 0.21035948629590473 0.8501267756387487 -0.19352282118493122 0.045834541835611385
Ni 8.373186075792676 0.8767597418538317 6.790699421440046 0.4997903157644618 -0.08414937825540993 0.10051470698731077
Ni 4.0917891879207975 1.775986583649281 11.655650980243742 1.1722134966387232 -0.7846991421625582 -0.6117852554772303
Ni 8.419660180454946 6.094367035938532 4.830347091877675 0.3032544187848197 0.003378686664245794 0.1623332829560043
Ni 7.752829711691366 7.58396641245068 6.791185950108242 1.063972367541432 -0.489305357072738 -1.9101375874292716
Ni 0.18749633170788027 3.8351014632426503 4.892732622719013 0.5076494067975644 -0.86251795021425 -0.2999202122052641
Ni 4.574975856537 8.176737431949116 1.3710516350425899 -1.1239772873401546 -1.7992968159256044 -0.1846337462254175
Ni 8.83357883014365 6.948284856903331 10.41112541826569 -0.34585219885068824 -0.32974552309681276 1.438823781837948
Ni 8.222362188651728 5.583779663580251 12.49301851765112 -0.014570184504691037 0.2983310133412733 0.4721933799827997
Ni 6.818953165958999 3.706111357890792 7.838313814218243 -0.5473464682768703 0.2659765082699677 0.7677915677739423
Ni 8.833680382617088 4.035049051398287 0.8838000978759708 -0.3964419959830979 0.867782283936983 1.1847085437819405
Ni 2.183904405362126 0.6730344016863155 12.38223307796941 -1.600371078557547 0.12839189301355305 -0.9262795088419273
Ni 4.311327171406856 6.6936743419091345 4.003343445986758 -1.467738150879453 1.912677580242306 0.8932894270691519
Ni 6.136077406392274 9.244137016165874 5.7494089781441 1.1285715915790564 -0.9692061330021243 -2.2355669996492336
Ni 4.016317236070566 5.368156066343062 5.835358375640182 -0.6330742467629936 0.9747990537088695 0.2897332443699333
Ni 4.196157434485554 6.784185291871173 9.469161602830475 0.2190651884304098 -1.063122360836311 -0.045101006103696516
Ni 5.573218206342739 5.916714831723973 2.3765088264839194 0.2564117473996681 -1.211510751576449 -1.8890383435568112
Ni 4.244182522378508 8.266038984272944 6.39941774128489 -1.1046330784855878 -1.2568187314846289 -0.5459850691529694
Ni 7.9428066933640356 1.7486135760363222 4.504694159283734 0.4012584435351348 0.5778433513141468 -0.858196954241393
Ni 5.955812533997457 5.918478151944571 11.325849167507723 0.3764192730042678 -0.7338998001225038 0.35125177259970475
Ni 0.4183952673586959 0.2146006868683814 10.769924154985368 -0.5801784272052267 -0.1179933233880484 0.09485699448090115
Ni 2.505142574974442 3.247814277309846 5.958412277317461 0.2831728175435962 -0.006383020708208361 -0.2951050502048079
Ni 4.092047685125912 9.013160531353524 9.019319227265365 -0.10188150542785035 1.4549456271004748 0.034697037161553146
Ni 9.021515530304528 8.906456577899704 4.771570366660588 -0.7783297483011047 -1.3175091073861505 -0.0021553557801059654
P 7.438450950057609 9.392772909106393 3.285097883126013 -1.3267288262122054 -0.9454838496845202 -1.0393982777464938
Ni 6.930540870180866 8.031157345254766 1.2115699379389333 0.7339921027259939 0.23535672650158174 0.5550536071131409
P 5.557459108873828 7.64504560920189 12.91412062002908 0.5715518618784802 -0.4714338761089558 0.6163247952187967
Ni 0.4486726757119707 7.228671236064603 1.0825909110387224 -1.1224780770868088 -0.7614239736847015 -0.6787010434631731
P 2.666961825375772 1.1255429912813164 9.963688913116748 -0.9322164431516525 0.14003333390722336 0.7934468064482012
P 7.855139212658249 6.035041927364881 1.6288213551650002 0.04813259384116872 -1.1253515419798619 -0.03374855720535478
P 2.3229851337564686 6.504094338087174 7.502837064625669 0.2772862768558321 0.39775300148503756 -0.30046914273019865
Ni 3.5508837862198677 4.31325666840217 3.875560891864503 -0.814244974140475 0.5393835046760517 -1.2917289130982528
