# total energy = -381174.5120004654 ev
CRYSTAL
PRIMVEC
9.21189487039072 0.00000000000000 0.00000000000000
0.00000000000000 9.21189487039072 0.00000000000000
0.00000000000000 0.00000000000000 13.48253929542398
PRIMCOORD
 96 1
Ni 7.437720561809088 6.395072269518782 6.133126518931247 -0.43966455411715893 -1.54963035766957 0.698967507021693
Ni -0.008991730336215637 6.841121418796415 7.834447384925296 -1.0064169377244667 0.8497889326833559 0.1283291580964177
Ni 9.415938083354996 5.039541976542519 9.422987025116367 0.3327783963858656 -0.1741971242731258 -0.24630396954170486
Ni 3.2603842857878016 4.0759593757548656 7.55294570325411 -1.3682464858400178 0.11044687849935819 -1.2500130214167051
Ni 2.860210371705696 1.857173226270966 4.270418786374042 0.5868062169343894 -0.39855107190630074 -0.5993385450734452
Ni 8.136894151388464 2.316330901589409 10.740891334527143 -0.6632484563535287 0.03804255659501835 -0.6247551853743368
Ni 3.071356208235148 7.004273284368298 12.459402517067051 1.5558539699817784 0.20633848489236076 0.22149179559403143
Ni 4.301761336620881 5.462791686641651 0.5086854267298387 -1.1312169996217034 -0.41471431192972447 -0.3705864683725747
Ni 8.551678130334047 5.13973975429789 4.4985430658731484 0.9414580163545786 -0.7648201438504441 0.14172332001513657
Ni 7.224023030470566 7.728779584146009 12.063622676717529 -0.5200840330164914 -1.904385258326527 0.6901226550365533
Ni 4.483106694062476 0.1732361266097433 2.2646623058688884 -0.5181873302144108 -0.4187524865548401 0.14257075561709637
Ni 5.788367678110629 7.459488268790419 7.503343335496311 -1.0572502183262502 0.7329400073123957 -0.3520349306226324
Ni 1.4851048026670834 6.266170228135046 0.712586108142568 -2.144840225286622 0.067010147471962 0.22751974695566624
Ni 4.647327139409999 2.3687189462795617 8.227139398199007 0.26324933914679177 -1.2226076328205588 -1.1498677819536713
Ni 3.7677846532184884 3.7202973364648857 2.2404073873408117 -2.3947560805493016 0.7958060507089972 1.6259898075669157
Ni 5.649304916963707 4.958293066015501 7.679802704032745 1.602806170361601 -0.43011779096898833 -1.5292155414586437
Ni 7.251225755276268 1.7120950979387661 8.355251059024557 0.49889762874686333 0.3272708363040751 0.4226708477726398
Ni 5.249149426670836 7.078788299929868 5.126088647664104 0.903586952340418 0.4227356395723042 0.6235796770089971
Ni 8.033398515360002 7.678703725004867 1.3919780752201638 -1.0593878334945432 -0.8048717604556912 -1.4716066326959236
Ni 4.326237340619779 0.05953279015554469 9.262828104105735 -0.8685057923665687 -0.6427055992051705 0.1915214744841863
Ni 4.62125747764226 4.270560649551152 9.503774419723044 -0.603192885822529 0.3073537856651739 2.036209316950081
Ni 8.036687161738477 5.026976952284145 11.454765265537247 1.741369347481201 0.061551438350235924 1.2052992234490982
Ni 5.390598068523711 7.467935576154735 0.4847483185660683 0.8741624764317137 2.0273161282255083 -1.4122375467089872
Ni 1.4474557893650515 2.1471083974645433 6.130483626365465 0.5538022512045431 -0.44216572327245784 0.2580685662768007
P 2.411001542574234 9.189905825123542 2.6902785516952767 -1.218951009904578 -1.0832754387454182 1.4264241226220145
Ni 0.9482540081440071 9.154826930419816 4.477577714913007 -1.1458892569218975 0.9470941315944335 0.03304921714548502
P 4.12640371068071 5.738632659070339 6.497100450734666 -0.4050022268482832 0.956301252014998 -0.12434934751306326
Ni 5.319915201123053 2.2013756686566817 3.110515972254462 0.48068470528326246 0.7923139783953387 1.4982234639525038
P 6.468970088140975 8.77315971262442 2.502453547579679 1.3254838980615107 -0.16991160952389447 0.3969004236767551
P 5.076407978802056 7.910834257473158 11.575380286523014 -0.7663918592129381 -0.708118834503658 -0.2897661544903977
P 5.844007521600787 1.576496009168052 9.83806025755294 -0.483275091718258 0.8775149378437145 2.088520210538655
Ni 7.409541376173923 3.0151636510679363 13.079788614361227 0.2930304270639663 0.11161210245205294 0.32318561049110794
Ni 6.779438572437129 5.611950684289438 13.509908555466149 0.4528877376756523 0.004491203002134201 -0.6115140040937146
Ni 6.029571926777231 5.5249719753102875 11.085087328586628 -2.953790526687061 2.4683086571254718 0.14571007257702645
Ni 2.086650733089394 6.526931329074761 7.061560214616078 2.963057553811284 -1.4825628745971111 1.274931896145572
Ni 7.249153078987313 6.983049079169404 3.728366956149882 0.4864581174319299 0.8618970288007994 -0.16887442650863174
Ni 1.0162285785270981 6.935819695465094 5.32940529495808 -1.6234040491176105 -0.3599945517893413 -2.1439781343966433
Ni 5.954522621327842 0.7462343956121867 12.058405059606132 -0.7009158889973155 0.000735849724760023 -1.1628207425699135
Ni 7.360340647021452 1.0941612069917885 4.220493081115166 0.24441729404195325 -0.35573989027804537 -0.6167919646632023
Ni 1.1524172285533372 5.790412718715731 11.963002994188672 0.05365558054192694 -0.22217776591746255 -1.1722188959553617
Ni 5.162870821682622 0.2532469585001587 4.721747272457008 -1.0303505657219287 0.12333170488182632 -1.6665823842772975
Ni 5.867636031294868 4.695026329739805 3.801509399413433 0.6720819954847587 0.6318357463702021 -0.4028874944981255
Ni 7.080391169593327 6.328350516803682 8.93752109995959 1.3933854469994906 0.2478936826263279 1.4247045688277462
Ni 2.0573292725216508 7.789089858207277 8.993810382020285 0.540717907216759 -0.2316599943762849 1.0780108479123691
Ni 2.5069526369109028 8.92389394425181 11.287446860029837 -0.43707828144722144 0.29307439292802434 -1.0279059608361782
Ni 1.8696369196885458 4.251040644856509 4.616165142297663 -0.589400717134443 -0.5982856783288987 -0.8928813929974557
Ni 5.123047801250842 6.807461155863794 2.685829206594988 0.5232873704451376 -0.5152914967238544 0.849105533463086
Ni 2.0141070629759854 4.188418185246229 13.4306042758929 -0.11570581290545234 -1.7341286067583879 0.44938640939061314
Ni 0.12687081862056127 0.2976298667676384 9.076418047003397 -0.37140485050881195 -0.26228131880656763 0.16837383272312936
Ni 8.366215055998396 1.6203906870208002 6.406430535582253 1.1866762090312724 -0.3709744478396127 -0.9543130179403759
Ni 7.8101482493030545 5.179323265469613 2.1649582856650196 0.31466060373923227 -0.230870408595454 0.029888817139632394
Ni 9.444494956669482 2.0107355095459525 0.3960755421667464 -1.0841131041553653 0.6276001110222997 0.5883635341191803
Ni 0.4063633860756549 2.246421833336627 3.7787643104131767 -0.5698076254938638 0.5475382725727023 0.6175974912836331
Ni 7.511563109063575 0.4801082872471954 0.18345580249848176 0.6290566409631683 -0.17522967930269823 1.0942573916782186
Ni 1.9347742265294234 1.6268113775692505 12.531790506161421 0.5116369306904027 1.0038568903067744 0.02850093565317027
Ni 6.148451426817046 0.5175279243732497 6.604354539767099 -0.08483509146852486 0.44565496737263893 1.2867512573780033
P 7.903814793774565 4.34413605186173 6.963677385978104 -0.48668411739980705 -0.24906944810198392 0.8778640936530171
Ni 3.351425440293302 6.051551507334767 4.523351619267741 -0.6286113258956335 0.3081919652957531 -1.06180081381141
P 1.4422694926953565 1.6609690828112211 10.435094201991562 -0.8905113501033826 -0.7067867459557957 0.2002323719946229
Ni 3.9380849490136103 1.8185201164556182 11.015409478888746 -0.8357041724555155 0.23971320369806454 -0.31826040527534866
P 7.5769030775860395 3.2983741391906833 3.8864633339556396 -0.03067248938319234 -0.32184683707502637 -0.5163168526645754
P 3.8549844476684596 3.068620275533728 13.663878925672693 0.14820532819505444 -0.2562752218218038 -1.2951379387798017
P 2.442847062267193 5.640866821494007 2.6081839892423657 -0.7675583687172136 -1.0467470048020813 0.2483446541208175
Ni 0.8887212179884624 3.8514747158191636 1.9999861497167035 -0.42184860898166054 1.4577226756249797 1.1248931142862046
Ni 2.0857479674168715 1.8922889685531643 1.9038287089406016 0.8849210004997986 -0.4809675266310039 -0.8288501256481595
Ni 2.4395215683102482 3.419096018154013 9.657488699259222 -0.2837220051788468 0.3181940708137875 0.3987588170417326
Ni 8.420942921921412 0.22200481790465076 11.434056005247477 1.7756647783289612 0.30879283210454567 0.1389796958317284
Ni 9.322529471932782 7.296078470169244 10.549817295179928 -0.6750701315788051 0.5262487670663066 -0.7976898979952713
Ni 2.280975650047153 1.3808077318068914 8.448482802070117 0.8981508689265113 -0.9685031933978286 -0.7075274807765621
Ni 3.706857182217843 8.50993903582181 7.023688273464301 0.04251601898533968 0.34293039721820295 0.16004962912815016
Ni 9.161229197179031 0.2949630232758503 2.3431706777471777 -0.5011774259199756 0.7875952327634307 0.20429522921008686
Ni 1.2867174401829733 8.79941361228451 7.027166684871897 -0.5423222755894015 0.7430066475197785 -1.4382414269719166
Ni 0.3282013814349869 2.7732685103050163 8.28221547373857 -0.9505126703576791 -0.21161721679279683 0.8576709065345939
Ni 0.49596932739973726 7.135671749193398 2.8167716826365172 1.0291506318765566 -0.6572418451481327 1.3030679922601558
Ni 5.421402644124884 1.7165997144067608 0.8267224036437926 0.30759804046549605 0.032457606308073136 -1.5152009723471067
Ni 0.8011934800901052 4.335642685024324 6.705756312148987 -0.11612824515485162 1.7380829634204455 -0.2813087677516639
Ni 7.037611130989305 4.062878485397908 9.55160994609319 0.5334851369137458 -0.8310108807449043 -1.6505500134047832
Ni 0.6632361462972914 3.596185480282288 11.415638664338557 0.8880484903851867 -1.2293228400572054 0.38616915330218005
Ni 3.578415735564985 4.494796588332179 11.752594109228626 0.28450542031209064 0.2487827700995006 -0.6056614019676795
Ni 7.510540588761023 2.152672381813559 1.9657538281283307 0.5965316717522694 0.6278834465906735 0.36534476035766117
Ni 1.4716001651577175 8.868171193710094 0.7005995908661785 -0.29206703470943246 0.319024794245199 -0.9095115453549691
Ni 4.225551332449678 3.8270539831879704 5.112120651855474 -0.8091086813551743 0.4438094295234679 0.13783144115989812
Ni 6.584201677912229 8.749402236405691 9.736037603473827 0.9567203418302879 -0.7729250323457656 0.37077981533030335
Ni 3.62802178808063 0.34976182078742285 13.411742000473952 1.1467089246097155 -0.6709260275034445 -0.16212862314436596
Ni 3.0339282804039382 8.440315536302174 4.727598667918091 0.6648291705770872 -0.33822502132273363 -0.36407386406503744
Ni 3.2402102365753107 7.352925071854303 1.5309689835890694 -0.08259308951188356 1.6720336371998556 0.45609313198682744
Ni 8.086035281204829 8.436888711504436 5.515477275527953 0.6449771688481666 1.0214704896234794 0.3528162888733472
Ni 5.774770921655088 3.984006243682225 1.3266159981506171 2.1136208622610244 -0.6067389513025744 0.3180233495638781
P 7.664941154446209 8.575140825925011 7.713521923090918 0.8973911079423512 -0.07829986145316838 0.30560132175044147
Ni 6.430224859379451 2.992723475779522 5.843372822061635 0.062226352930073475 -0.04980046846189488 0.227495321475634
P 2.3343401555667693 5.551216663075761 9.725009123237665 0.6047879982237907 1.3724816069672878 0.4657244844290043
Ni 4.434652128374029 6.724286959361702 9.39444396964381 -0.3626602715469625 0.16663499565515175 0.8338522068484413
P 8.882200909212662 4.574884800137383 0.2913455122595283 -0.052003389650484635 -0.32282385627631505 -0.9124863117125769
P 9.607913967185276 7.7907203635545885 12.698017302156652 -0.8458528308537433 0.025486574306878687 -0.6861572426309022
P 4.199711968047378 1.938762976898834 6.00996348789426 0.2694037887839618 -1.4002490068885434 0.8721104789986915
Ni 5.7641035476879345 3.278651472814454 11.442859812933493 0.254729988821871 -0.7208008008467005 0.2697994815604837
