# total energy = -340893.43119687604 ev
CRYSTAL
PRIMVEC
9.04878380798126 0.00000000000000 0.00000000000000
0.00000000000000 9.04878380798126 0.00000000000000
0.00000000000000 0.00000000000000 13.24380976806829
PRIMCOORD
 96 1
Ni 6.4672109405567495 1.9575233736585604 11.520776555465316 0.8450473042333123 0.9603054880783848 -0.40496391741117993
Ni 4.808948940788245 0.33139360474043117 6.264493754391813 -0.2841215546101106 -0.4107285878090991 -1.1334348332086286
Ni 2.721367399286138 1.2361724361958273 4.9177044620905495 0.12762776115401891 0.5411768491310487 -0.45220870933075663
Ni 3.545783982872714 4.250973792681612 5.05579794984261 -0.9098925828434716 1.1700694537125267 -1.0364777616655891
Ni 5.0381093875034635 4.306777641640853 2.6449341332915037 0.09475517879571423 -0.56881235146013 -0.12199036036258347
Ni 7.046179266802743 6.014681268682 2.5370500098576563 -0.29392722784662284 -1.2912481168070924 0.5551289404357665
Ni 4.830276923923793 4.5077601759741865 11.241371832484315 0.7184446419096983 0.5797907048485047 -0.052119603513374746
Ni 5.650739189041879 8.133797821311552 12.4109723671408 -0.25629373376456505 -0.49362506749401436 0.47157888632725237
Ni 1.8684923910235745 6.769186949551033 0.3497463478017462 -0.26237722095448357 0.05288373537290891 -0.35282760172725686
Ni 2.628065390753833 1.3229050277759005 0.4835036584139873 0.10298065202930005 0.5944591054939569 -0.6546262619021564
Ni 0.41037953261140697 0.06810657525159951 4.984930590690011 -0.11956143920611667 -0.17132494493165332 -0.6657550248254663
Ni 8.643524854832378 2.1606323721568734 1.4972787088175956 0.38382919231509377 1.972338229327732 -0.03359146280220021
Ni 6.915189074240077 0.845335561699755 5.082775088630057 -0.06297351550874315 -0.7882956012645649 -1.3199244016958622
Ni 0.8977126362790914 7.5785282595254655 2.728873365349327 -0.07796047583587863 0.1633540109110348 -0.1874143942943482
Ni 7.411180054133512 3.72532089988265 3.8943024107289816 0.5608049077746212 0.5621459951835481 0.18878890604437162
Ni 7.840336717760861 3.84229452652382 12.617787747434752 -0.4990364683175728 -0.5742754314572303 -0.3103439786417494
Ni 7.924345625453026 8.863482688544265 7.113899458991174 -1.1195986986564848 0.39500037844056485 -0.5668948227224431
Ni 6.968658337009682 0.895919167353565 0.5074168790471286 -0.6593550348363936 -0.81816564935112 -0.36630403894713687
Ni 1.8356091111276969 6.602417866314648 9.120892533032443 0.17640441633708973 0.3222996083417288 0.26813186405007366
Ni 9.140809810792161 4.944264451950313 1.395076316656897 -0.3694947779702927 -2.4822152399042348 -0.06997205831376337
Ni 6.5842841038184075 2.019579932141205 7.198606027905125 -1.218925298872965 0.30659556734291066 -1.551378450708928
Ni 3.393863953656454 4.557836144863507 0.13469114508809538 0.10594487686394659 -0.6821108404756704 0.5907037522165828
Ni 5.963229884673204 5.58778680097484 4.7778636542097335 -0.6673727629345474 -0.22624576533924906 -0.03632351702138261
Ni 5.613105297713602 2.8894395073725523 9.17569558651659 -0.7554487299378732 -0.048676382159780686 0.6800549863879062
P 0.2836648903379005 5.479273787075179 12.5195324347156 0.5615965504379812 1.0398376792767576 -0.06634268909129219
P 4.039340839956025 6.370452296658395 12.395622915383129 0.3168792086571059 -0.030785360811972782 -0.3078741769450182
P 2.5400569206747723 8.528659594788826 1.6371330898739322 -0.3134632409970214 -0.1269559318979749 -1.7665239923699576
P 6.252609986783872 7.760408811508719 5.737364100096151 -0.05897262187946617 -0.27585134418151847 1.4185966561577956
P 4.752113530489399 1.2633278360217843 12.634633868013223 -0.38479001356646636 -1.5082759630924991 -0.33251537253246605
P 4.017696149391649 6.152421853870511 8.209426650436965 -0.2761765887314212 1.2150534746223847 0.3502906942380161
P 4.7143077122711885 0.7017476524967375 3.905506614682497 0.7289038895698091 0.9178288069714128 -0.5848264675001993
P 9.223334717960682 5.674419855934424 3.436265649106122 -1.0901035174108453 0.570291764219134 0.4717611775413876
Ni 1.3459160846760705 1.0394156838414068 2.6761234808823433 0.15170100005313875 0.48478252950171996 0.9025037465785682
Ni 1.9396248795380195 6.332800307762757 4.516668703507894 0.7121657508795218 -0.2664575616714443 1.3096011653929833
Ni 5.949982465364574 5.396386928559428 9.125872078691964 -0.7281829522433846 1.719630670252529 0.09327473759544581
Ni 8.710757317580416 2.3672975426417247 10.219003152219093 -0.38956712324013554 0.8503247505821677 -0.08420671385590658
Ni 2.3687634455980078 5.297176064283589 7.010795807975871 -0.8686212348985105 -0.595459007513381 -0.22408295335997536
Ni 0.35851009479656115 -0.0464754578627455 9.030596530438887 0.3055812671457834 0.14194649176953616 0.9853943127262125
Ni 1.3645656278421143 1.1626058248712579 11.443856464908658 0.47118062244756914 -0.4094630908331142 0.09764304186647055
Ni 4.1387326799054796 6.879898817885118 1.3934611087698816 0.7645391222749156 0.34803120877987803 0.2933885817343334
Ni 5.7642290339659565 7.882096854447564 8.236735879585495 -1.0249993287123444 -0.11884795807885982 -0.737981169280729
Ni 5.115322658651378 2.617487362631026 4.746700548091569 0.7515812765626669 0.22876390377541245 0.6387157613194872
Ni 0.5286055109139935 7.362443305228944 6.900620532514055 1.3618722068825577 0.4119598891130389 -0.746830906361875
Ni 5.082032183489866 4.6190149713291175 7.026635703809039 -0.44835693968483425 -0.33104084486946855 -0.3933106494429678
Ni 7.944153412930207 7.084111767992484 9.015285988451042 0.7251513645059124 -0.29814460836208007 0.6257108644193868
Ni 4.764094120082723 0.526153290536508 10.511545804226184 -0.21128245916119742 0.4835214034011092 -0.8459970697410912
Ni 7.99712499259737 7.0971691628438185 4.726490089740595 0.9124217770232287 0.30219923804742793 -0.590398562271338
Ni 7.189050512338244 6.042596766337141 6.921824547313178 -0.037125444097387675 1.2170586779778716 -0.22245030285255882
Ni 2.3045261302483007 5.311654118172803 2.212855617413637 0.9999760671951294 -0.22000158420175017 1.119899517726355
Ni 2.380526864382994 5.3778188244465115 11.261185049231706 -0.04993853670165593 -0.5542375389697487 0.0340851146091671
Ni 0.9700115130099864 3.7197558979189838 3.609494659012201 0.46057250791441967 -1.727601090052515 0.26527459710693674
Ni 3.5536926198096976 2.259906577918479 2.5630344970753236 0.6506269109347763 0.5183791345102428 0.987286387542603
Ni 1.2268159938699226 3.1624232134536854 8.2880424830554 -0.4654450055153726 1.3817542905184654 -1.432671389083307
Ni 3.6391131377560613 2.666124574915105 6.795318931942697 -0.3513790422061884 -0.5780629235241206 1.066863058825666
Ni 3.997607849620365 6.793283860492894 5.953609217863822 0.7420735941825478 0.7718353988260127 -0.15003801052841903
Ni 0.7113583656440714 7.250799412175742 11.347600933382953 0.6317251889342669 0.48107448452251345 -0.35517656157540767
P 0.278709776394317 5.595034876703127 7.981104121090586 -0.11706386959524356 -1.3113014359135415 0.5643825978235506
P 8.588082957220369 1.8705736112701488 7.978812969062618 -0.5030016236129078 -1.7236683306570122 1.469313980007005
P 1.8399525272944608 3.3253918075441518 10.313192846430479 0.2541489195074204 0.4060401811944942 0.7206665892616815
P 4.0513847710351145 5.899589789046428 3.5702790402965285 -0.7253994759609765 1.4730778179248116 0.716275145062205
P 6.916636879628999 4.137022459789817 10.471231663171668 0.9063873979036905 -0.9042335847854814 1.3228770565662828
P 6.487760728295752 8.0475719616176 10.308769800967323 -1.1613112479039225 -0.9514876326764389 0.3123062445744428
P 2.3471187550336325 8.321650570524104 5.8792978916423255 -0.37366793551137584 -0.44922185878829085 -0.4213814395372549
P 6.930897762709874 3.91205159991879 1.5314478208745093 0.555757832269017 0.04722987952124124 0.27705693445384544
Ni 5.223781379848953 2.9114732956352003 0.6293700513478199 -0.21129685733890063 0.3072491417665095 -0.3492375703831534
Ni 1.4298164069640664 0.9268940587711706 7.1002575127140615 0.03734295942483246 0.8764355887366068 -0.5821743745893329
Ni 6.961826505330708 0.7949383609897687 9.196527696306434 0.05279811763763811 0.20233681993213543 0.7126838281665209
Ni 2.7581507049484224 1.5445187889013654 9.247277799579969 -0.3117632275867792 0.04678482156402265 0.14775641358309394
Ni 6.390341523188702 1.8969960596179647 2.771108563179269 -0.16750865650935667 -0.3989313380638549 -0.7029182641393248
Ni 4.091769492602341 7.285067155974776 10.210156156414413 0.097567965654161 -1.1184334747037898 0.05430272720762261
Ni 8.325957791556146 7.003803812825749 0.9800258019094823 -0.03521974243424257 1.3339333143804446 -2.419760573013439
Ni 7.668826071875758 4.0639082876492845 8.071996438528705 1.4618521244123208 -0.9575117273833317 1.128065341366599
Ni 3.0674381311567593 8.471643208816364 12.213070038772397 0.2380317022305836 -0.18786485156820548 0.3004452314707987
Ni 0.12518268319635398 4.935269960971638 10.311868104499617 -0.6345343762482878 -0.42337918669357405 -0.6138035714588397
Ni 8.704224095762909 2.401610530359162 5.87852964990783 0.08839941178101549 1.0831085741502509 -0.3817944212732522
Ni 3.432764674700036 2.6429868350434047 11.644937630984112 0.021182033394253844 0.2437611485151931 -0.08685186478823752
Ni 1.1943218116723173 3.3481314009338985 12.647851426335707 0.026790123609650635 0.1201491933887866 -0.06546054359665501
Ni 3.123178638630234 8.407903576569097 7.9698465293133545 0.49706571774444724 -0.5456845071934151 0.46893527805681817
Ni 5.681179297343951 7.70808874426657 3.5555783863287678 -0.8536828684211233 0.7352280320156241 -0.13373078872796323
Ni 3.1689654840548735 8.224674755817412 3.655820811944214 0.5408487763676685 -0.670660946767516 0.5143970099340431
Ni 3.5222752428701027 4.1651551282532955 8.896860032029112 -0.5952705456516587 -0.3177438706502463 1.1087432439992195
Ni 7.3721436013347175 6.266635601489049 11.696535605288537 0.2895419542947336 0.07498570947827086 -1.3038511502830834
Ni 0.4881221576046466 9.033319309448427 0.539212495144579 0.14188915616903952 -0.20657759748636034 -0.6186601282201926
Ni 4.764908510613992 0.4327173600057283 1.4259344787650208 -0.4373325635498726 -0.9114200752315916 0.6273841383567518
Ni 6.03590971519706 5.397264660576462 0.08973950239718968 -1.2554881855986635 0.5387566697253301 1.1076932054681503
Ni 8.046992839462032 8.756064577469976 11.525386005872294 0.140492532931829 0.8024420679682761 0.3265910366282311
Ni 0.19598941549829194 5.151825452019559 5.754170406026424 -0.4383895440594772 -1.504168882902661 -0.39061381933709505
Ni 7.899389080061494 8.768597142867826 2.6861097185524287 -0.24311785850423936 0.8546963972873022 0.4768859003624626
P 8.519203615842432 1.800626513417883 3.7098954383420613 -0.22095237815079366 -1.406802748846661 -0.11958509335520051
P 1.9539310065372995 3.211349986815548 1.4940872028133922 -0.5429195428537682 0.41085817140842784 0.13863413956685156
P 4.550778093592514 1.157086066825995 8.165987059499114 1.3104169764260594 0.26860494703175025 1.1450929862728472
P 8.592788324734363 1.594630952925408 12.474754528671365 -0.2985611270742084 0.8832991486256594 0.240975615350256
P 6.340256505515703 7.907361058484242 1.3504178545572478 0.43684379683891217 -0.6915907549416477 -0.11891583520231779
P 1.717106240044479 3.070632351796067 5.748819860235992 0.9409083144986956 0.8389208796206002 0.4169789395941851
P 6.860100079191618 3.9981145815064876 6.048289356150706 0.28750178393625325 -0.4295488058393957 -1.1252551256113137
P 2.198818239289676 8.683647161672862 10.167484807211059 0.6910698494411711 -1.5454505152602676 -0.12134707035162971
