# total energy = -340893.4408505226 ev
CRYSTAL
PRIMVEC
9.05326451566814 0.00000000000000 0.00000000000000
0.00000000000000 9.05326451566814 0.00000000000000
0.00000000000000 0.00000000000000 13.25036773668553
PRIMCOORD
 96 1
Ni 6.210738429601766 1.9844393048837918 11.403027184324912 0.922116121492857 0.030830612227611416 0.8298320299454547
Ni 4.5977726623646085 0.15382763373876557 5.9049336493316575 -0.08166569260160773 0.21468634263642383 -0.1282201433223792
Ni 2.761173162261708 1.4387447505069992 4.8544843067262455 0.2386801344478599 0.4241044948953728 -0.38822989248595074
Ni 3.1931406114543273 4.33297373707151 4.905497639976665 -0.10523679505332843 0.539857873209309 -0.14147777966323377
Ni 4.939524333563253 4.566040971258851 2.8331801099215843 0.7992243323619267 0.3907292618690368 -1.0450274510078132
Ni 7.204542403282893 6.120205787359946 2.5273481698588034 0.49941647736481093 -0.3372829691244385 1.148491213321119
Ni 4.903682460499717 4.549908054411358 11.153284742763052 -0.5399877139189538 0.11887701154458238 0.9884181871542009
Ni 5.7021713118083435 8.138459034121057 12.237999785130569 0.06854381050766906 -0.9659531732824654 0.9227272727142947
Ni 1.826595643135179 6.657254474402644 0.48046216433587186 0.6826631134347146 -0.4494113490912776 -0.6215595612551746
Ni 2.8027185917864794 1.8806164707608728 0.5340348553824686 0.24246248430842754 -0.9842730546375756 0.17375489452938464
Ni 0.6575883735555698 9.050340019837563 4.553369117324263 0.19079179540701335 0.36574610956113784 1.195810567232373
Ni 8.543212371055784 2.6377590643576596 1.4123698758426897 0.29580336182341316 -0.029281008352304412 -0.04747799097630533
Ni 6.788264260990782 0.9043975575087962 4.985013364984079 0.5010342154738918 -1.0557250399309754 -2.077318171175248
Ni 0.8832599961981762 7.534542937518551 2.7243281875221323 -0.8025875924072049 -1.354052196617507 -0.10080241343105865
Ni 7.475687666797143 3.7712277452252425 3.818292044621075 0.47974779529128997 -0.11465268905058965 -0.054664224312099406
Ni 7.650895489327737 4.108679115917401 12.561215803156625 0.3632500826121615 -0.8546735144691668 0.6950656008641254
Ni 8.03516128932314 8.959716844953501 6.8220175459978 -0.08721310478239819 -0.3211906915482662 0.3583387613534732
Ni 7.362204999747022 0.5169060794703163 0.1598036934531481 -1.1614454594889416 0.49993352621054554 0.691831410197544
Ni 1.8405014569835225 6.060526669594138 9.403560366155402 0.4340310099804654 1.8182936687430815 -0.740974190470782
Ni 0.15751140695158522 5.073883827914338 1.4302844750895012 -0.25519664404564435 -0.5289867348227599 -0.27034275565846344
Ni 6.216016482644464 1.9150188748127643 6.866247268365041 -0.08366549664045592 1.0363759459804023 1.432925928296274
Ni 3.3621469479913557 4.4998887695727525 0.5711079723804938 0.401081037417006 0.12306610992526548 -0.5282154038743742
Ni 5.978467882666153 5.541493978357561 4.8214643361213865 -0.24406839534296676 1.419123218085227 0.24571827224156395
Ni 5.22598772014482 2.5667633663116245 9.242846819647722 -0.8942119388834213 1.569387485691839 -0.16860574622827737
P 0.21496704302393368 5.749628522871505 12.442214266235442 -0.10070162618713624 -0.316745511292719 -0.48676382159780684
P 4.12486635235024 6.280312765164604 12.58757076063964 -0.5894235999525784 -0.2587131418393351 -0.34511377802276694
P 2.3030236729327553 8.561635763751996 1.4698363758321074 0.8417637483860342 0.7832315564780963 0.09109315656309473
P 6.30099947391686 7.789093567709875 5.7462869630463596 1.2750105719023073 -0.8320375222372057 -0.015607881740586024
P 4.729841680866975 0.9187795730553318 12.72912397874326 0.6737110464477495 1.5096818423010903 1.0029937709755308
P 4.269763846258272 6.233896679487223 8.1721770113976 -1.226576901880952 -1.523825223681008 -0.046804619058364555
P 4.918312535485995 1.1982266798631567 3.87263154714746 -1.0882939750059322 -1.3302491806606382 -0.5168871233457485
P 0.054091443086642446 5.489292856840929 3.667105248056503 0.13740129560101497 1.0460134690701663 -0.1698355048703204
Ni 1.5896536118598885 1.3020766737787481 2.7216782970837143 -0.7320414067575264 -0.1274128169297354 -1.0022283535644159
Ni 1.7612944482861546 6.368274280366756 4.934649150778531 0.2585038540420064 0.7719487844754254 -1.4191005923774076
Ni 6.078678464363623 5.360953783198925 9.071704818080208 -0.6903735947050949 1.0012217666767727 0.09836706451668865
Ni 8.588370053006004 2.4143516630975213 10.240254897816499 0.03986726850858295 -0.756308506835007 -0.45232132364922106
Ni 2.411862015435871 5.32115563366942 6.976848281412604 -0.176378962415793 -0.39333198959920646 0.8831680223644339
Ni 0.5134205727440063 -0.23640426738037418 9.108938177855004 0.6047535454414296 0.2589378562556314 -0.18171040193103544
Ni 1.4605631172872777 0.982424020551331 11.42152481378776 0.5221653410255523 1.596950225801456 -1.3796179609017531
Ni 4.021469021645856 7.020172677357427 1.612887909164829 0.5273965075175046 -0.6840787628353187 -0.5109540456907652
Ni 5.826581268777051 7.866408444184389 7.920671899291291 -0.38919816993649103 -0.10565717042019868 0.39062461797037246
Ni 5.014240923205428 3.0556215278890027 4.824829434433514 1.5700166346354059 -0.3401219812351304 0.7285117963377131
Ni 0.6985761220041312 7.256634885628836 6.90049938823081 0.12412951819277332 0.5486196785623391 0.5837409477455043
Ni 4.8871421467621365 4.336948120065926 7.0971353818536205 0.3456760782841402 0.5643404317317056 -0.4576057119766119
Ni 8.16857924419491 6.855013978115676 9.070101484986107 0.20896049589624013 0.5077527651446481 0.7180265805356731
Ni 4.567670558819203 0.3721778816032761 10.37694560770531 -0.05041959010313252 -0.6838059687899062 0.13812069026554277
Ni 8.296800625402 7.214754485327771 4.809538471158872 -1.2222829024912887 -0.5736012882083412 0.07510218045147711
Ni 7.345058117306422 5.952756612269477 7.072132076719274 -1.0344013387525346 0.3028993494382461 -1.0001858692130903
Ni 2.321610024385001 5.253084139967797 2.652829127985233 -0.24555809251461583 0.7841856928612495 0.22460694418424543
Ni 2.3383585631997374 5.232859147690974 11.561064585927923 0.4027771941725063 0.3720193441643593 -0.013059661397435574
Ni 1.0729838225858233 3.5460187443844915 3.875175514394455 -0.9759012856341127 -0.8169790852421865 0.2524352792504233
Ni 3.6980230507085072 2.6946135636855226 2.736677745250339 -0.45076734889853975 -0.5732102234175096 -0.1935531602022344
Ni 1.3126508863925928 3.1852008987297196 8.23050538214116 -2.1927131377085014 0.6377513405236888 -0.4640167577092782
Ni 3.574817177881615 2.313697471453066 7.039562053346358 0.2745130849860692 0.959068273237174 -0.49635377927908714
Ni 4.050023017008926 6.873708968738612 6.022927557944688 0.5265673267479899 -0.5128908577021618 -0.5893914611630623
Ni 0.8652702548583041 7.6656523100131535 11.426944097752356 0.35627673661812187 -1.5781786016209076 -0.040469677979272235
P 0.3445980174707281 5.341969088120815 7.90836217592567 -0.05385844058135241 0.44490806190428545 2.337829542565587
P 8.618345410852271 1.5600132247899166 8.138932519839981 -0.33462496267630115 -0.05704995093545658 -0.3000467104807994
P 1.8369887904645401 3.223179342150163 10.432464750560106 0.3777942989749235 0.047609888568479294 0.366454191371756
P 3.9212584399483865 6.1762726527003045 3.7634093462412395 0.3198076951578105 1.0446235307011753 0.9296445686594184
P 6.835793898167736 3.907760022990131 10.48076210454327 0.21725950268023875 0.03130780897434608 -0.46637728752165486
P 6.490429974543643 7.902404222739736 10.19952335674548 0.40115714207058006 0.13419410151762695 -0.5245765215702063
P 2.409653018965171 8.45584837129243 5.782831369413692 -0.7417591482659226 -0.11649462735533485 0.19043955427391718
P 6.727453485196952 4.1713548641414135 1.619141904090894 0.8805606666485738 -1.0201121758233722 -0.6240617588517382
Ni 5.223760617145671 2.9736351670748107 0.5075024539206585 0.3794683442432368 -0.6282488003498922 -0.1638828868313113
Ni 1.4939968220671818 1.0677419826000218 7.115619431420133 -0.5144808278971009 -0.9543788381813048 -0.8704207500010945
Ni 6.732885443731461 0.8544805745559241 9.174554426299027 0.9621970486741428 -0.9985046248559256 -0.45207398352510525
Ni 2.8413398169668396 1.5790522394533713 9.225992357641562 -0.519707366403363 -1.0206420801849132 0.4432646127635914
Ni 6.524189596835618 1.7909438886203504 2.5456602074050565 -0.201994091880736 0.8643483185547695 -0.4063548842214356
Ni 4.425317032158166 6.943844606683349 10.305605885618755 -0.6629792618525421 -0.39138720716800984 0.13150395627997352
Ni 8.528926320110026 7.408086942835176 0.4789557011689679 -1.163895720801647 -0.8999282725419082 -0.04963488941830807
Ni 7.4486184067668395 3.618870361596484 8.29021165969964 1.177127903221205 -0.6274766980705581 -0.5675303994239129
Ni 3.1016392699405197 8.537626507029465 12.566542743826133 0.31773924266455605 -0.6482401558701546 -0.13584783507096607
Ni 0.04431210707168108 4.684213229177098 10.257109359822657 -0.09712522168978757 0.8805560386628836 0.3483425693727098
Ni 8.66084143312058 2.314901555594882 5.834786242143428 -0.27577343975573154 0.3793503306081338 0.23731487866921708
Ni 3.662000112360487 2.3791344652654534 11.608434885654532 -0.4035138152282148 1.1948307198176067 -0.8718117168113502
Ni 1.2205791892326618 3.4372437747309452 12.635669848136297 -0.6827029655337146 -0.10807195050927838 0.4604879186204134
Ni 2.9112219635133005 8.110113263835144 7.992608231490218 0.5749896839154356 -0.07240020813928176 0.008118258231760211
Ni 5.692194614633294 7.932777924211867 3.565647126548941 -0.6788396259235664 -0.08913474728514327 0.5963984886085149
Ni 3.02322894849488 8.295596541260183 3.537371066397553 0.9576755066547056 0.02667133864359923 1.1049161569436454
Ni 3.2597997959369787 4.122938007070489 8.921419726632367 1.592749043235915 0.6534918911873971 1.311544405162283
Ni 7.069042197639561 6.081602668708033 11.281521514519323 0.5623722522617411 0.3780874047353101 0.14879436792930506
Ni 0.7527463284895239 9.304311241118539 0.19923880708726235 -0.1106656793783836 0.6104878768220453 0.7984303757057216
Ni 4.600533907952984 0.30753033243123745 1.8119610415167888 -0.05563095910074291 0.6520762417867931 -1.059933164475052
Ni 6.084128529426581 5.888034826330799 0.3097420448812051 -0.3719147002656949 0.1599102753368085 -0.049540787042605006
Ni 8.157597634690978 9.132570818785808 11.086264333037855 -0.9187546612197919 0.11256598172489 0.42109810396888125
Ni 0.011703154662600036 4.870810058101712 5.927326898390172 0.11399885751667463 -1.6003484528497276 -1.848618802089184
Ni 7.911882990382455 8.842929736461553 2.6535054068227795 1.0442023840033565 0.010762894943458882 0.36404815303342464
P 8.531153423109174 1.6171664818371776 3.655206542886661 -0.07945762920669541 1.090730609471883 -0.3079479676057471
P 1.787096251325073 3.376016548782803 1.7694804097976597 -0.5274001070619304 -0.6802694163915574 -1.1908267408645363
P 4.634791459777289 0.7437482891771096 8.054023765334223 0.5469021816506001 0.6915503886220155 0.8177907825102045
P 8.590126386265496 1.9881601964799305 12.349765953283786 -0.21283951923567215 -1.0373107990898458 1.3154062021105346
P 6.519762550629993 7.847876412317488 1.440368000782395 -1.51966235055257 0.06624884382590526 -1.3805906092276676
P 1.725443521958394 3.081233212379214 5.981295217083365 0.3021812403252989 0.1694380123215856 0.29913114064506546
P 6.797317525214964 3.957362857674424 6.045095380724019 0.5656594076534451 -0.5278263959660716 0.17832245929540902
P 2.5175498219889714 8.409595244371083 10.138717107583762 -0.5542866470401293 0.04107183033964539 0.6855900572735225
