# total energy = -340895.0115012594 ev
CRYSTAL
PRIMVEC
9.05818490398959 0.00000000000000 0.00000000000000
0.00000000000000 9.05818490398959 0.00000000000000
0.00000000000000 0.00000000000000 13.25756922235429
PRIMCOORD
 96 1
Ni 6.317603983714829 1.9945851719228187 11.481108234369636 0.8282937389240573 -0.13058581534107833 -1.0487002718737102
Ni 4.70271075424122 0.4222273677743292 5.960961498926143 0.109556762584921 -1.4348534843362903 -0.29273475020041845
Ni 3.0456154406520777 1.6417779226813582 4.707100350713079 -1.2275333522569503 -0.07584985725077904 0.5741237363707145
Ni 3.6575773639749825 4.114852661317851 4.871096073461849 -1.1542065185383412 0.8871102948416335 -0.24983178018930524
Ni 5.286936514962329 4.451083431930544 2.8571254797284156 -0.7790833386376776 -0.4051235829174959 -0.5770203411922192
Ni 7.17753372259102 6.089419244295546 2.7051146416100944 0.6118654738958623 -0.09182052164742252 -0.6124678833665517
Ni 5.030073561696774 4.519219099824309 11.474771128113522 0.21405179437621846 1.2432085969003621 0.2121646046558346
Ni 5.43970280571324 7.9706593467747755 12.697530092162797 0.2872701275414214 0.6627270366324199 -0.5565337912030931
Ni 1.6548670000685546 6.589286127710801 0.4187082628851072 0.7644966990727543 0.14001585040572662 -0.36037661771910834
Ni 2.660162492515492 1.5440944551771885 0.304645785186108 0.01028981196178228 1.020010103027869 1.1240035125923995
Ni 0.6222619855353485 0.09400131528417303 4.97787305293073 -0.08999940927828372 0.42886643506039046 -1.192450135400572
Ni 8.704906768178754 2.4985010640523133 1.073279888650484 -0.011929404447734293 -1.080863743980132 2.107166621995248
Ni 7.06502200617139 0.695084358370384 4.640149493422943 -0.907562134938082 0.255105884104051 0.46336935393326645
Ni 0.6941060743857355 7.610623665868966 2.4916277132416527 0.19731931211288598 -0.8132404441353607 0.6833758232310231
Ni 7.659103072219329 3.741872833985535 3.7330266104725 1.1626492499890557 0.7023150833376872 0.602469377392943
Ni 7.45751316408642 3.9946505457966777 12.589162495400359 1.220022388591886 0.17349881265452055 0.0937539912247095
Ni 7.880620987446933 8.863569937392684 6.897528918177501 0.8468218796352319 0.0815060270952919 0.5874263670168914
Ni 6.9573564187497885 0.9642890887570841 0.32649593914693503 -1.2970312991477726 -1.0966104652914275 0.4049952848697477
Ni 2.009558351798968 6.241171018321636 9.220984179547036 -0.818577540077558 0.7466614706635463 -0.78502644359499
Ni 0.03744381951242458 4.808483180988826 1.275835399308982 0.18325152116591023 0.7622649815287581 0.6395588260460727
Ni 6.421963333595721 1.7984573493708635 6.953489479554913 0.2070779341615466 0.8063303472790888 0.6513077390518848
Ni 3.6865092070024597 4.3772229910895755 0.6482444835128115 -0.41271630766308925 0.8495215379545821 -0.5219640236480237
Ni 6.108867167582958 5.598266334891698 4.834174005407904 -0.19125407975541256 0.733404348543324 0.7005685329602257
Ni 5.289771726880801 2.969110009778541 9.149102046319468 0.18234597863250532 -1.216899526692188 0.3040954266288763
P 0.14562210020746338 5.452656010324791 12.3287840605196 -0.18852099709496567 0.9313965183535184 1.389145183665898
P 3.9181904058483568 6.2559992672370965 12.636916341128776 -0.05942487892553637 -0.3978951834898567 -0.009785104411221858
P 2.345888762447134 8.636752983914901 1.3430054646771588 0.4379838239806263 -1.595360512716833 0.07201171445161146
P 6.342160723366516 7.804749629526409 5.851015966329208 -0.36591965902452467 -0.7730502450697202 0.03232288050242175
P 4.661169917633827 1.1743574580902818 12.715388303975155 0.8653474492432451 -1.3540699372293197 0.2602352349108163
P 3.9132989859251137 6.081774136119218 8.02374574603803 1.4498864674100127 -0.5275795700625882 1.4147608273514731
P 4.904137615043355 1.014398968415195 3.6233338012382643 -0.057234556142436915 0.3792181759056437 0.8952221253154904
P 0.17797521972569808 5.644897871493281 3.4951858457973346 -0.510213825090631 -0.0436529608032603 0.3075656445656638
Ni 1.4290102142053343 0.9931846990443897 2.5856897183656145 -0.5971626204680489 1.8649491638180915 0.7440955097085831
Ni 1.6405278931454184 6.633236441539643 4.76788620726292 0.8828592328747635 -0.8385529547582204 -0.6105683523509936
Ni 5.868028143658546 5.573356326023332 9.281730180082688 -0.24554935076386747 -0.32211500313474845 0.12061430595066323
Ni 8.678384402372725 2.2786498548726297 10.242122437634254 0.35967547788702575 0.4852792666324804 0.5225980576875967
Ni 2.3876107627553873 5.25162770966455 6.80705938924161 0.018897608235451325 -0.4920224988935849 0.4647855175545028
Ni 0.5819023362575686 9.125487357912258 8.98835368290863 -0.16304496431104823 -0.3205875107466285 0.3686265164327265
Ni 1.6254188404936234 0.9065250427376025 11.539706539231581 -1.467466642385621 1.234920645859957 -1.675162926857457
Ni 4.072641519017274 6.741789731095464 1.627843716629646 -0.15981257341667962 1.1944468541156268 0.562739920013805
Ni 5.60910898238822 7.660887534672809 8.125723699071106 -0.3847964413243696 1.1979548672688851 -0.3613754912972679
Ni 5.506588444071066 2.7983541635321476 4.946478289390049 0.23937587496330384 -0.736857597199247 -0.9337542199524176
Ni 0.7675516503517322 7.309420896817719 7.045761587314368 -0.3907025223961594 0.1488930982906984 0.2395964756145422
Ni 5.16370896563678 4.348635359093734 6.907312663842491 0.20524473760754977 0.7297420692003883 0.7198386940437475
Ni 7.958168109600419 7.302391745224318 9.085134049364006 0.24698479765881334 0.20650457815657985 0.6316863652765315
Ni 4.628098484041679 0.45564029494259983 10.42577895101895 -0.42007866156543133 -0.707909032485697 0.1180393461346354
Ni 8.168182129823359 7.423880123021603 4.67123809030917 -0.18399791241363153 -1.0749661475487744 -0.1633136445914026
Ni 7.230424465057346 6.059337011767601 7.123636615766414 -0.1327077467800876 -0.4066564746222545 -0.9293987711971993
Ni 2.2627980310473057 5.322462716701143 2.498866108909548 0.2675042577684038 1.1404439175366101 0.5818673848718754
Ni 2.328035079727297 5.175955631814974 11.539680270494957 0.6512617163052977 -0.20456519504202186 0.33857829089709435
Ni 1.2002638673133832 3.599414757813607 3.6839865024679725 -0.5350794779840592 -1.2226271732045846 0.5741322210111467
Ni 3.5567959971860916 2.668894582896985 2.6785995223521004 0.2620558330593229 0.22686360142890605 -0.8350961065578715
Ni 1.006536463797834 3.44121355603687 8.297594607896297 0.1569535067013297 -0.24782400573065708 -0.5881632451829161
Ni 3.7139464494978354 2.4770965727956042 7.027824569292136 -0.04347889711924125 0.7176694543065705 -0.04798269852686575
Ni 4.098022553507879 6.926640113268831 5.9535636792014905 0.929600088574728 -0.20353623955687525 -0.8342550987138149
Ni 0.8077971664979698 7.245162132122375 11.32111622940989 -0.35259543111179276 0.4677106616210977 -0.1454745595274527
P 0.0116932110720635 5.577939767655111 8.214747541674127 0.5366043992690178 -0.06319977258693632 -0.8004394357159506
P 8.42473710479745 1.7341532937503052 8.057990214593252 0.6910641930142163 -0.5531296506175506 -0.48449816549208174
P 1.8172983742603919 3.1203364090721344 10.650150194535112 0.4644350761936195 -0.2122139698365313 -2.0776989515534345
P 4.038863546991768 6.0151602433126845 3.8317952485448266 -0.21729061302849031 0.6359024602404081 -0.3682187394713465
P 6.909302747096448 3.9074926893125235 10.517998521305156 -0.4952993698726437 0.6297330982049025 -1.332662418087821
P 6.248490031836415 7.909743052360314 10.408928915201882 -0.002597842634163268 -0.04443303350239444 -0.2651797234002852
P 2.4001019999297433 8.258048383635382 5.869947573069166 0.184534758753708 1.7622598177769653 -0.056086558580922756
P 7.008181895026299 4.059905710846756 1.5653340874661146 -0.22500957893930282 0.5330465067144304 -0.32648279318514095
Ni 5.476497153358078 3.0364938483137336 0.31280720990988925 -0.2709148261118495 -0.4544116305193464 0.37631951420161
Ni 1.6514067733821123 0.9778944826917338 6.904317122048757 -0.24185956061710603 1.0873544939107984 0.41436078524504766
Ni 6.8765755245359355 0.7422430813414717 9.242289030768271 -0.6183238279266964 -0.5645720881265374 0.23510630105367253
Ni 2.6227431301026836 1.5381794603440817 9.141518533801433 0.3177346146788657 -0.016419064787971723 0.6403862070433746
Ni 6.487608000602649 2.118718539752672 2.459358834844318 -0.4021161635497397 -0.8491309873843826 0.4789805781079622
Ni 3.978871187451698 6.972574169622099 10.431532710158288 1.5552353625611732 -0.4090751113660761 0.2900788006348101
Ni 8.180320097781035 7.063753860265364 0.5780353970626938 -0.654859203848569 -0.2532546898279251 -0.7081962247088126
Ni 7.444904170506505 3.769382541961255 8.344659125742936 0.8553324882094043 0.1740523711651454 -0.4336497153816467
Ni 2.9824527163469425 8.409591819405483 12.483804933527724 0.9991869956349306 -1.2790261208196037 -0.04807011603434947
Ni 0.30462857463452625 4.874127847995756 10.222076674134001 -1.1119990319323558 -0.8316886235382193 0.49626430488907436
Ni 8.71121126496871 2.328324941648675 5.823811519189438 0.5918589488669483 0.434746033769619 0.10450480198331033
Ni 3.7750257912430705 2.6283592048293696 11.493437330031721 -1.114842672028738 0.09157189597172617 -0.671436905701592
Ni 1.0238466554150882 3.3401785600667746 12.664929684192888 0.16463390606472292 0.22792932368925906 -0.9163923316352024
Ni 3.150735678076585 8.216190510551483 7.975939362836364 -0.14988605833158702 0.37923565940714044 0.6726417246429707
Ni 5.69735382107754 7.937343342186464 3.654833639725445 -1.0633789569318073 -0.22766192896048534 0.0718322514509537
Ni 2.9936214585050136 8.465625752081744 3.551146407174746 0.9767322661758405 -0.7716325387865872 0.3481841894179745
Ni 3.4206333596190777 4.301460331389569 9.381321301356923 -0.22621774031479103 -0.16666404912087424 -0.1379260577562334
Ni 7.161283338623803 6.2606189416090485 11.476627150228843 0.3892979287391489 -0.7455222148527806 0.04252398940513966
Ni 0.3825081321790923 9.041128480606403 0.43376658970066095 0.4448766944457177 0.41795647301610594 -0.41029612825737083
Ni 4.487642266764263 0.3732307390580083 1.5808589108113849 0.5433836269743803 -0.5279364391813746 -0.3835718248886491
Ni 5.869568035115863 5.712526281024636 0.4346533860163748 0.6865555065105854 -0.24015003412516708 -0.15512853767744897
Ni 8.000107506349705 8.654633841189867 11.743514796881533 -0.6847349083620788 0.17309334968598578 -0.9176025498932197
Ni 0.2054803986088965 4.951213002712047 5.9391919628122 -1.056948370815115 -0.7529023093669356 -0.38094801411255685
Ni 7.867559084614866 9.018347145223151 2.398837477297734 0.2207675158334972 0.00016763592611584034 0.28634401618272615
P 8.628519093710777 1.7152307451953894 3.5248033934325704 0.3545731236634539 0.1419670605948265 0.12818671898128245
P 1.9487145228648517 3.4649550590346845 1.431141605145962 -1.0486593913334457 -1.1346378523777942 0.43140282832899896
P 4.643941249681961 0.9120143028736861 8.17290687914181 0.736489415226551 0.17977333280932267 0.7198829170181216
P 8.615629296394525 1.598651903691433 12.370187212714338 -0.22643345587002292 -0.28208421246510773 -0.446404958164786
P 6.270456130565793 7.8527851848096635 1.4877507325724557 0.10148324154816714 -0.6879127918694282 -0.44895394983888487
P 1.9116846624088943 3.249959037038072 6.027023748263557 -0.8400164266776243 -0.6321478782939823 -0.4428594069053728
P 7.126345918912788 3.909494548207036 5.9386756462647465 -0.3511191036765824 0.7381045822324708 0.6128332371257704
P 2.329149236487592 8.287686765096216 10.178167122137854 -0.46353621852843396 1.4900496698924595 -0.31253353009390045
