# total energy = -340858.8882970673 ev
CRYSTAL
PRIMVEC
9.39594570036498 0.00000000000000 0.00000000000000
0.00000000000000 9.39594570036498 0.00000000000000
0.00000000000000 0.00000000000000 13.75191628922581
PRIMCOORD
 96 1
Ni 2.1398232608522734 7.214620473023298 1.8008955290255553 -0.6145471344930835 0.9761069738870157 -3.016570952348392
Ni 3.6289866830701487 9.035705070414803 2.2369143857863634 1.402007384340547 1.653412936774875 -1.525709070967282
Ni 6.356986744145886 0.5199622349808507 1.5744297495820172 0.35321249587050135 -1.0709590832719103 -0.08360121906142376
Ni 3.019330751146325 7.3030269254155495 11.100642644630215 0.09617468485106018 1.102225754595676 -0.6937782495112697
Ni 3.237250918043285 8.923883921523297 4.5269797567882115 0.7083319789557284 0.34450185547038087 2.257187406132487
Ni 1.3903180742354662 9.023236650569494 3.2401580236198777 -1.8544328376677999 0.9754546850149974 -0.8178954264088688
Ni 4.294210237424388 7.64748229205387 -0.14397595401179225 -1.1771991227787726 -0.3926203082441625 1.2408766063330758
Ni 5.007118215829077 8.786674927551138 6.990841934028711 1.8192046105931248 1.0836577617855014 0.020815394083454473
Ni 1.7134164564665604 0.9991554618917704 1.1844190801720325 1.4277155877399283 -0.9445901342256571 0.47996891016316057
Ni 1.8838495141712108 6.68242471683778 3.9256636662017623 -0.3687864390493584 -0.28674228006240937 2.2570367394872357
Ni 4.340475873685356 1.518384813113816 12.184060007298738 2.230398310964101 1.66189680587617 -0.9419696658836746
Ni 0.6594873295497468 8.363641267645052 5.416659297816651 1.4839486992010444 1.6465334360462225 -2.6825432569364573
Ni 3.6012968313111986 3.5009387360830506 5.441646875613649 -0.7652721437861981 -1.5014717956864723 -0.37764131833682707
Ni 5.15991508359428 5.565181010322159 11.918414074190576 -0.029194105065452947 -0.579209635534054 0.3491234134027923
Ni 8.433528311209042 6.894040204219892 5.200300737082682 -2.507486612876514 -0.24669683410474935 -0.03160040051410041
Ni 5.494880545150639 4.555943698774007 9.33852794158019 -0.4514060109238032 -0.42289221975482655 -0.7919558237249715
Ni 5.589704428405247 6.029340724231951 1.4242167668638825 -0.2880301456358975 -0.7450182786331686 0.34249896610773917
Ni 5.299350916679732 2.672394854862819 0.8743801227661048 -1.6519718334529743 0.663903059218392 -0.7171999708693196
Ni 7.426461463100428 7.660035275409811 1.1971618616296125 0.9451395789712239 -0.20935773133465882 0.8655724207698576
Ni 4.585277841017456 7.07509068048159 8.866905967654464 -3.523241025951823 -0.9586844075351941 1.6323116360198855
Ni 6.544247940466173 6.600482675036013 10.322037274816037 1.4766375102516118 0.006818565583730192 -0.014682027492206972
Ni 0.10648988934348233 4.858521335758563 4.358449378072766 0.7999151877813643 -1.5966296092372438 0.5335329594325456
Ni 8.096242051083134 0.03121521055771485 11.032556803842674 -3.2975506188954116 0.3377930759916376 -2.1923878931585983
Ni 0.43371121251513545 6.017689751656078 0.5598217155142134 -1.3588100230174665 1.5495617092151635 -2.821938957259682
P 8.76324143916063 6.183349668982871 10.94358283633463 -2.2619568024966723 -1.1666015497685842 0.547741903943076
P 0.594935303912033 -0.005366024546839729 11.70307309436787 2.607576316511264 1.3850974959590854 1.4153138716414657
P 1.9910196699779943 2.097381774460967 8.435398104388556 -0.19360226827261498 0.1672785427764216 -0.8710946361396674
P 4.739841146560292 0.38058371716371553 0.2141486343228023 -0.5236496388805627 -0.21724021940652907 0.044448974341994414
P 0.558974201218775 3.846239737827684 11.961306565971915 0.8346911578099688 1.1903552005447562 -0.1419403211219491
P 2.1117199874857917 7.221272802526297 13.311263416177606 0.2518346695519469 -0.170076674346849 -1.0511669882466477
P 4.938311706012044 3.2449837812932394 7.234167798303013 0.7702006914360671 2.4308255725783487 0.6954656645160215
P 6.373439044936494 6.991739246835966 13.300165864799087 -0.8792337203070342 0.7341309422967034 -1.8191516458680024
Ni 7.402595761211139 0.09247113846993152 5.7200684759890805 -0.9146290690871925 -0.4756862236274066 0.4724977985970959
Ni 3.209119456839926 5.1945297472793746 1.8801756994315604 0.25877381987394144 -1.2564520921738298 -0.4973829918745498
Ni 4.107813468101666 1.3564926699829307 7.023516334942098 -6.584976233541679 0.06005119965562561 -0.8990335286417807
Ni 6.856174543348304 0.8132172147155826 12.879494345623305 -0.6960251365639174 0.35009529039775833 0.7153361781877035
Ni 5.738395267932018 7.477744534325521 5.07222930023152 1.0748743591659167 -0.2775611277837736 -0.8611799481291168
Ni 4.035943880010654 6.988413082084467 3.0579311749658435 1.838961481505078 -0.6672483215415411 1.522883685703345
Ni 4.042464666274893 2.0462208505290067 3.084761297700042 0.9611308121931577 0.4016093991166503 -0.12100305674864967
Ni 6.022716582565829 8.832508350313324 9.224001699943043 0.19679943505367398 0.28347440794441503 0.28913006356829557
Ni 4.435741366384372 2.0698046740495246 9.386233036711017 -0.6414994947122113 -1.0101645776923571 -1.1592142561655778
Ni 0.15601403954744458 2.92187600311652 9.510549853690147 0.47286623768010816 0.6637037987233925 -1.1346782186974265
Ni 9.002283691824175 3.2884212379208706 0.23522749873950735 2.378013313873324 1.7219714025705637 -1.5633001418471786
Ni 2.1586621318318104 1.7141023604972367 10.626229135259091 1.4190723102426335 -0.5042573503968799 -0.13167776285367644
Ni 7.990180616860183 8.828364738292388 3.2294861085782025 -0.4120277662364969 -0.7909885747156957 0.014957649751096818
Ni 2.716687342542389 0.2440239830342917 12.701297418048133 -1.1419809230064268 -4.408350488313343 0.6666675093374066
Ni 7.748300788617677 4.131500647024067 7.601179072010399 0.006922438151446143 -0.4360133305178168 0.5498360674679433
Ni 8.400163308292164 7.957473330137106 12.651364544209454 0.3338811425317411 -1.5458158690194863 1.0354081827504942
Ni 5.636223755198109 2.1078582538336272 5.349536541455744 0.19754196964665333 -0.20789580207715164 0.05907032379959503
Ni 0.9243938017371663 5.030194658285806 10.019481248506422 0.049329699473063426 -0.5490104862428545 1.569321151230278
Ni 1.5861859567488983 2.0871589856202006 12.810542198649072 -1.4644885335939037 0.8267932431191309 -0.18183741442720297
Ni 0.13894160634553987 7.899857391560287 10.203687822903792 2.029466856019924 -0.37916161163609535 -1.2343832852992485
Ni 5.022677901785243 4.457182914302229 3.5704508814165736 0.14116821884261496 0.1668972481776029 -0.049282648285211894
Ni 3.7009126468349156 3.4818085907891163 10.935317222967697 1.132769431710488 0.047901708777285244 0.42129890712577767
Ni 3.6700093816719743 7.26188207952059 6.4272195585089005 -0.43836357591754826 -3.3902910812539413 -0.9405748424186768
Ni 0.127643921325193 2.2392793453003534 2.2903679204509952 0.45572854955855713 1.5098183678789545 1.9388773785661255
P 4.048186797160946 9.35361689066051 10.289362873902652 0.27665147148531066 0.8518445296608038 0.41308268986357244
P 3.4562985984153296 5.364643342832752 9.865941161442224 -0.5275343186469496 0.6245752081530469 -1.0144284951750338
P 5.331522634502144 -0.03593103566725584 4.059221395703774 0.926756962698978 1.5689126029379494 -0.4947275565295738
P 7.357880455978411 2.6526821609400915 1.152870313544605 -0.6552893494074521 -1.2920014500333492 1.734303184663039
P 7.237161346579363 6.503056114843085 3.392253953841404 -3.2239353074021055 -0.26920607095085897 -0.16456860004442625
P 0.4145942215450774 6.251113228835449 6.617916852144507 0.45727326833785764 -2.2874166373306735 0.6511393317948205
P 7.9663524987533965 0.10630291002553081 8.717078218706982 0.16394176509370476 0.4957107463784496 -1.0157754961212313
P 8.73861466567566 2.9611322639407125 5.2964541466433275 -0.32724486816214604 0.1608908940825229 1.0324141331191767
Ni 7.247196216507614 5.115049443231542 13.366834796986272 0.6913321019636223 -1.3497049753924046 -0.2247936062737548
Ni 0.5009542369800508 0.7350758329194128 9.413214434169788 -0.9349135303678415 -1.4248421228468753 -0.6231623869659204
Ni 9.222825327550705 6.589583378110196 2.9384823974153895 0.8948745121680847 1.7229288813878263 -1.8395518067909093
Ni 3.3054185035577697 5.038726176913946 7.428909106935924 -0.08951527055301357 -0.7418789616732384 1.2543008501587818
Ni 2.534218078491212 3.1328149824135814 0.7285672613844875 0.6921831371100079 1.3154159723025474 1.0997274136538544
Ni 8.945776474831188 1.0773861051713844 4.4002970407005275 1.3080155660734185 0.7593092413345439 0.4049181517749091
Ni 2.4235244430747893 8.846733811990639 9.050026370737504 0.20068000105500278 -0.4263830065169044 -1.2450322803726623
Ni 5.041601336275412 5.355923905292098 5.973736457613596 2.3360413403169122 -0.21311951236993618 0.5238139323725689
Ni 8.35754329893397 6.518512445397369 8.564115982298768 -1.690248874656302 -2.456062235657951 0.7893926909834856
Ni 1.705448694575963 6.486913880258125 8.608328604440517 0.7045529715292704 1.1614017507352 -1.4639262333325305
Ni 7.229794925208811 4.403034079661295 5.333914842258448 -0.5275975677847171 0.4104197983194287 -1.2793112561601905
Ni 7.86406823467198 4.61781600071927 2.2327059417406105 -0.1519532252732609 -0.11264620014352213 -0.019479191770534192
Ni 0.9014940030581998 4.19905749607288 7.068581169352101 -0.07456584833203288 0.17224437142212917 1.0130038469133649
Ni 5.302752248996238 8.305893785829474 11.629005794595008 1.3448196222756452 0.4248269748836941 0.15155084762851964
Ni 9.356445070293846 8.061824702256178 7.411897747380586 -0.027948662694126054 3.863951789810887 2.4762309972963417
Ni 8.873136419198868 2.1154031981710677 11.656220211505296 -1.1357503687156827 -0.537588617559158 0.1955550211236116
Ni 6.328357297824365 1.4136294153328388 10.56079764911081 0.25694730818816397 1.2618596363426462 -0.10498996914984499
Ni 6.081986207572772 1.4620185353052157 7.617351373621362 5.039470182453127 -0.22622751050680392 1.6748500236027284
Ni 6.373175958458974 2.0641577107284763 3.212241729571348 1.566360011719425 0.9164080153644864 0.01461337903780064
Ni 7.759275253108499 4.1434053101318336 10.132563333300899 -0.7806054317091589 0.9671945018887341 1.148471930047409
Ni 2.7727717419822184 5.191053247397864 11.936291739932603 -2.5661843838280385 0.3653131357887773 2.411684223763208
Ni 8.992173654330916 1.6907628315629872 7.277624046821896 -1.1470933045323277 -0.10018534867235004 0.01670522856982284
Ni 8.90248935333357 0.7640642043638357 0.648097564262268 -1.4762122497887349 -0.39826105146970764 -1.4057244281808177
Ni 1.3380108449371704 2.3021006377538122 5.7759696544892085 1.3957858289108669 -0.6912786230178676 -1.158547054895224
P 4.116702032663583 4.49941768988977 13.596107145388208 -0.1656266089952954 -0.12911205900902925 1.5218313331794306
P 6.036772917221883 3.227516718375055 11.797218590348303 -0.058375868835731724 0.5144684866019269 -0.7607302900517867
P 0.14364239794207972 8.306138080415742 1.4824425023118093 0.03789883192830248 0.11481672543227968 0.004018377130773725
P 0.9227269609831663 4.796169840586389 2.0393815417080567 0.7890579333518862 -2.714205878147061 2.1579713633519413
P 2.1322501286779554 1.7850041661888014 3.6423740263976523 -2.4263361693484278 -0.8324928646070695 0.3631238414469424
P 6.1142894686339435 7.057116236499617 7.607615294764006 2.899452061145497 -1.1972077046902156 -1.8220726761695394
P 2.2612000864451214 8.594311732756093 6.754143969798782 -0.9612043457435704 2.2476452709700063 1.2001745006280236
P 3.134478064789331 5.490877872314089 5.026118697073375 0.852112695720526 -0.05450070215104163 -0.1868595502321427
