# total energy = -381175.45466661325 ev
CRYSTAL
PRIMVEC
9.18272142871956 0.00000000000000 0.00000000000000
0.00000000000000 9.18272142871956 0.00000000000000
0.00000000000000 0.00000000000000 13.43984101463717
PRIMCOORD
 96 1
Ni 5.533021356287507 2.5011897113844914 4.854524749081905 1.3203702309840293 0.22455037991469715 0.6954301832923959
Ni 0.9908707577526064 8.70455892772332 7.499753713325658 0.04612507649283669 1.7637893670476141 1.925840342876509
Ni 7.179869014776078 8.9947053823478 4.427849589600737 -0.6093589054239247 -0.8902203012255249 -1.0288431279384669
Ni 8.110519484228298 4.860937961852412 9.915753479815312 0.26031622466039683 -0.38895597201869786 -1.6693802587374087
Ni 4.212435796504753 -0.02021943470701781 1.9040758926953596 0.6536273883239969 0.2236198976806278 -0.7439960080162412
Ni 9.233777539392719 4.162233857477882 7.569842672537364 -0.32472750105693104 -0.007206030830135976 -0.03002791382065796
Ni 7.26106263922744 3.372345327543296 1.684495898806163 2.255816751037205 -1.2209883520495812 1.697379315053496
Ni 6.430366094470206 9.10715699115026 10.803629913748768 0.8409677348473 -1.5314745126961495 1.600174646276025
Ni 6.541284188764256 6.33677579584905 11.031260399671048 0.07146638347110272 1.529537957795069 0.7822720207783044
Ni 3.8736668309698508 4.547999992198722 10.048337287469522 0.35191717409784556 -1.1735661540118756 0.5231996958273376
Ni 6.079641225402657 5.37205742923391 8.881329073479488 -1.015054815905123 -0.7779222284500409 -1.1955467720480248
Ni 4.122142094940601 6.717289413810539 2.753635584178219 1.1752970206600533 0.45197396761213127 0.2462641174427049
Ni 2.4767361237443675 4.3852546171533175 12.427041430151302 0.41177065592036827 -0.37752099070887885 -0.3141597528434138
Ni 2.213540957037185 1.7545793483849044 7.059988584193348 -0.143383738436695 -1.4913804728887412 -0.2405704094920373
Ni 5.179293737254384 2.3681504407385607 1.0211939410440882 -1.3541355003599322 0.34995516527546827 -1.7450573378557495
Ni 9.173759270967691 7.306305908586392 10.280618821885874 0.6042886899898691 0.2788281674216553 -0.1707374478592995
Ni 0.5794848297475207 3.52277667291337 5.154407643426558 -0.8379150640639054 -0.5422284303240146 0.05060136709663544
Ni 3.021767382021462 3.3601047596408233 5.528156350379982 -0.006227211856634437 0.3004030653789536 -0.38764059564138403
Ni 1.9315946728079856 5.272746295051432 3.690338385441781 -2.480664350477347 0.422343289229892 -0.6893906619665353
Ni 7.318904602631548 4.295502696163994 4.458250826025881 -0.1452380180366144 -0.43759044519694956 -0.24380280038640592
Ni 4.72154424785426 2.520574436697409 7.17789656617484 -0.4262644786611691 -0.013444041320047815 0.2818145037434888
Ni 0.543049626954249 6.580145466606165 7.826946940002454 0.7737688684032997 -1.293125279225147 0.6258363342536577
Ni 8.909397898616387 4.695428587603224 2.5627359846849664 1.88173769613034 0.2823405514502879 0.8172842751874312
Ni 1.3319629518541445 5.108816348918691 9.829415694719565 0.8144138956181716 0.9589206919157163 0.3098223018103245
P 4.840139097411977 7.82699377188265 11.67639985236613 0.24975670397699568 -0.30435459382753394 0.866058873487973
Ni 0.45329862423708583 3.465329566538374 11.361007341226818 -0.4408151227818344 -0.06990983761726025 1.0234749216480181
P 5.576556639427509 3.6330703421381263 2.866369102534023 0.07489700641920649 -0.031425308388816846 0.32276137846949576
Ni 8.385753198962593 0.8912914880991968 13.526528173891018 0.44525310394852996 -0.8458137500856917 -1.0100457927263056
P 5.523746807464177 3.199893815759021 9.407525651467939 -0.9629760929320125 -0.8660295629119343 -0.38703664350879796
P 2.2809237681912324 0.9400994899860857 2.2363490009652884 -1.1298777119849894 0.7467851407256042 -0.9032701924309476
P 3.8384143627195932 1.114681393183244 5.436684505633619 0.5919545939045483 0.5383576345146986 1.468060310105562
Ni 0.26373511073768885 3.8225558025038615 0.30022632813276495 1.3978745931190957 0.8627511492709786 1.1239536331910707
Ni 1.449042652346663 1.8187298415331976 12.859562310207648 -2.4293142781401453 0.252474617128791 -1.3849990227080082
Ni 4.186467059799432 4.888678963827934 1.4158737436290922 0.9758822594707194 -1.035369616203075 -0.07187184643963752
Ni 2.9220613908098727 8.205156613112681 6.398533271746492 1.8172539146246576 1.6354200997418804 0.6167868224568797
Ni 4.00814778890812 2.048509084311574 3.2395530721086008 -1.3259909196049164 0.03852129600364979 -0.547313815266722
Ni 3.5732173627020294 0.1266049376157258 10.473789308432602 -0.6168996938856601 -2.0700692029223187 0.7195491878277865
Ni 0.08785109761662174 1.776590332077498 1.9464651721787765 0.1972851164408409 0.6497779326709197 -1.2039223977062299
Ni 5.20102923929876 7.226195845284687 6.917499374741388 -0.5884676637972123 -1.45689118086262 -1.3220486471277166
Ni 8.337075591722527 6.6489424168877305 4.374533789676846 0.028155379388293447 -0.22371322872538246 -0.6099998814420333
Ni 5.991670752405141 6.685508014327825 4.675169667193295 0.054716931926905764 -0.7132407291112555 0.032883638101898205
Ni 8.192291620140915 7.762632076137391 12.630117318495776 0.2635043925803913 0.8232469205287692 -1.1490298594334083
Ni 8.094651741290958 8.153705823947224 6.443852757694784 -0.8179800157028752 -0.29229791977331593 0.05240345330238072
Ni 5.387870075841605 7.491705057836898 9.309778334775178 -0.7896881107367174 1.6404070114335103 0.49413337458900064
Ni 0.913376851836809 6.24988888400119 12.218993098056497 0.6340535799571274 -0.89693627979312 1.0596562566645813
Ni 2.7442655350501743 2.928911701128886 0.9955190514301995 -0.11917037441528511 0.3269545906152369 0.8074768021787061
Ni 3.0992603696650987 6.5277947707231965 10.965150313731765 -0.5412740368305451 1.428346793566024 -0.3819363461677551
Ni 2.4352761356876047 3.8631617974511494 8.093257804150976 0.8460947716612203 0.2868518090570802 -0.4475061616487648
Ni 7.234331736628716 1.4001997561176664 6.289697818712968 -0.8411130021759127 -0.15010305943839955 0.4500597813085539
Ni 6.130247204180247 4.489708075435859 0.2960555359787491 -1.234580746022035 1.3899386261014708 -1.502891301741818
Ni 5.9456377689879645 4.135181559622905 11.277908302041952 0.43130512640887014 -0.6802930705406413 0.7367850920900988
Ni 7.624487212277826 2.9467812773766067 12.873795528698896 -1.2689304271464985 -0.7336858843394848 -2.2153614712356364
Ni 0.18897306450005036 9.243694878728556 3.37817084613094 -0.14716197453220464 -2.4240391457841346 -0.4793752424432196
Ni 6.4466837907663015 1.2217335616806388 2.490510206155252 0.5645404635576535 -1.4858484873269184 0.6071441571607931
Ni 8.173090549260143 1.8919253154646378 4.053146797872319 -0.13224160577694646 1.944785002299812 0.5282632263931741
Ni 7.612274192540174 2.3474801344006266 10.088227030131442 0.19206423436153375 0.07930233457575374 0.3267283335370438
P 0.6812890728463685 3.0357802151941353 9.344493613811409 0.08762833794294586 -0.7941536027072387 -1.2923236092594583
Ni 4.0296445401907075 4.676457084762632 3.8739000720986745 2.1426609582471166 -1.2847098014679423 0.0586769450159183
P 3.40205143194277 5.2627095803347 6.666577833734466 1.1354161253047155 -1.285702761508831 -0.651122362513956
Ni 2.513687395491967 8.211584518237762 3.338644739244665 -1.4957706315366368 -0.6237730239667257 -0.24513591737553267
P 8.602134850915983 0.683155001876963 11.267411532972698 -0.4793639295893099 -0.49184303589292716 1.6330356586701038
P 5.916611185987427 8.070831761441736 2.527684618037908 0.9421403871335838 -0.6041601348318046 0.6813032569727105
P 0.5927180498557378 6.985994213482075 2.897830943304805 0.7801189789910435 0.01784834103533055 -1.2731154117621235
Ni 6.103002069171517 0.3981196500990823 13.295148382736496 -0.6481799920561805 -0.3549310212235049 0.01655430481425536
Ni 7.826635645739968 8.14471593949372 1.5157183939369514 0.6610452780546228 0.34541948218864377 1.1177590743445847
Ni 4.780175925316592 8.554559170268787 4.451423472510886 -1.0632833118942076 1.2520436786934888 0.31049773061079433
Ni -0.17656812588080772 1.6080873905843434 7.835991920785601 0.578669446759868 1.302380736385144 0.024313379934383934
Ni 3.2282867909686583 6.5183549329109365 4.988076415593519 1.872906470991955 1.3582032426714028 0.01007975283350522
Ni 2.720261900768806 2.2401524842550145 10.022560469645791 0.5202768657535879 1.5031458409547855 0.1701499507869457
Ni 4.484712674881512 5.690606041789633 12.610979608394093 0.5163793304713946 -0.4456341414370325 -1.019173980279819
Ni 7.677985748361701 7.107986670034476 8.501708016058222 -1.6244340330440215 -1.1944239712974913 0.3388202317045713
Ni 5.240799606579787 1.7109706034720438 11.199997500565186 -0.9887187491137553 2.390165375854825 1.208695907835473
Ni 5.508182094339878 4.787099697408464 6.073800096188281 -0.6870504438691328 -0.5467944524281423 0.6132394714252535
Ni 6.078667856912287 7.143643178035452 0.23117317991835776 -1.28534486394878 0.21723482008989037 0.0452591289481156
Ni 3.5240438884951715 7.215396964674554 0.5699044962946701 -0.4838314784423603 0.751951258307576 -0.8935141414854483
Ni 3.6167710112852465 6.2166198836181 8.463847654871506 -0.667929663879282 0.39259716831571095 0.5632299722763461
Ni 1.108023920017983 0.5455381445098154 9.974539427000645 -0.07954401827291462 -0.5106203165004303 -1.084518824234216
Ni 6.850741906928796 5.860550670575127 2.647823083097804 -1.576077496117505 0.21178716671175785 -0.5813197398985214
Ni 5.113426075165534 0.902529302802157 8.9944528575036 1.139641990460605 0.4124404282938833 -1.7103263621324671
Ni 7.707379640226529 5.73235069421622 6.357313870995839 0.03673026554149803 -0.6182672636571481 1.4572840454256646
Ni 3.2161839638902943 0.6612376819447635 -0.17233764603634472 1.6842214375152993 -2.9474417016508982 0.8268017277595632
Ni 1.7552588697838414 8.42971088729653 11.840567630988499 -0.5240080506612459 0.3943077232489145 0.8107752704243198
Ni 1.973155670802428 1.0516144611846072 4.4325943018552065 -0.20730419123973973 1.1562523453237765 1.7343381516660326
Ni 0.9195577417506533 7.783798249442116 5.3877369263783 0.7443801308285374 -0.11064305367056429 -1.797512727441988
Ni 2.0445972449068823 5.367778280964927 1.329320164575576 -1.8001069705317256 0.30508427290470685 -0.42089215860566215
Ni 7.945873285810191 5.795316616277177 0.6054232634715377 2.138612499209356 0.10346659052678311 -0.7389324774504048
Ni 1.197674831069627 7.741282248400519 0.837468801942585 -0.6751184683182373 0.20130837866762105 0.40947517501797226
Ni 7.9542479279160085 9.271794006846761 9.171777639644846 0.30847684352602356 -0.10853937706400019 -0.931285446696951
P 3.679837943283883 2.5218049213927816 12.540957683050122 0.6613988047392996 1.2987909621513567 -1.4253188053729775
Ni 1.6087209983752442 3.0418591768981393 3.043801322518074 0.32172908055023947 0.5630805911826754 0.6694445578619116
P 8.236001374991456 5.283591089269602 11.917403135765056 -0.05845505881309933 -0.47118293644041437 1.6093336870674737
Ni 1.4264164263063834 5.519045254001263 5.993873687318721 -1.3944835651596759 -0.636008132580337 0.4734943581824103
P 2.1687660064802032 7.630988579175763 9.223131091961267 -1.2427949064017114 0.894399372303879 0.4088722513266506
P 6.374186203677012 8.724090576581954 7.573996017520326 -0.003445535346439227 2.0978132058048065 1.177373700683424
P 0.09786026416853118 0.6860943910634458 5.66217817223789 0.13613502729408167 0.8228627977164732 0.061654282476687375
Ni 6.897537056239375 3.3570469133456067 7.844028638736272 1.0796524972808503 0.031704273081816364 -1.0823066470742455
