# total energy = -340890.7212952944 ev
CRYSTAL
PRIMVEC
9.03229279357406 0.00000000000000 0.00000000000000
0.00000000000000 9.03229279357406 0.00000000000000
0.00000000000000 0.00000000000000 13.21967350154580
PRIMCOORD
 96 1
Ni 6.197507794890349 1.9469378382452807 11.261932506120559 0.8928178867493721 0.13059867085688476 1.6027400930103557
Ni 4.749676399449194 0.2782750096946692 5.885464654842291 -0.21710857892467128 0.2768468753255684 -0.3176356272071562
Ni 2.7747926468741153 1.6406708495268636 4.834421887878195 -0.11632699142921901 -0.7859582113806399 -0.31590321789708176
Ni 3.2850720360344012 4.192980056914367 4.708662563706224 0.24010889647458647 0.662863305099968 0.17602209329700652
Ni 5.151965694321483 4.306895335365372 2.9381389548508747 0.5617873262925486 -0.22283314011327432 -0.6025184854633236
Ni 6.848040628689645 5.8998034198709135 2.7782863377799867 1.4484805882014216 0.97178057859752 -1.207785480206062
Ni 5.149120522048087 4.3609445762669585 11.568972659113903 -0.28139644236946376 0.279643464234099 -0.47740474898040997
Ni 5.536036854351108 7.597422876330348 12.345364172307416 0.7350591105379276 2.064618721330709 0.5275062936224915
Ni 1.5892319412824556 6.507866412306697 0.4585604798350042 0.9422059502641967 0.5135845413350768 -1.2673304296492303
Ni 2.642252780398533 1.6637935194312858 0.40932725752444776 0.0034671326129940287 -0.8891080419979527 0.21167480950360962
Ni 0.549812832091796 0.13820582383145916 4.790730880510354 0.9152800724076302 0.6045946512660619 0.489157261530648
Ni 8.809728201291927 2.2257918179168534 1.2423864733403636 0.10048693907316887 0.9593361821865801 0.2575445754525307
Ni 7.107466146265745 0.5630063023767138 4.529906260759178 -1.0831240007692184 0.6321082833052984 2.255752987678805
Ni 0.6108340999071421 7.320411484416784 2.5225649635350607 -0.8350768232841618 0.004850643224081969 0.39462474026870104
Ni 7.838901227851725 3.7242130860668636 3.8105843872235186 -1.3240121986119906 0.7192213721747227 -0.5036089181796036
Ni 7.65604245745523 3.7862197770410266 12.538702208962938 0.027184016613959635 0.358336447360628 0.33992580606392425
Ni 7.931527391863385 8.991051481890082 6.85343561725758 0.5498075282228532 -0.3311503738641393 0.1398708401874301
Ni 6.894267903912628 0.6477960490410782 0.14971386825537492 -0.7425603040109792 -0.016541449298448932 0.5972497808652165
Ni 1.912922223065572 6.365418120485352 9.21538202528117 0.7048509623856635 1.508243824302983 -0.3371137905364259
Ni -0.2517155523298436 5.03033683770705 1.4394503308300952 0.8701420424184111 -0.5446092718513654 -0.608995608547235
Ni 6.5196806514609875 1.7583796910090628 6.960422223800896 -2.0110549291716397 1.7333577900306338 -0.2666966742654439
Ni 3.554107913289526 4.262682261466096 0.28646910584204877 -0.6475364449349106 0.5793700723713183 0.35132967702549167
Ni 5.9578539665411165 5.934839684151871 4.925055528069184 0.7157807219242898 -1.809870991897025 0.5909773175929435
Ni 5.19906006966588 2.92311192910088 9.44942318680282 0.12130284737725562 1.3313359859669134 -0.5388150337670914
P 0.18860240547158186 5.509165782880149 12.283959032042485 0.43766860673305263 -0.01927736017237325 0.6528614566922498
P 3.9386487525515848 6.242597001203972 12.637426073932598 0.07575421221317921 -0.6743119132565419 0.8565067110231636
P 2.273084903705742 8.356876130589576 1.8081873671500572 1.5020986306371937 -0.1995769977988111 -2.436655291886249
P 6.439591310038132 7.834087015719281 5.893806880593747 -1.082778701614658 0.02705906100032114 -1.1473249609271596
P 4.6450463181316834 1.0037406488822775 12.658538155430486 0.21047693254076658 -0.9733019003380528 -0.12692662132193622
P 4.043459479727724 6.0277097200726795 7.989785681271012 0.6058650333380533 0.5246829652410834 0.9402627104948968
P 4.632166268411486 1.0213807169773308 3.6399445027046418 0.23856829146034397 0.11866720952662145 1.3389533933028555
P 0.09618217773875809 5.518740013387449 3.597112466394579 0.005635601019222552 -0.39341297934878694 0.2793308180896867
Ni 1.4295861637196967 1.004950976135087 2.7141308643174393 0.04836425023600058 0.7480413817302085 -0.43689470468150565
Ni 1.8392458096240207 6.413478951173412 4.608642564700909 -0.40998836720896487 -0.5023387932179284 1.233576987347869
Ni 5.9348667810306655 5.654287633409193 9.186681914491597 -0.1591111764742808 0.5187971958842679 -0.2439313555444702
Ni 8.38633043783892 2.333556104881565 10.183233761429761 1.1470331407183534 1.2460139275596411 0.12981731260616997
Ni 2.2508925599732557 5.425201587789716 6.928008034157928 -0.5253573656002888 0.03728408116243902 -0.4316465689086888
Ni 0.4792904953418946 9.251416357931047 9.413412338114561 0.37081041145792265 1.0646035733675279 -1.3752113471936251
Ni 1.4147551387263135 0.9357094185228602 11.555435961697592 -0.2540298774310528 1.200198154777107 -0.4853242609378029
Ni 4.381285299948504 6.821097298875236 1.7013723741724374 -0.4889212342604418 0.3814228968664463 -0.16707388296478323
Ni 5.470941119194402 7.960548149052022 7.9884507083757486 1.6699294463726593 -0.06256702409894385 0.5795500495926084
Ni 5.074378298040629 2.8273786563208128 4.949538461289078 1.5891096467111148 -0.9464199883455443 0.2635306178326365
Ni 0.6042269776278121 7.57611569730514 6.918860127876991 1.7253410903737447 -1.1059538541795404 0.2014078803599628
Ni 4.913594451568512 4.08588415962658 7.211212869334563 -0.3408038377935034 1.239015898975253 0.4249262194657198
Ni 8.199136166835347 7.444587447637876 9.018950428296636 -0.957732842255202 -0.6023277096087561 0.7537546300649018
Ni 4.565390526769535 0.24146389985268768 10.58593131594255 -0.10336194662811876 -0.4028869802774932 -0.8125706717618458
Ni 8.435168045719081 7.223774982343575 4.814089293260286 -1.7173968958260037 -0.47621869909210884 -0.4689612461987472
Ni 7.30206689747308 6.301650132389563 7.0881243941824135 0.1135103479160303 -1.2562584881057848 0.08531048844304662
Ni 2.345135504419639 5.436184855994316 2.359473366218967 -0.19394216811053694 -1.5336514657428102 0.7595303562064145
Ni 2.486048306442643 5.43748550617644 11.373612292071037 -2.0609628697456763 -0.4610095954518382 1.8499331500252334
Ni 1.2871198073124892 3.3347044856925265 3.7792007822040246 -0.9592791036963995 0.10371727308500846 -0.426284276155511
Ni 3.6072268280191775 2.694631047107808 2.513734090736016 -0.6285380494555369 -0.6542585941500926 0.2057764417413037
Ni 1.3191031565826294 3.51857487289734 8.227462340697558 -0.7872666457794183 -0.439314884087224 0.3598305154076512
Ni 3.5094522570366107 2.2568267764291954 7.042094022945336 0.5179703291075983 -0.05760145256355241 0.11628945332306423
Ni 4.066383439187655 6.889381433436732 5.982364899869098 -0.4945061845473871 0.30428825936597276 -0.376361680293455
Ni 0.8444182274064633 7.312517260394727 11.194049405365217 -0.8317924961059352 0.4352728528073665 0.5757124210140729
P 0.26758077486387394 5.728298241689207 8.117685658867726 -1.1943938893905042 -0.5232732293777504 -2.0664737722615767
P 8.458037811421423 1.7236505246877725 7.981669262842842 2.133773168839183 0.6716616201178884 0.14912424046489803
P 1.9215661274009361 3.2848010672464594 10.434791248633305 -1.178417568566906 0.013091800186951646 -1.2661860316321418
P 4.045636262324194 5.92295318665413 3.7818183406955486 0.10098419042456157 1.7618396995204109 -0.07506309968342556
P 7.001743157503534 4.1277578696566195 10.366498081778877 -1.0981533842985152 -1.0671947311334717 0.06385463256211583
P 6.310926297230125 7.821712774403243 10.280582911415259 -0.17276373426070893 -1.0456532575172701 -0.9464107323741635
P 2.437590054865602 8.513893510909295 5.910053265889483 0.3440208020689043 -0.7559120427275369 -1.3427321436189972
P 6.913597010785855 3.9051299134831043 1.5090387284908882 -0.7204765847380624 0.0010988894911335915 0.7388633147753662
Ni 5.30362692493287 2.7446699499478466 0.47041717076607253 0.3287039692061759 0.3561132144570641 -0.0185880474148325
Ni 1.6131404206719109 0.8949891323001624 7.153601292100826 -1.9678696520334171 1.3745577727700262 0.7882182110594103
Ni 6.948985534491138 0.7566288562595761 9.111871948287154 -1.2736193479817357 -1.1985644758284262 0.8920133885702055
Ni 2.9791573067403094 1.6702967703419045 9.39434968388281 -1.4532756955972197 -1.0404971672376275 -1.5070842567772431
Ni 6.3616787512117465 1.8948576372027424 2.5333784246325504 0.5773070191947025 0.8382179400163047 0.21823215100615317
Ni 4.124009468090082 6.856576145509832 10.43190904395889 0.27598684131811824 0.6210278571214207 -0.7984175201899153
Ni 8.147941130500087 7.222889817636297 -0.1573326073430234 -0.4584577755642621 0.7334030629917434 1.7394194228436817
Ni 7.591669305733037 3.9168628620010124 8.299773974677173 0.7141164468479896 -0.2760061245918279 -1.0625996555636215
Ni 3.0257007122158903 8.294679761463854 12.416195413475572 0.039109564406952 0.12533279447225512 0.5585299956975156
Ni 0.1122759172839532 4.958493979730575 10.096565297835662 0.09859614980835922 -1.141331719458202 0.9054324901895889
Ni 8.533574877206847 2.4076660683838247 5.787097565443425 0.9945489826422873 0.12989213170816338 0.20665807301530859
Ni 3.57238927418271 2.4655088723166054 11.43702711751321 1.1187160389412152 0.8368997354255134 1.4798506178722708
Ni 1.2793700999773352 3.5369284921339754 12.449693478270312 -1.2685843566609896 -0.2751651167477713 0.5694229884609355
Ni 3.2081620617234035 8.162618606513636 8.009985501182827 -1.3205725768028225 0.5193062743102024 0.5328649868312436
Ni 5.775266164932564 8.014263195115147 3.541034572500596 -0.8005672195430663 -0.3142993637450716 -0.19140963149667034
Ni 3.24063315481184 8.031271002705001 3.7671968648981737 0.5789813215733319 1.5161365967874987 -0.23997134245545773
Ni 3.4178286775403377 4.623657848470093 9.55876270565477 1.7038867771547108 -1.652364698016019 -1.6867182357952244
Ni 7.205972332975756 5.960509460662953 11.44182597474767 -0.40439364673000683 0.3772463968912535 -1.64013473160873
Ni 0.5389686611983392 -0.039879379750783164 0.32972024054412913 0.5745153153821784 0.2592502452897277 0.6611815465221709
Ni 4.643330182474715 0.3711640134306334 1.5772388627281229 -0.3725502769671648 -0.8366480244260237 -0.728569646158842
Ni 5.940710674557292 5.594629338597198 0.2952114621703653 0.6857155271077933 -0.7127481057455531 1.1902860378697175
Ni 7.913797000839018 8.92158411695457 11.187453121837404 0.45608644711860813 0.11702556015814038 0.8681332395184983
Ni -0.14859386393187946 4.96407593676219 5.756692157748402 0.37876206220483155 -0.7403653532421894 0.6460472619838937
Ni 7.898640813300103 8.885418816057184 2.4570745171772503 0.917643173323168 0.09208920192777689 -0.4488925004733302
P 8.499179905724018 1.719333088666556 3.475703094498379 0.9970912894481666 0.2066866122603989 0.22088501524796794
P 1.8192121839021425 3.3994298968390457 1.4277643502354305 -0.21161361724837105 0.3190037111992764 0.9524852207030178
P 4.907506686132738 1.1451953884811668 8.436729729166924 -0.5303208802531512 -1.3326958424289175 -1.4166932684874955
P 8.415387324199283 1.815156684375937 12.334722324775623 0.8181569076003716 -2.0324588487687127 -0.2606918628322607
P 6.533626511747092 7.810729506198642 1.2908230474143694 -1.2750038870340878 -1.5162980620660271 0.11227133330260664
P 1.865421394539261 3.455746243266418 6.075193387242422 -1.1417862904971172 -1.138149979296111 -0.15407104294721208
P 6.723295631013874 3.9075505679887237 6.22047781904423 1.2102334275259221 0.6666561964834969 -1.993201960150619
P 2.2966953174284606 8.473175934374476 10.114041881428658 1.9629531885684066 0.14409284868857763 0.18787153643642485
