# total energy = -381176.17680109374 ev
CRYSTAL
PRIMVEC
9.13630120228137 0.00000000000000 0.00000000000000

0.00000000000000 9.13630120228137 0.00000000000000

0.00000000000000 0.00000000000000 13.37190032101675

PRIMCOORD
 96 1
Ni 4.841061012973127 7.243021987424785 1.6848590946251494 0.9734317410476977 1.0786204564719102 -1.7189979217645361
Ni 4.948266370364316 3.1220933653610583 1.5289426341602546 -1.0078966075937865 0.4384584496241997 -0.49601233677926837
Ni 5.3891751263163705 0.49724592957411595 9.871952436184126 0.5830714324823055 -1.0204464192343392 -0.8146113563409583
Ni 6.581096970977568 1.8788529172853106 2.574371199336044 0.5009912780510986 -2.199024681748826 0.2981559212159897
Ni 0.6880420468408124 2.356535285262209 10.08818949756123 -0.49900278686616 0.08910466537815623 0.9791267345499459
Ni 2.4319463147412335 3.6491757135164256 10.864548512849089 -1.2388840013830793 -0.3481872747417681 1.9922072003375173
Ni 4.991325757562601 3.2819786350342985 4.1551303653221145 -0.35916897056425234 -0.6643231774749462 -0.3171075226178281
Ni 6.12417227915482 0.4402235333677389 7.294037265642011 -1.623730579219094 0.09975366045157014 0.927274525765345
Ni 7.909615653746461 2.8080238779160682 11.576883070748996 1.364853915218701 -0.4874821878210701 1.6189735241500827
Ni 4.347390118028906 1.8551259432658018 6.104552986120744 -1.6449375523140122 0.10010435892276953 1.3985579923393656
Ni 3.8529883189947487 7.9713130952380835 8.750504363874441 -0.9279137020112406 0.34252647691156496 1.1941879440272853
Ni 1.7618168998844985 2.13703565075366 1.5590028921190486 0.810497848393217 -0.7928845061868279 0.19488653430167727
Ni 0.921350286868455 7.139763512119245 10.62241003778492 0.18757791645540597 -0.31559879928278556 1.0862244940714132
Ni 1.7706425667704613 8.882512951557569 12.391017950295026 0.2956146428513748 -1.8213450539748957 2.0966189283863894
Ni 7.866748128871784 3.540535956848739 9.412146154986807 -1.6952992925960157 0.025260060118369402 -0.471432076336743
Ni 6.847109514509344 2.1619229350159404 0.1978630461862537 0.13167493464019905 0.2929229549518246 0.4783974519109826
Ni 3.274441186606846 7.183444167793974 3.6533500895000657 -0.23684950899702437 2.018668994073472 -0.2871297453088152
Ni 4.446582939334184 0.06628021013551384 12.17040825519989 -1.6062943860205174 -0.9480343840205159 -1.002442012237119
Ni 2.6027860094623723 6.6650138968032095 1.3511365098319248 -1.3507349593188158 0.9063727426156712 -0.07889507183500606
Ni 0.23018545230339604 5.136008222165199 1.6489561720974388 1.1724346115105937 -0.43158769064629543 0.989716080030018
Ni 2.5749659725392284 3.1884685930282632 7.795951845090586 0.2828473158833774 -1.7612216063204378 -0.448046607533267
Ni 7.495448851184897 1.9509748783596286 6.455739610512849 0.22378187717978879 -0.014311274416349546 0.5486065659362165
Ni 4.5529112118174515 7.749693838868723 6.6317943059156725 -0.020792254155002902 -0.6638477805004245 -1.432945725790616
Ni 7.695935843054017 7.359765643189624 10.631115105496045 -0.6084729032745456 0.9076220416417401 1.318269896811575
P 7.938522910503382 8.273816025459855 13.168259532271485 0.12452341119708231 0.06282901951107889 0.10452562791891677
Ni 1.0563482722794153 4.626047302316554 6.589418314041477 -1.4235732834367805 -0.5279402958361166 1.6045653191445526
P 1.1356056845317217 7.2672514580061245 3.7581187953814346 -1.7466840748258952 -0.8537291482780266 -0.8851205181051143
Ni 4.1545228012973565 5.741050627813237 5.18528851679894 0.6457189321101976 -1.3552228198868401 0.2659140304631485
P 3.0608070574200235 7.707246583845759 10.96580065642776 0.8087911501147556 1.172205011998291 -0.06852864099901747
P 3.1328650643864724 3.114345782007749 2.970313822045194 -0.11306580417944398 0.6215433633052586 0.17413901734168075
P 3.7825108921227844 1.083373451004755 8.27810186431721 0.05834193027400274 -0.20454873998178966 0.06399784300819945
Ni 3.9874746715427545 2.320063171174462 10.324136301353535 1.5447072093363396 0.45982328845322096 -1.9731964635629693
Ni 5.572924414525982 2.4726668088517267 8.338863748573715 0.2555481138477922 0.8949357044233232 0.49339315398886635
Ni 5.799833589246246 0.20457914114264222 0.7361181769863872 -0.09399001849491555 -0.2098876356961998 0.9949906981653962
Ni 4.503438141229989 5.330035849139519 2.6869094156934197 0.27316659826050377 -1.8902683593091705 0.31135185108097346
Ni 6.780231790280309 7.989183700236989 5.9001099758648525 0.49506051438896026 -0.03938621510710636 -0.8800603299733876
Ni 6.954552415729762 4.14568799811027 2.482359510714375 0.08966773697047783 0.8948449444817298 0.5065613159397083
Ni 1.4753207692322996 6.798979480187136 8.355177527861061 0.1541558893515345 0.47544685392309083 -1.5468039439643684
Ni 3.884051742816978 6.240797163005044 12.670491006273066 -1.266078302409684 0.22612775170414603 0.4201087434724184
Ni 2.4739915725147337 9.09918033271762 6.839365585676486 1.637109314518845 -0.9720106923304549 -1.482042740427583
Ni 6.0814600713992535 5.318533246024169 8.91233109753657 -1.6650721182803583 -1.1148784103626799 -0.3326940642021754
Ni 4.775900913355438 4.7221520538418575 11.236902119685706 0.45692539808013566 -1.5032420002130176 -1.1278442264947286
Ni 8.061625431850654 6.327107799725221 3.595302600307555 1.2653357678167048 0.633756874652315 0.9636111554128501
Ni 0.2990594583280661 4.633977611692346 11.028514968234504 -1.611937700349224 0.9027886248088388 3.36540511664554
Ni 1.4728082864231484 1.034384604376874 8.472088377936473 -0.5886219299868896 0.06649875505318224 -0.18027726902893468
Ni 0.2037888510954002 7.696438339615847 1.6802324717358619 -0.649002745067792 -0.061832459925764485 -0.05602819453916157
Ni 4.517727316188214 0.20073093110913542 2.859260254620499 0.23293140488954076 0.2716424483064935 -0.1471169802268821
Ni 9.079327150374766 0.9167455911018656 2.6889157474202907 -1.1374033309380733 0.14106768870900865 -0.8146527511018552
Ni 7.989375562560598 0.8019068541214199 9.11082363487028 -0.8645118407158273 0.6268141247858946 -0.6045838526327846
Ni 6.882777634098163 5.385758149695924 11.661527246144123 0.9415415772073205 -0.95780868979846 -1.2974850988557396
Ni 7.441316267024101 2.927170380876567 4.4345504307536325 -0.2615503541778141 -1.9549490873170077 0.19192770878366947
Ni 5.328546632056276 7.049679583034778 10.461572765534541 -0.9031400946109867 0.3430507248461511 -0.01199393913708257
Ni 1.8938912689357195 6.474476336858328 5.716754462233692 -0.386312877968896 1.860499098466538 -1.1007255159010656
Ni 6.524844764955961 4.944063671847191 4.780240656389426 0.11324038208409529 1.7829692824101744 -0.4014746733109989
Ni 6.7187810289190395 7.593910768400241 8.39461163077327 -0.04345987095584773 0.22282362703157754 0.0553944176099046
Ni 5.508659672418463 7.125108885116052 4.0436492190048074 2.021130568240087 1.1950672613084452 -0.5581826396604257
P 8.962793629535783 8.053969211508585 8.985596009881524 -0.13056036141978158 0.12596554296024756 -0.8370241768185197
Ni 2.2107930097292066 5.158766748265543 3.4354419986473497 -0.993948887164443 -0.4980489075933229 0.04441760688342673
P 6.40543330926286 6.042082613554015 6.740133478276372 -1.1085825500516393 0.10871009831390956 0.70909096860894
Ni 2.4782764977419762 0.7541084675300203 10.533834512016059 -0.42711525669723865 -1.3339425703518253 -1.0733152422089127
P 1.5312623410156854 5.230806482629744 12.745066064199225 2.157815811610684 0.3871058061838365 -0.4594563920321055
P 8.55290261590034 2.958937299885359 1.5284885599943827 0.26581092922638094 -1.8270526458826344 1.1077196878307116
P 3.7639185193350673 9.092803194532939 4.904371925243281 0.06949691844955773 -0.3032814153680132 0.5395028038627353
Ni 7.180392643218497 8.513598248464094 2.6193948912760283 -0.7749996554866072 0.12962936496507999 0.47034141437572546
Ni 8.513790110787703 6.520267478092744 6.190547506822025 1.1747367772812092 -0.20671977949117945 -0.13594039478477235
Ni 2.747788244604315 1.8494797091710553 12.587076577009254 -1.1471084740409794 0.4009907916960449 1.1922143652406825
Ni 7.274633589314466 6.286981165187799 1.5086710092259126 -1.6051440744661583 1.629325299698052 -1.107146588936061
Ni 8.233817299138172 0.2761227743557991 4.7863784234846545 -0.5607714834335245 0.4716051115794975 -0.7740396055661831
Ni 9.000855460019139 0.3588282266523731 11.228478450049208 0.2147681037169527 -0.21517588067833263 -0.14428362454314503
Ni 2.6544700649218878 4.427597705598127 1.0006378489144712 1.1832782390933168 -1.2661734332266517 0.29238379461890296
Ni 6.03469134594455 7.24947221601846 12.693396626821508 0.5897408740826812 0.5065955116117534 1.1493761870292334
Ni 5.839613044340948 0.8701687279707695 4.829502678420921 1.0492471455161156 -0.5776788007118244 -1.4860567466829826
Ni 2.8756507788372865 5.676137208325902 10.290853669988241 -0.9298052626069988 3.4706105442403 0.0576454184276104
Ni 8.325408717908129 5.755422029481581 8.953222440478086 -0.2785327476684235 2.163470695903616 -0.6863775861718243
Ni 1.1506074909776336 2.377813730580436 3.8764466857612065 1.1920145905250503 0.6709735929119284 -1.3944791942843016
Ni 5.257484481912364 4.040410400256284 6.544127842108665 -0.5983427568190792 0.5102531629689986 0.5781302864269463
Ni 1.4211699124692538 0.07692765546563926 4.616621380446731 0.7651186489274695 0.047350207149189416 0.3910632481696878
Ni 3.19865556878173 5.439717144135362 7.25900320535121 0.8574796164593942 0.2462234940127566 1.0158821969024248
Ni 0.13350328654704358 9.040031919239645 6.824242266425622 -1.2106370907222441 -1.1714578494196213 0.9541929474227437
Ni 9.158502335916953 4.224936274061451 4.6089331830507305 0.4338266072791432 1.8598876901347843 -0.3619239076015702
Ni 2.7603049771444486 3.7301507503800786 5.302105262972772 0.3976792108243087 -0.5621971601364576 -0.49101334090278015
Ni 4.7825795494772185 2.684537631921581 12.46834760301013 1.4020847745457012 0.49027466296454275 0.8921745967384184
Ni 8.97191165805772 6.360236027601516 12.972454894728509 -1.0966364334333565 1.001026877057147 -0.8319976701382059
Ni 7.694145128033677 4.333950619075229 6.783965796549764 1.0350790815458497 -1.144174588223636 0.7933822717588529
Ni 0.8790601762248266 2.0927976807103548 5.98669287435853 -0.048565567613529266 0.12628821640698895 2.268799022229486
Ni 0.7630903651652067 3.3049016145548795 13.261862764548987 -0.3825945485770443 -0.1620401771956177 -1.891669610532071
Ni 2.0734744038327033 8.901470776390251 2.263688538717789 0.6819036095608707 0.7350223437627212 -0.3797061712856557
Ni 8.985259794000156 0.9570001338550256 0.21725849984278645 0.35009117663270034 0.16434311429718146 0.34734575267707923
P 3.5454786957569233 0.23083595694343803 0.7121271638643893 -0.5013118946153108 0.06524405671047473 0.898230573124511
Ni 7.6221784840784705 4.375009156327318 0.19978715120300708 -0.48002161777796687 -0.003814745760399882 -1.1541792648448317
P 8.96053696315811 2.5607133427854993 7.914025746299105 1.1602378123340857 0.020351567073158498 -0.38217340187922566
Ni 0.9466487046813237 4.53745259031533 9.075548376229802 2.7133327315134883 -1.049790162503779 -3.1780305744501915
P 5.521057633043983 5.163599851560237 0.45179100422106977 -0.3185460548365675 0.12926941052249996 0.24935355500130602
P 6.134404936413907 2.53715995848735 10.671591660366524 -0.9528971114294555 -0.38439354945899606 -0.7912060900431406
P 3.772269098562572 4.394167979784734 9.01484039614993 2.393292351519581 -1.266108641426987 0.33749945601061876
Ni 6.658581940811784 0.4169405835828654 11.887338237469258 1.3887957707462792 0.4713824540457301 -0.8293844008850749
