# total energy = -340870.0958909653 ev
CRYSTAL
PRIMVEC
9.23273803738944 0.00000000000000 0.00000000000000

0.00000000000000 9.23273803738944 0.00000000000000

0.00000000000000 0.00000000000000 13.51304537718086

PRIMCOORD
 96 1
Ni 3.3754797250241144 0.5001586446022113 1.2540024572726343 -0.02784633278830688 0.2908707004084861 0.41688946520417236
Ni 3.0819340578384367 4.419628513895056 7.2940577118407015 -0.3857158678148454 0.2715804847203065 -1.3647006774702883
Ni 0.8305078514034001 5.867201783098078 7.9904794347302035 -0.7626300781776608 -1.4810536370414364 -0.7647764350967022
Ni 1.0154442068969751 6.406938405039563 12.404880372454896 1.0252551534768923 0.1265872357046465 2.2261297654957337
Ni 7.950929155604478 7.090419522559263 6.883072542483698 0.5341952756068928 -0.04475416428723905 -0.13113911674138706
Ni 6.003338502688341 5.914805779449885 0.48949390911230195 -0.47087183295789875 1.8469061902734516 -1.311512266372767
Ni 7.782717904725198 7.803759314284112 2.7570801766052453 0.28900639350623775 1.1536506460348712 -0.7894456557086081
Ni 4.740770834512764 7.257919852624136 9.68374509084516 -0.19495646830766425 0.04526298560285753 -0.31665680823365466
Ni 5.709285034920943 4.050900662401238 12.266682905776634 -0.2715570876815388 -0.2020210884639295 1.3433769762918477
Ni 8.236626995618117 3.6493042641633497 5.395596303569102 -0.6123655534607325 -1.2810344094988841 0.7005124829113096
Ni 1.77743129435062 6.288611636760904 10.296359405727559 0.39459285858950105 0.274224864321689 -1.9979554156752042
Ni 8.982318300767467 1.0762510183735077 3.011868656846467 -0.7026287579233641 0.5393567652031743 0.14629962653190934
Ni 6.785000554499182 0.6280523758404779 12.260412953503065 -0.5919314539760967 -1.6174730283451564 1.939896049638627
Ni 7.907295236527938 2.2201226087564483 0.7925751479489006 0.3896784520070192 -0.7661650879141126 0.47706022115679775
Ni 3.141614475297335 7.193900048375992 3.1090543019974355 -0.7635387060348592 -1.4622213348262818 1.5186413654872233
Ni 3.6526372825270044 5.009425040456303 9.551277461276273 0.3595772617462646 -0.6154511343645915 0.0611500891467592
Ni 0.43942384848090454 6.107613043960123 3.768221004390588 1.6003553948282632 1.433603671089589 -1.1267502220996013
Ni 1.9375085031845287 1.6711347834898065 6.709334574727731 1.5675272925546486 0.2402690762015346 -1.6728908429938285
Ni 7.889965387584505 5.597495045039701 2.3420270629517708 0.5109224211218812 -1.7969398856576535 -1.7644218584252902
Ni 1.2213342609398958 3.37028169361487 0.09010044212529392 -0.8689613918467487 -0.6035821508411476 -0.8068304268439589
Ni 6.95310101252427 2.301444563734477 3.785706886603677 -0.1347018943919809 1.0216808058620725 -0.8275316639470521
Ni 5.679029352988268 6.5763129808878755 2.7332163190857504 -0.4696857830695975 -0.10220854974996592 0.8107780986377972
Ni 1.203127301900764 8.088460018610009 2.098711182762286 -0.9083386080927904 0.4319797838783916 0.1708487766261832
Ni 1.2674148555465423 5.199850258601381 1.4459363047823135 -1.527238363127615 3.010674898578931 -1.043963271409357
P 6.5733400393003505 0.621931070646287 8.544244278560154 -0.647357239044569 -0.4090972228532632 -0.1457761499282715
P 0.16355795100315426 5.358588720447117 5.644588470988434 0.7143581305451504 0.07016977614686624 3.3576277866929654
P 1.5757975324562998 4.087739286420577 9.430686825676927 -0.8063000082617855 0.3910341947039653 -0.24740311614315452
P 7.633673817621392 4.5380476095522075 11.268609171869628 -0.0638435768185223 2.2285355467237493 1.1655198866686314
P 5.647933491911292 2.105322746336283 13.688038892582332 -0.2435819426248515 -0.36951174725115715 -0.6248284618144336
P 4.121004840892176 2.5712251636956496 6.666565763187686 -0.8019913535841027 -0.6082692719041718 -0.17844767201936365
P 1.5917517034601638 7.851178655878931 4.724255313047653 -0.6549463642457366 -0.04367738628329252 -0.9245756387769433
P 2.866100345131649 7.655103002169985 11.515290385005242 0.978986609427656 -0.5538035367561237 -0.30370513316899306
Ni 5.603754841301635 0.25715113785689825 10.355762841050975 -0.8850364430317403 -0.27667923939945255 -0.6873533198215324
Ni 4.887571366319152 8.783251239995298 3.3296955013024356 -0.544202780441566 2.429269540945139 -1.441729385520517
Ni 1.3432156332905951 0.7626970849942685 8.530271453098784 -2.3421801062247987 -1.1875146457721677 2.0952847829559977
Ni 3.1437749359541085 3.8882567524451805 11.667122758939584 -0.2818978074859145 -1.0615210777874622 -0.912310705366661
Ni 0.30468958176997424 3.170891487017968 7.6786658724355865 0.6808340306457759 0.5131831921316 -0.33173298584048677
Ni 6.329494199958305 3.872496468936155 1.2820681337874174 -0.5288427530457279 -0.817183745053825 0.9433035542037496
Ni 7.677981726560942 2.6154407452567052 11.951558483689201 2.1834407112676395 0.015152025150090032 2.4650035040116385
Ni 3.972837863884068 1.504049926628159 4.859128994100111 0.2761886729162792 0.7939111476791295 -0.06064255338272136
Ni 4.276465680801355 9.390525339305569 12.379855036513938 0.2978700145444547 -0.5451216927114096 0.1990571207395991
Ni 0.6517186527699945 4.46846969711869 11.500857769198968 0.4412630089525304 -1.547813359065489 -0.546554054282562
Ni 6.26432030347898 1.241461629451715 5.717045151083413 -0.0480721729168785 -1.0131180038937262 1.1527474174943115
Ni 7.2366568573568335 2.5566466706313546 7.949305117016759 0.6542189991614088 -0.8146357818209905 -0.3926784151756076
Ni 3.044273720150496 6.692608546839653 7.996885108250157 1.403327131593235 1.9016282644066798 0.9366030022551224
Ni 3.119834446710463 2.6450039718506706 8.682077052093362 -1.0008702968746248 -1.9404344386406 1.6265065993023344
Ni 7.456756094950071 5.765733994132532 4.727173781481867 -1.445358497632672 1.6521278994148643 0.1967909504132417
Ni 7.402929233287729 4.990350204059323 7.716786923742215 -0.03128029817052032 -0.5875744625589816 0.03702902772883945
Ni 1.9834136757720353 3.9677136943776192 3.0256522111819235 -0.5289425118483859 0.30544114202349326 -0.4647286961746383
Ni 6.074042809139494 2.652805635333463 10.414138672651744 -1.6344646778071463 -0.6035132452764251 -1.8378847035011316
Ni 1.0149456390531044 1.2437236502248321 1.1171982107358553 1.708359982434716 0.5939335720077901 0.38455450051689255
Ni 8.612510218945264 5.933825219419769 9.898156961923132 0.574212953650411 -0.897416561863648 0.3164848014321646
Ni 8.234143389136612 7.450957935580611 12.170645813214136 -1.8583411715832703 0.21485295012127512 -0.031945956778977234
Ni 5.655255053025913 3.6656739083704393 5.719531527386272 1.0454658240968124 0.09588774973826067 -1.209683211449407
Ni 8.158259516751915 0.1815054701087163 7.244748428808099 1.1929705266804167 0.7262034599195106 -0.45485077493929404
Ni 1.8879563991464858 8.483085699771557 13.12801794558559 -0.6645239806318426 -0.264537461830596 1.9415294714769917
P 5.281421497501345 5.635053822611298 7.908590589648218 -0.14501381784095024 1.5747006703746362 1.5021662506503355
P 3.300879203200491 5.252781544692326 4.255298706007687 0.9615972103066147 -1.2736088064587743 -1.258811850655258
P 2.446647831892908 1.9834321412477343 2.8804812576059655 0.48290253887018775 -1.5598319807929202 -0.6196417754071716
P 4.01013812479588 7.6798098086551345 1.2864324489688566 0.5906541299255699 -0.4012152490020252 -0.4119727446288453
P 3.677316390798606 1.8557249113140268 10.76391079006684 0.8805961478721995 -0.003540923273722934 0.5952417492962523
P 5.908712172469243 7.745593065832525 4.746430502814482 1.3142085822580076 -0.9406188082827349 2.2485415575320307
P 2.750728052964818 5.058700162358861 -0.1161367628607664 0.5613057586704399 -0.24310705987096193 0.4818650987446088
P 9.297459341783028 0.9707300574920483 12.316235009814676 -0.3279434368910674 0.09815160607177291 0.6691000300382993
Ni 8.386945200545147 4.714115920341379 -0.12958147571714762 -0.9100617614314843 0.6927240972151425 0.5730405306088646
Ni 8.585587555376245 3.288867411258346 9.9162512815605 -0.24734449499107727 0.19398536264364655 -2.994130106846373
Ni 0.6887114635114191 8.623469478772572 10.755262484523252 1.1468156253909088 -0.6279929755853443 0.8969483639779777
Ni 1.840758643260055 0.6982211834963612 4.494060076616034 -1.4020251249523596 0.02899818700456296 -0.3400021678278144
Ni 8.627947356629559 8.68893882286308 4.701945325308222 0.6212991085049364 0.15716690826371643 1.7176473212739127
Ni 5.234454560061151 3.542121410468988 8.203607955247099 0.667079914284477 -0.03798162145009588 0.5751161821909708
Ni 1.2230146192284972 7.915909380941483 6.947691551418272 -0.37754773018175625 1.940598732132606 0.03775047927589628
Ni 2.2500828430779403 1.349503127766076 12.557564928092743 0.9939476016128623 1.2122268038068673 -0.06392739478158023
Ni 5.542551022097576 8.039821955619063 7.195412370835734 0.10503624900674814 0.5219172295704883 0.33641496469718835
Ni 3.0341731049431884 -0.08150568646123316 9.940790975490575 0.7545503864933198 0.41170303590722646 0.958643784105246
Ni 3.5273305644341555 2.906161194660449 0.3410637990754852 1.4500353342830512 0.016948712039196616 0.8107572727021908
Ni 4.421114984688819 5.904806724358922 11.65482567539789 -0.42900630307236437 1.457657369604683 1.2824269189710367
Ni 2.4722225157359072 6.191049295905678 5.881647324737341 -1.5667528762824696 -0.21345169889837434 -0.9941764297942169
Ni 6.074310558537127 5.151341453940327 10.03455773781589 -0.1085702303019356 0.5290913787214243 -1.0049408673995726
Ni 3.993103723463629 4.799103272245643 2.0897517339531717 0.48555026090567993 0.6417902864797527 -0.19042104233115592
Ni 4.573861399670257 2.2799415172830884 2.710284044815266 0.8905985105005501 0.16561992412707605 -1.0706780616963818
Ni 1.7095983693706498 3.4645479470578393 5.12402547573892 -0.31584022586963023 0.15010845875503825 2.2066210060388447
Ni 6.039438507679723 8.652894214298794 0.9670655838395984 -0.8689428799039873 -0.21831056965257242 -0.35545166961366526
Ni 8.233035460594678 0.9728997508866711 10.344263466059473 -1.1709685684880284 -0.9516820080754318 -1.8062619343895279
Ni 7.118182365272585 7.537247103521649 9.808552317820354 -0.5588351856427601 1.9131362650462795 -0.2820268768646111
Ni 4.94077040180773 5.963683893624917 5.891350008943336 -0.20198560724030376 0.51940140512717 -1.5511951310535284
Ni 8.545452843944648 9.099694097047632 0.5018565450927267 -0.6298367136623023 -0.8689313099397616 0.3810068923749503
Ni 3.734116194048474 8.497294883321874 5.473729270893928 -0.5133572558156191 -0.7731428047835265 0.8314541389299099
Ni 1.1400307714375657 2.1053781427633798 10.763369751628861 0.8986879723769039 0.26155729615634954 -1.5149006674978684
P 9.160463977572768 7.981471052410487 8.887205405263703 -0.3323834749402921 -0.29229971954552886 -1.4283910165403981
P 6.265899101651237 4.475772792757612 3.4193675443915144 -1.0156803653042636 -0.839819994396102 0.3877969187135902
P 9.103221002906125 7.002967029649194 0.6907666709567085 -0.4015410077725601 -0.7410454100283496 0.731808464811114
P -0.4031290327208989 3.509262096462766 2.27165144196806 0.7890047115164476 0.19878895467987698 -0.5595982890610297
P 5.826993209763687 7.618375171004839 12.569172326117082 0.7702919655982928 -0.12962216587622838 -1.7909921527146513
P 3.1703005917956024 9.027438690637771 7.837971224385281 0.3244104840371445 -1.1869184069490657 -1.9377880021566884
P -0.10138561759868683 1.732763308634941 5.596373267390992 0.2624517829461609 -1.3111690241007354 0.15187840617126747
P 6.73373116122114 0.5346207618990995 2.5917753916009736 1.4550083620176104 0.8243671501761416 0.8848610937961406
