# total energy = -381171.2708749826 ev
CRYSTAL
PRIMVEC
9.20598937863874 0.00000000000000 0.00000000000000

0.00000000000000 9.20598937863874 0.00000000000000

0.00000000000000 0.00000000000000 13.47389601130607

PRIMCOORD
 96 1
Ni 8.478863652140637 5.733582338623553 0.5204385236532328 0.11796581258422265 0.610027392245859 -0.09238256479847962
Ni 8.988350730650044 4.216039406676857 4.612680386137414 -0.42390163485594734 0.2262640201716942 -0.3886196717252017
Ni 7.601026520592575 1.2586889183672476 1.5892456225920581 0.7542770782272752 -1.0811231682891058 0.35152996596175584
Ni 8.164258165972912 1.8794764102835657 7.031177609938716 1.1816059935972165 0.3578003723514999 -0.2765370573946334
Ni 8.147521677008996 8.91555897144339 11.776791564277493 1.2966806006765734 0.56662074312545 -0.3733691733240344
Ni 2.814574796702678 3.2277488127585596 12.500973365793124 -0.6044452701723914 -0.8163440227613488 -0.024296667763835576
Ni 3.043150310720893 8.718826975206358 0.5758153124676743 -1.6839722976189708 0.30026319736697965 -0.5952538334811103
Ni 1.3027856082116733 0.8271977449453001 12.699578780899328 -0.004697148365353201 1.2216239287510509 -0.21142232717317136
Ni 1.402882332361661 3.5365084955753026 10.376974826429024 0.05370366017104299 -1.737816597132936 -0.12361529756051613
Ni 5.94264115484006 8.286835916552981 11.696864242586825 0.7823607238373688 1.4336964879137115 1.283801687831376
Ni 1.5497823072776322 5.378875562067035 5.406737489376879 2.0833304388075993 1.6092457553393575 -0.7263533552338135
Ni 0.673581080068892 7.19490429251599 8.78625992790812 -1.0830563807560767 1.7718207219925228 0.07090099788593597
Ni 2.5536770534477666 6.595888965836012 10.053022499092394 -1.753214419745245 -0.34401720252447854 0.7272588977672184
Ni 6.617707161019998 8.066536587121433 2.77465210251075 -0.4368430255079638 0.8025711373469727 0.18850377070378502
Ni 4.09602092118588 2.231320124096532 0.8372957948597783 -0.6128355511186155 -1.068622978939566 0.1881841825808372
Ni 2.4426804376953153 7.753753886880472 4.782276807638446 0.038162884222966535 -0.2172769861817355 -0.4386345701907478
Ni 7.689054192469904 3.5956938022579354 10.61831904792411 -0.5635426184207585 -0.36791766329115994 0.8234389819349174
Ni 1.7528940542583349 6.611345822255384 1.338371360736439 -0.7485252633451626 -0.6487104106383538 1.1795277709119492
Ni 6.6820017918912855 5.720252065785406 6.986363773509972 -1.592569323124941 0.3200259818162037 0.8034440268702291
Ni 6.8084644700526376 1.3510157873546682 12.759779508227023 -0.3983862641936623 1.220852340692349 -0.041788653901011906
Ni 7.9184030096085625 7.115475014858849 5.02251631039004 0.49610026850738426 -0.6721359886511458 -1.9610207474323842
Ni 3.257088301387826 5.767386732174437 3.3707647806922005 -0.534495323345815 -0.3925066654844337 -0.28237371868106853
Ni 7.658895370772546 2.3347494164560567 4.468940827426785 0.3301065059806573 -1.649469892966727 0.5670796850397395
Ni 0.8497864814528716 9.285253098953296 10.455446681175138 0.42449993056157864 -0.873099068164206 -1.3345907454587855
P 8.065625194158052 4.18433397873861 6.648626397452459 0.12284602349465941 -2.029098674047228 -1.1613495573410257
Ni 7.386480934616721 8.05554463562368 0.23746665870542677 0.16189542408763732 -0.5192581946810864 1.443414229422108
P 0.4419648277092131 2.2601348713226392 3.161367184061023 -1.2701666135464447 0.5761929601949174 1.0937431710459617
Ni 9.192797346112467 2.030914938037387 9.474102926955506 -1.0850181324681378 -0.5131659657404195 -1.310064478182647
P 0.11677889777568382 9.128870954822345 0.9181934278468121 0.5690967154697683 -0.2690219799645109 -0.06336175208609733
P 6.051041681545303 2.883039740830652 0.9818841458049907 1.6649805870078163 -0.09194959102611905 -0.05571040618842664
P 3.4636338824628856 4.302004936899665 7.0424015523726045 -1.7311091032057735 1.0484421331163167 0.3121874596083914
Ni 5.823349942521883 1.1860536609825878 10.48952265141713 -0.19743706863767288 -0.5191244973166995 0.7730224771555784
Ni 4.104656139364183 1.0151352593851748 8.278240284129653 0.9797214307111515 1.5169822326172455 1.017432314998364
Ni 5.124735015126488 8.39919501875574 9.612641101582188 1.2376524429688234 -0.912640577902254 -1.1340428991062728
Ni 4.124844874401516 0.8100792074159244 12.384356493433152 0.866628629948514 2.38733921925994 -0.6933447615182768
Ni 5.266580901790979 9.144088455513959 0.580862035927531 1.6627200731084137 -0.6413146323949148 1.2407524220503858
Ni 2.794450503592049 5.629701952777102 12.508707317596528 -1.5152179416279712 0.3748971799327866 0.2736823615546577
Ni 9.486588089954882 5.050092852024483 11.202372800421385 -1.0214069833753956 2.9681429387539917 2.016575858989869
Ni 9.045943401144143 2.956420683367169 0.7953993365128093 -1.1618249543155474 -0.2420858176952992 -0.9620474104701561
Ni 3.9609506428148116 6.405030390918551 0.8486145589858163 0.34905553627933433 0.37307709600491235 0.1167954464252053
Ni 4.541010837054357 6.64677046996339 11.231745430612953 -1.879070433710822 -0.6716616201178884 -0.6879559864025377
Ni 4.9247901285437985 3.172770643290729 11.118510838805976 1.0703191356950663 0.07767636893655654 0.2606918628322607
Ni 1.5362863266279605 5.098553180905706 8.265898734566932 1.6119847515370755 -1.013655621564751 -0.03793508448287661
Ni 1.636005605207255 8.69952201516382 2.676683803139891 -0.8542114872310838 0.12068912505265667 -0.43042709467929097
Ni 3.28200891504312 4.5988520692657415 10.51474522152898 0.9770500545265753 -0.42505914549915824 -0.2687946944450532
Ni 2.797525304094771 4.191045145105329 1.2922493531956096 0.17436038932386747 0.8152466759321122 -0.11400631371584236
Ni 7.3009572918913115 7.959526164835087 6.97278217715768 -0.08390358079319098 1.0655852205545067 2.0715061924791613
Ni 6.735442561107755 -0.08287507953788606 5.02676027156296 -1.9505121345915764 1.2870297078503705 0.2714619568645712
Ni 7.206043539846211 3.6693877484384427 2.678556301410112 1.2705808182657279 0.08449622007186738 -1.023844389172295
Ni 5.650967788589342 1.2387855690053164 2.770515851415322 -1.1705399655910422 -0.7243090711102752 -0.12039216263752812
Ni 3.4134152095816037 2.2530646713642843 6.043271826382735 0.19739104589108583 0.12460157273318541 0.4528450573631749
Ni 7.5974638026448105 9.037750070463236 9.467877836835923 0.41471868280509866 0.21254332815149204 -0.8532234122862015
Ni 2.456848455580612 3.2659260513357693 3.5977725146936077 0.007490909060406454 -0.4254802921969769 0.5287152263289281
Ni 7.2201010858571575 4.081549105646122 12.95947675369138 1.2472830240800519 -1.0216226989306276 -0.012798437316248926
Ni 5.33198945739529 2.2365951560967106 4.768964026180405 0.7528915107336582 -0.188875552220907 -0.9415472336342751
Ni 0.6198926697340889 4.522967097577307 2.357177048146869 -0.04420394821072387 0.7221280042985564 0.7210286005867905
P 6.066360448121738 4.674129445645255 9.527230692527986 -0.5805175557122003 -1.0027531157196345 -0.9619121704438726
Ni 6.663773932623652 2.3651107699230542 8.838822445723514 0.25570032315494023 1.7765307258736824 0.10098933263088414
P 5.034884557322397 7.973961156416728 7.419158515049242 0.45356316647612216 0.8718757372800663 0.8442016684035654
Ni 4.340338677298869 4.315289179790167 5.1896326383119336 -1.053340855969515 1.2967885870093472 -1.5558542270920948
P 3.359873174480313 0.924364202628173 2.7315901658893957 0.5991315712689617 0.4547615576595974 0.11577806090428447
P 8.89874883456324 2.1122774734956407 11.677502205409208 -0.04171871989502493 -0.970365186307232 0.5519361445300818
P 0.9793699900645914 4.559533287986922 13.475378565704668 1.31334572003708 0.8357867048669929 -0.6411202569959217
Ni 2.889603611364906 8.642555351957702 11.379527339325813 -0.31921351321723734 -2.049405246815064 0.45197525316371195
Ni 2.0788413195259214 2.7203054639246154 8.321733981659921 -1.7561182236556014 -1.811016675465694 -1.061516706912088
Ni 5.048260860108191 4.438060256150346 13.190068379416468 -2.3768239215509133 -0.08769235841166188 -0.5025781629222441
Ni 2.6853779396511808 6.8393505649227935 7.2696928308515085 -0.803419601390197 0.8728540420329354 -0.416930602854753
Ni 4.409162655018478 5.877177363298575 8.522791872376681 1.0895353036122009 -0.22052866034981375 0.1824696486945632
Ni 4.234920891201056 0.2657032697891058 4.776388656735629 -0.6544892221036599 -0.7406872553579824 -0.2384973290130925
Ni 4.46010860107256 6.827695782178943 5.798261779857158 1.004211959653348 -0.6935288525046249 -1.792707335633545
Ni 4.06578845157229 3.2802873950011775 8.755984190143744 3.5434578672193293 0.6777422790943296 0.9065378074386258
Ni 9.038302429834983 6.127313304793961 6.790089314952539 0.08097329452027345 -0.5659535418550963 0.761598808699669
Ni 1.6895844642666615 1.8690828481052029 1.415674975411309 1.0837464648445658 -1.15062497183467 0.6979092409605078
Ni 5.925370718483453 5.508799692291331 1.6807338259333773 0.33005585524838 -0.2832754045597315 -0.9713118664912176
Ni 2.8884804806423547 1.7037524821519583 10.458977178159552 0.5445503935889718 -0.23475020326583446 -0.20313129080897274
Ni 1.0382607050822932 7.6402624479656325 12.915794333375764 -1.1897620470454475 -0.01669622970875834 -1.1516161321033458
Ni 7.323917029776906 6.614190473019878 9.289146311925156 0.2529286739470741 0.31802823465988456 -0.8440026650188819
Ni 4.855303319578093 3.602810032163936 2.7622967439637343 -1.0298684838791878 0.47261992599725705 0.6188694160175213
Ni 4.079054282483734 8.005850704145557 2.5130298478798974 0.4517747071171316 0.2914281155738529 1.3604696701080763
Ni 8.668939717948124 9.277335947958264 4.029422951734409 1.0332129748713883 0.043823167832537424 -1.2225688091628235
Ni 1.303098611855663 3.236991626245784 6.131363940186768 -0.7065008392842608 -0.5983838944696598 0.34123449757301877
Ni 1.4867949269194776 1.0490409188208782 4.82781791723999 0.6608113076669458 0.4381195782275422 -0.28882153118894127
Ni 7.780985203907572 6.091004882091159 2.76842793299012 2.2215357183671482 -0.36531622111257084 1.3635542225706712
Ni 8.648124975622812 4.494290440194137 8.69112154971851 -0.8342232170346149 -0.43922232437341774 -0.018714802800683897
Ni 6.068477825713432 0.9638763096871031 7.257888911077287 -0.42885049422079047 -2.101315048310478 -1.6813284322382207
Ni 3.0410053151606102 8.5191766802886 9.133846792162826 -2.701003263413858 0.2570336972543832 -1.3183220902057489
Ni 6.586784242191725 5.741490283629058 11.269594015363975 1.5331608992596368 -0.48408318944185014 1.525942784244643
Ni 2.6921995778922496 0.20093268925916294 6.83385274797601 -1.1131940806817215 -0.9911569262416028 -0.5002433441414804
P 8.989648775173649 7.150835220640151 10.816655648136065 -0.04741499894885382 0.34511994867035406 -0.277355953751503
Ni 0.7899576761021537 8.159259313658607 6.307171642823089 -1.381537289411653 0.7158300871049865 -0.08455638388584148
P 5.6986271963815325 6.595548344223435 13.091816535568112 0.6316696531059831 0.41748416136537775 0.8508132601828121
Ni 5.80882289104495 3.2586717315868325 6.6172726383142235 1.3337474236218836 0.7650636273198178 2.0611158503837728
P 5.322811085834769 6.397444655546567 3.5291096417907584 0.5579607534576069 0.08902958916584668 1.1185946828720026
P 0.5346967602359147 0.37365914720009286 7.93112568713779 0.11739888433715912 0.1981844883266587 0.7650150334700695
P 0.7948782775054619 6.794268834198753 3.5247441615560557 -0.5211901215964765 -0.7947809518785925 0.23375467212178452
Ni 6.600897024139846 4.804845290969054 4.8040498934737395 -0.04563965221598592 0.34491554596903173 -1.1560901087142992
