# total energy = -340895.95859048155 ev
CRYSTAL
PRIMVEC
9.05087210281338 0.00000000000000 0.00000000000000
0.00000000000000 9.05087210281338 0.00000000000000
0.00000000000000 0.00000000000000 13.24686619864663
PRIMCOORD
 96 1
Ni 6.283848333911707 1.9211923564754074 11.29441006506766 0.36429626448848873 -0.1181686726236481 0.3597184153098192
Ni 4.689347195563459 0.16171283178833046 5.956784219865808 -1.6707807386293612 -0.03449134890865028 -0.2798782059527244
Ni 2.928518185888912 1.6440818141454652 4.813487143190237 -0.6095759065307372 -0.09951686185041572 0.36959119433884086
Ni 3.5373522310746117 4.353297375980599 4.978463719354703 0.3823896316550898 -0.33585600686992484 -0.8145113404279842
Ni 5.178030917418004 4.616913068435833 2.6042544115822728 -0.39474018280064277 0.43988361210650045 0.09279548396618212
Ni 7.28577079285224 6.203069302971551 2.6364709898042875 -0.1739220162348682 -0.04523958856408983 -0.7879456741243139
Ni 5.176329353516967 4.5943944993625445 11.326109838509097 -0.9832659535293001 0.29451318225707984 0.8197443066921495
Ni 5.568168746961465 7.810558442372922 12.573514568225466 0.12856775646978502 0.7697720885390807 0.15637937936541457
Ni 1.865221765177489 6.643801505955402 0.48013698360056223 -0.12809853014285033 -0.7975004076922846 -0.7668669990771437
Ni 2.6439225725687723 1.4806411709278375 0.4101891309602482 0.7125516734640309 0.19474075275243233 0.5043825631208345
Ni 0.3722053372183379 0.05894742303755044 4.7276079459828795 0.6189846014391468 0.95513294273851 0.22308356556118353
Ni 8.605650378619401 2.476906834984606 1.3417220547159427 1.2018477745653882 0.11795938482631943 0.2739906368236959
Ni 6.811776635951855 0.822273514478353 4.918746972212961 0.854929853454347 -0.13748074268869873 -0.0852698650130983
Ni 0.8872823063697546 7.3474977386238765 2.627661776267699 -0.5307047459551312 0.6251261955605105 -0.12143937295511988
Ni 7.702282862861764 3.9327938715010906 3.839312847057135 0.7666697954646732 -0.008683129596294723 -0.8240359920889679
Ni 7.630020702298604 3.6329746917897645 12.514566240100734 0.9115794836275914 0.5309970803845694 0.45937720205473787
Ni 8.17348935124343 8.437811011700157 7.34624781322636 -1.1295090157916612 1.2745269473976693 -0.6101500338666525
Ni 7.068359801007593 0.9289905338631353 0.222748290953376 -1.8737572490280243 -1.3874325718501654 1.128642811136624
Ni 1.8559898759271856 6.280409002622378 9.41433581924336 0.7983555566037283 0.8927548947219205 -1.0779522267602917
Ni 9.126175067515678 5.006218217772405 1.4739652478778142 -0.43637945560798397 -0.8444883464060489 -0.16080836167104565
Ni 5.858774139166116 2.033902863175436 6.863412764738038 0.9343306612811779 0.806324690852134 0.35564501657139397
Ni 3.4421099069756473 4.250515675660554 0.49271226489896586 0.061780780752222625 0.36695041428188413 -0.21806374374908896
Ni 6.173699223935047 5.718938169639461 4.661704927956253 -1.458658814286004 0.452685134746543 0.7924589886136352
Ni 5.403506236048945 2.802358083673245 9.201921813727235 -0.6464668660198156 -0.20117082464849223 0.07288563241613255
P 0.3257698393764929 5.4247124287092 12.506194183672765 -0.4212626545712036 0.0855395737347172 -0.26762587094793266
P 3.9749347306671816 6.189719267045867 12.845419954175165 0.15072166685900493 -0.31438498148034244 -1.6409713685774128
P 2.4574203079690142 8.51246260242222 1.4495251787184078 -0.5012031369515884 0.8478248669784495 -0.41611633448357366
P 6.3371489180244875 7.913937500232692 6.025760913960478 0.9755089352917007 -0.7597648408147237 -0.7687187075739018
P 4.82687519277754 1.0493399763741993 12.707625861329754 -0.6201480256196287 -0.1572036750389228 0.3582408023230282
P 3.9596749607887394 6.265628928950078 8.161314118479206 -0.7139043308371834 -1.1595256167584096 0.731728760613114
P 4.70509571251986 1.1086141358842359 3.75903704458984 1.3162796058544233 -0.3298164855440643 -0.168249134219807
P 0.09081192234599984 5.709878246953624 3.7917034511410117 0.9212067223047102 -1.097845109029477 -0.7311242942598957
Ni 1.3932821561788875 1.0007729982201519 2.6342580516457588 -0.06131489685939764 0.13126278680344491 -0.3794084375395788
Ni 2.0317487556836986 6.507875513052404 4.7096184331653275 -0.3336867671327479 -0.17785143319626145 -0.548035781034411
Ni 6.040334627755418 5.513175649819462 9.19846438069428 -0.21725873134929036 1.1755273915033047 0.49220787543151356
Ni 8.530247565536776 2.1955061794148167 10.202868588686217 0.43794088655783286 0.8601471359892284 0.2703052175523087
Ni 2.3457234989121565 5.20085721613297 6.896265619248578 -0.6030393909638001 0.00901403057315222 1.117359782023637
Ni 0.47119019681240054 0.007231646579404382 9.313142546926677 0.6174972182603431 0.2003033344418744 0.04307986190860968
Ni 1.6410950264468376 1.3617579696506454 11.455226860546404 -0.6712664415619988 -1.2946815679686736 -0.7585325110695195
Ni 4.020605429840741 6.920812488695391 1.6434726904723813 0.9883158572483818 -0.268530385040073 0.3920364107162345
Ni 5.425174023171716 7.853387167796878 8.10603501378788 -0.2441480995409666 0.5636166661918035 -0.49881869587981187
Ni 5.594090443836827 2.9689755828975946 4.523062768421866 -1.3708199029941488 0.27977793292943426 0.19490761734759982
Ni 0.9171972478894633 7.284069228951203 6.56897523340733 -0.09733013861174206 -0.22807947611387813 0.7886149322771967
Ni 5.018536454311291 4.440918866012156 7.23247111382664 0.7501913381936758 0.8912369154154973 -0.8671929870924161
Ni 8.353429733778022 7.070794485525566 9.377230865154592 -1.164391429491143 -0.45565347334624756 -0.33099045124750737
Ni 4.567911648434713 0.34319729305439417 10.644863388288124 -0.2292814668417793 -0.0784746964681358 -1.281274293423832
Ni 8.134290025416897 7.244688885688388 4.869786281135004 -0.6472165997016466 0.3267923540057598 0.32449918709620884
Ni 7.1459619759410264 6.172070067008522 7.074766913164741 0.38041271043437713 -0.6478789158759938 -0.2165773890115496
Ni 2.21497460468678 5.150950708950448 2.5283628514216896 1.1067516674904876 0.5297878905678166 1.1428846657676188
Ni 2.4995702180069195 5.199454331001797 11.493683109797006 -0.28352942955206656 0.1372424014256475 0.2851006306939283
Ni 1.158221964296896 3.1564553416532672 3.7127653675278283 -0.4770684486869139 0.7884588663153066 0.3758690569277527
Ni 3.705454073276461 2.7394454736939715 2.630072023431773 -0.4727700784218761 -0.23298694071782455 -0.3194716519746304
Ni 1.0172003305626036 3.3694042536936006 8.234238802859153 -0.7055703570501912 0.5693905925611031 -0.5467965093106711
Ni 3.413916441274966 2.8335654896879965 7.236060689588081 -0.027136965426108103 -0.9230612590149458 -0.29011453896875194
Ni 4.080621760839528 6.66906248918834 5.998392887769236 1.0205659755313392 1.0421007642793214 0.16283207696929375
Ni 0.686180080446796 7.223781371797997 11.395006884931801 0.7043010034194644 0.22071480821869088 0.3716843294224438
P 0.26037638543299524 5.674987136110564 8.017957359816895 -0.38236237796158024 -0.6097509986560209 -0.6770416534828791
P 8.508425913593165 1.5134686829972992 8.09310674848873 -0.17002062429793297 0.8740022967047658 -1.213088380476214
P 1.8689145208776106 3.4181975036429986 10.24389438044482 0.16439505058103943 -0.784634864583526 0.8622477272719988
P 4.021655330971169 6.2267011292779655 3.811322120885088 0.5009969344780533 -0.6485661717510056 -0.8187778290138222
P 6.954653698408022 3.8694015653156733 10.473091417565689 0.38968770797839986 0.6648127155168552 -1.478963330171311
P 6.246241961524442 7.781324126413628 10.089224032014982 0.5172362791550511 -0.807818501788841 1.649835760946578
P 2.349180931945113 8.677713420002652 5.603463526687429 0.1358460352987531 -0.334418760202766 0.7889131802439059
P 6.943828855718451 3.9941768841437946 1.5187933108854887 0.6633117054912964 0.33125733175564887 0.21406567833328938
Ni 5.397233981881827 2.990679573507622 0.33052788268912475 -0.043041809581822646 -0.48741071115318635 -0.008455072745888664
Ni 1.3623643780621848 1.2282033051629218 7.008598704593962 0.1863165332444791 -0.6362608720210913 -0.8331783207098683
Ni 6.79907826279678 0.6670429170832257 9.153292384557671 -0.6609532325614488 -0.05745258569051396 -0.13262315748608128
Ni 2.5061139983284586 1.5526499070802047 9.121725658931904 1.0172567086524482 -0.5916452901942456 0.7949688995196825
Ni 6.510056773159583 1.9684288564727936 2.5298861131479895 -0.37352961016129865 -0.07473091315498742 -0.3353009056974032
Ni 4.083156004947455 6.963957994632837 10.484099087865903 0.43617813823045526 -0.5061075162317412 -0.4471253812705783
Ni 8.158274835724058 7.010986324578501 0.3722913205005711 0.08914528880810453 0.30383985897464444 -0.15090035852871433
Ni 7.460878009838143 3.848711272348817 8.139059834862886 0.812575299747536 -0.676865275806015 -0.45123863210800347
Ni 3.0446861256218973 8.359122732149043 12.340422940963025 0.08319189943814706 0.06560144004989348 0.8170035107222188
Ni 9.05621182839328 4.8331927013037275 10.175580210166938 -0.11972830380128413 -0.9945268711551 0.6732991557213114
Ni 8.529188613534535 2.457402206225386 5.9317612745615795 -0.2832548357344412 -0.14922065683344624 0.10495423081590312
Ni 3.69323539632753 2.636500857681274 11.518639983736994 0.13319111417440932 0.5568266398531636 -0.09079439437575332
Ni 1.2664432385771691 3.3922396032803808 12.582601643526745 -1.0824979371494454 0.31313131157889945 0.4111227379237242
Ni 2.8357558006669903 8.29466242308957 7.923850920130591 0.34912315629247614 0.05646425363531566 0.011369418179206225
Ni 5.813936120199446 8.126270952989671 3.629760727208605 -0.6910024865383454 -0.7703415878893055 -0.14793767635596458
Ni 3.2354241982306178 8.410169649180132 3.532475621341216 0.08100157665504759 -0.06171958849698403 0.8723521626958524
Ni 3.587539315283369 4.392107514319131 9.24349065779468 -0.2528430562118033 0.11478432953244748 0.5434121662194706
Ni 7.224957985133819 6.232321720674474 11.435092291108928 0.21398391725276047 -0.5619894150010256 -0.18616895192302133
Ni 0.5510044048171809 8.912529238345664 0.2639360933174505 0.19548020202161817 0.4714289910129493 -0.0863525565543158
Ni 4.65317086092281 0.2979664662509956 1.6638063790897655 0.37476014013429004 0.3994658704110862 -1.0224487943763487
Ni 6.016657547089934 5.548474049894152 0.25927036889732163 -0.19759339170987905 0.20853497832304732 0.6238450148552418
Ni 7.947670099483556 8.745947942608572 11.276845038138188 -0.5478272645680307 0.6040747742068501 0.49995795169057766
Ni 0.07237167611210937 4.844886427687444 5.834290625822002 -0.19975106148283017 0.2630395371288309 0.35038325395182235
Ni 8.022176876256593 -0.18953792700618138 2.536165608012559 0.4460648012165479 0.4781367420504282 0.23110746430692458
P 8.461089854005825 1.7748035557553992 3.584456588343513 -0.07692354993093203 -0.9186757283527405 0.6518715819751547
P 1.767191772559806 3.3050616059677114 1.5410213469735479 0.031507583689978 -1.087109724889844 0.0212059446536538
P 4.49609298059044 0.9149435808077716 8.186298145034636 -0.10740654901113761 0.7344273904911996 0.11010826421301681
P 8.675251582869237 1.5766618700028077 12.38984613159068 1.3359045791742024 0.3213529281577433 -0.6919031439757439
P 6.474513999545915 7.9116928840228145 1.431761032609025 -0.8604872929374664 -0.2734283365623226 -0.3596114574183097
P 1.7767585440672284 3.251471393956881 5.859287323597972 -0.4817874514291379 0.20512518131054996 0.5317285592339552
P 6.79561177889201 4.068104405120735 5.912168852345764 0.7048689601077927 -0.15451687223537908 1.5561249642549781
P 2.294758039727393 8.4772094567066 10.28405852920673 0.4612160550356896 -0.023454117257882188 -0.07107377601837436
