# total energy = -340865.89966808603 ev
CRYSTAL
PRIMVEC
9.25850642685061 0.00000000000000 0.00000000000000

0.00000000000000 9.25850642685061 0.00000000000000

0.00000000000000 0.00000000000000 13.55076001986711

PRIMCOORD
 96 1
Ni 4.577812806731163 0.53835713370339 0.46364561845815067 1.9635507129430891 1.0295445248808657 0.8879405040524128
Ni 7.499464036280541 2.402489756612821 3.8193226536430056 2.2349622761856995 1.3610178293020625 0.6611895169419709
Ni 0.4758677724051413 7.259826122024078 2.6218006206529236 2.8476990969429212 0.5341016874518221 -0.33351810276536753
Ni 7.894163411262858 7.451949382802809 6.333584799703329 -0.25915434314181174 -1.3893740118472522 0.07892849617610277
Ni 5.344093066880148 2.635322668861074 4.515438250908971 1.1389372510840967 2.185978647198145 -0.26285724591469567
Ni 6.875320362294877 6.514016418936524 9.931297702233255 -0.3058080384446088 0.7863731874308715 -0.036068720698099174
Ni 5.415290979047679 7.332533170691389 1.547388017870961 0.43953651317972686 2.5492359288991584 -0.8141531857576172
Ni -0.024285061588482905 5.486359272129339 0.7433136098339295 -0.8300636863402866 0.14937980811912985 -0.7022657181569906
Ni 4.7620478202840495 9.029339589799763 11.76307554960814 0.8494855425103242 0.08551797646816241 -1.1915469068600122
Ni 7.7718400282254825 7.6407673568918355 1.709631301804662 -0.7710550690165624 0.6795736758761135 0.1141101862835583
Ni 5.004713266046206 5.328446191514332 0.2716343856036375 -1.2583210270617684 -1.3380154548696181 -0.837546624980893
Ni 9.200612694765582 8.256383946728437 9.4355565464123 2.759622358608647 0.15811024601359222 0.6989320257980672
Ni 5.703924907763255 3.9685845861267595 6.291428043725122 1.0460402085430434 0.2628582743559602 0.8372193235484614
Ni 8.783841041160718 6.702177039090067 11.808036707094221 0.9112809785505661 -0.5613438109972267 -1.238343298388261
Ni 5.4137262915110975 2.3002851074037998 8.280570868151905 -0.29213028384720013 -0.3348537908576556 -0.5557220939350752
Ni 0.511917617737614 3.394862736544784 6.3788570429955005 1.563924919915371 -1.9049246757697642 -0.6011288042046485
Ni 3.2343757912246307 7.419544611335142 11.506885278085994 1.1157214750892657 0.22330236644020895 2.307889817583361
Ni 8.86287164951729 5.535133082441245 9.303545062556706 1.1953588244069349 -0.09872753317990093 2.0258364583561885
Ni 0.7954325184119114 1.457455518542052 4.356162318191095 -0.3947283557261008 0.3056067210670801 0.6721110489504812
Ni 5.537336606901046 2.890431546866815 13.085399467727568 1.1576348274936 -0.1436789010796106 0.9612812217280929
Ni 3.0810549296518985 7.153445886548795 6.420715675076205 -0.16545460219380537 -0.7729653986653978 -0.4921942485847588
Ni 5.604673722010857 6.27053622463461 6.084115277783576 0.319018880707928 -0.30670046835189113 0.07526724527443167
Ni 2.790328578550125 1.4286337889480956 2.6956936839559504 0.2282399129511424 -0.4396740671988557 -1.232539290111974
Ni 3.898247715029655 5.450880676625311 4.65761279694744 -1.1219530578212742 -1.2935181437881917 0.7574842723106632
P 8.129681290289861 0.680630745757488 2.7031458555429007 0.7462853182710502 -0.1956925751427404 -0.9720641712762098
P 4.259347971253067 3.669118205234849 2.949823937863368 -0.8772079481262571 -0.05595594654032944 -0.5415260049403513
P 3.982000161514373 1.022768655568635 9.897556002479893 -1.5305388882557578 0.47822801621265376 0.0014619292575071597
P 6.9831819587515405 6.84496172068274 4.283123815004201 0.23768588885539066 -0.29923295633025243 0.10180077278858596
P 2.412155637016319 1.0665984236051878 6.133887155056685 -2.3143702831013817 0.19806878868440084 -0.8604410130805634
P 1.3830449047461553 7.196303511441317 10.621248060264843 -1.0455599264725155 0.012979185868487323 -0.8800508168916908
P 4.905767610996219 0.3679746970276244 2.5178396328303543 -0.415429078608562 -0.6853743417182906 0.8589322897455207
P 2.3522808778502045 4.614059858244282 6.63232438786375 1.3863334252487156 1.1034313448680029 -0.8279324989298967
Ni 3.7481210380730214 2.913272281498453 6.554651076506366 -0.6822028859688444 0.12285450813509165 0.8284590608573281
Ni 0.6518488277399064 0.9470618509140316 12.690042738809765 -2.5289201001599415 -0.44179034221091007 -0.39795174775940495
Ni 8.322767435706487 3.4544041894900888 8.184739774565267 -0.8352601429395615 -1.8248440682670897 1.4930054100866739
Ni 8.85440011640503 8.471134996497733 4.469176273311117 -0.18478132754687532 -0.010218592404214659 -1.1049063867516327
Ni 3.6184093671410174 2.974758020731817 0.8491531485510097 -1.0618301243874486 0.34360222647424693 0.5873870291385239
Ni 7.464216903429853 1.0638579057896365 8.623825353802767 0.09320583203072334 -0.14440960859804808 0.19645850677448748
Ni 2.1955899200448346 5.350305524495806 0.011221309433946352 1.316452641097178 -0.3714495877038183 -0.7058102409751393
Ni 7.4821135957861395 2.7588866917203547 11.591685787465037 4.294881278047893 0.33291620751531054 0.7904578990232064
Ni 1.734331144467931 4.176993559194525 2.425057365313517 -0.2518272133527792 -0.029507008320181438 0.030012744312006377
Ni 0.5748078723514485 2.8392597834663023 10.529143515396989 -0.06107398449318514 -0.48980569374792415 -1.0508623125220353
Ni 2.2600568982532243 8.586644119020765 4.6590089796723895 -0.6170043377843244 0.46371619574972395 -0.5571464850864276
Ni 0.8499308630662337 8.277909973489102 6.625820287304883 0.5831261969796409 0.760994856567083 0.4683948321723159
Ni 6.869339367332559 6.23469654739137 13.030166923536848 1.0980744514314638 0.7499244576855342 -0.17794579268228064
Ni 0.8516918309328478 0.16165722049544298 2.257543213837947 0.17727190654370759 1.177647523170101 -1.291227290871486
Ni 2.6995767014283905 -0.008684478753334718 13.095630117005216 -1.7356399011965915 -2.74552808529911 1.2108821168535144
Ni 6.366130300464228 4.450656483492039 3.4621239319043 -0.1594978703897382 1.9493098867533591 -0.9216792910657545
Ni 0.7956473157542114 6.145176051585407 5.317602629130637 0.935134645239712 0.26470304087418284 -0.1255392540561064
Ni 4.208315085444559 5.7747987722161085 2.3497690451361537 -1.9866693012384238 -1.4297575578706216 1.071747640611477
Ni 1.7375531046024306 0.2779486867867657 10.874281181195427 0.4093116528569144 -0.7172362234238938 -2.184288661090232
Ni 5.686065249431504 8.542999521106884 5.99881295737209 1.1815831107790813 1.4023264582428623 1.574421191461005
Ni 4.540723231159885 7.756017241243127 4.293652588179353 -0.027065231647908222 -0.8803518930718773 -1.9555921202176447
Ni 7.035594361973957 5.362424909024714 7.856893294821974 -0.06571482569930617 0.4116850381850974 -1.0156783084217345
Ni 5.552863121687126 8.967150204100243 9.160394669971753 -0.3033832310532001 -0.8793018545408082 -0.061237506654242935
Ni 3.057408704986635 6.093235832175805 9.79737526271168 1.9810501552794335 -0.47022417207157075 -1.4813431432573971
P 6.193024011283951 1.5512904782062815 6.233363322508129 0.3376465231114443 -0.4570500965834581 0.6381426624248364
P 5.4017272675619274 6.570909939127615 11.354994855710904 -1.773345129056849 1.6486414835281606 1.2319741616371236
P 8.894674618086272 0.9309335332292671 10.29913259581826 1.2283561052685619 2.0104586903485373 0.1537522261552126
P 3.7356868643355705 3.954150575064447 12.377846837834744 -0.7247883247395389 0.6612321972544483 -0.43944883856192707
P 7.177536519508472 4.682045068783447 1.0536300340638274 -0.4076075256816141 -0.7938245015025941 1.4671737937355507
P 6.438939192699008 0.828798322816248 12.689730727153064 0.24685084318411035 0.04793667578027873 1.266507933747935
P 6.354038691453721 3.7082168766371226 9.57563033740905 1.8977728952163313 -0.6234459796446101 -4.055009437284777
P 3.524518856439986 7.114856432983871 0.18490162599450707 0.3723641290982877 0.42367512066743807 0.8167245460292193
Ni 4.246284219098531 0.9266561033955351 4.608165893239621 -2.2673556049147408 -3.2498574265845064 0.7704981680718279
Ni 2.760599515355074 2.892709139375685 4.501793064569243 -0.846672241431245 1.1587715122012043 -0.27645915296884643
Ni 8.273354788471362 0.5206196876526025 6.361403833083014 -1.9171893520697303 1.219102447880778 -1.1696668189574695
Ni 7.936900675575643 4.876131132862505 5.464547157529146 -0.7763643970446178 0.3049210078539652 -0.28784451198765265
Ni 8.66606358463495 5.531670401147272 3.1014977111949293 -2.0540260334165272 -2.817910552826579 0.8558793618518098
Ni 5.653262362200091 2.0113178724674134 10.994814894997175 -2.88122756771767 -2.4197124933843233 -2.9716524945691467
Ni 5.812499409192206 4.450573156936836 11.262402387569805 -0.9292416767940449 2.4541261949775026 3.2459362371532294
Ni 1.4816850290937331 5.009185124508744 10.896355311519201 -0.7271717373700509 -0.6964635096529167 1.8847032065165668
Ni 2.7936894162766284 7.972731094312749 2.3115564127708677 1.4114006526299885 0.6477904699272455 -0.913264584639498
Ni 8.082268480379597 8.559887036294606 13.052999325512967 -1.2427879644231756 0.6844101780328083 0.6919329687724148
Ni 4.8392082104016305 5.346796550671166 8.569595505826317 -0.11798046787224198 -0.2434472168192001 -0.667228009826567
Ni 4.05165190315759 0.41939273669129146 7.21061623607328 0.8732433070515543 -0.03712107322201349 0.5972618650500746
Ni 5.9212590807438295 2.482196235917147 1.8471988151910415 0.12789978386848294 -0.14882650671882108 0.6489361534959147
Ni 2.526313017643843 1.9179921306405332 8.417338446608339 0.8401310978786176 -0.7676604415127166 1.0042016752407028
Ni 8.691783714674143 2.6251012780895584 1.5908455939609423 0.35478575389489225 0.08421159895191305 -0.1811892393202428
Ni 7.265575654333056 9.019173750065049 10.863047835703508 -0.7261926612862332 -0.7498853769174828 0.32484834290551146
Ni 3.1811764149808552 1.8575155685757332 11.948152161368574 0.2645523742289315 1.4675669154089113 -0.38849394478061483
Ni 3.9561504123893085 3.412296503594389 9.983630482302924 -0.6295888593175544 0.2472262242456581 0.7634230063926013
Ni 2.477113316049791 8.438702449511664 8.74473866635599 1.168756391328058 1.02499032985128 0.16815323207189103
Ni 0.4721356685826794 1.1212328682996742 7.931652954299108 0.749242086906529 0.29282525303169565 0.7526315722040522
Ni 1.4860550439888014 6.508007648455807 8.163885915349903 -0.7218742364165375 -1.3762238476185396 -1.1633822715003383
Ni 6.545032414484149 0.3166899798522815 3.991986386230095 -0.7585355963933129 -1.3653141426845712 0.23780081716670012
Ni 2.1389371210132193 4.152014109646021 8.718802813123885 -0.864605428870898 0.300885661442327 -0.5677417441037705
Ni 0.7272482499908736 3.303092423748352 12.846011533136712 1.060019039320639 0.5028944086110824 1.3713708904016122
P 0.20227984200731014 3.726687596373693 4.284818121626653 -0.15868334490824285 -0.6374633769696247 -1.981527352026168
P 4.517039972470087 7.575189357947412 7.869156186195952 0.31994396362535865 -1.1875365001490386 0.2616375145749817
P 9.189437677862303 5.208011543728214 7.248572407818664 -0.6790242311305467 1.657791525458545 0.05407672723974558
P 7.559857271790139 7.976628925395003 8.413652635316545 -3.4965704586391717 -0.40938724328985626 -2.024963825943248
P 0.7661765648802885 7.818077007856775 13.286831230573037 0.6080131900293078 -0.26186994230076194 1.0968148679927499
P 8.64754657236771 4.519280530954424 11.8793003546553 -0.1097843052146948 1.4395956270069659 -0.6520266194957802
P 1.6615870617760857 1.87339390659489 0.6532561206722165 0.7931696415274146 0.2507026128300328 2.560930077407635
P 2.203311514160273 6.155452993393724 3.3014120048851 0.027705436335068414 -0.11528595175921436 0.9940823274185139
