# total energy = -340850.4438049113 ev
CRYSTAL
PRIMVEC
9.50265711627569 0.00000000000000 0.00000000000000
0.00000000000000 9.50265711627569 0.00000000000000
0.00000000000000 0.00000000000000 13.90809923296715
PRIMCOORD
 96 1
Ni 3.0849045109923656 4.803811601641202 12.225010300696152 0.7322751200348873 -0.22520369722797987 0.177166748424411
Ni 5.00119128719001 2.3933486583220844 2.0513746455262627 -1.644359311213039 -0.7151669995996909 1.7541675276871338
Ni 1.4878404865467343 9.396920792821971 12.781111481483187 0.12150467897541654 -0.16483393789067097 -0.5831022857202409
Ni 8.29867973470023 5.735281031946202 0.980960217474935 0.8564984834930475 0.08480912332659588 -0.0430009290415582
Ni 5.778432596727731 3.3215396720118826 9.089512694338593 0.37750530697959506 0.41638810008772165 -1.7324144522807583
Ni 1.5755500093244286 8.682891156688067 9.208009875062924 0.34995670793736505 1.0193171907259024 -0.41581860073749677
Ni 1.5164339810254 4.410857735346164 10.375010257660813 -0.4923063486825908 1.340082621811292 0.38273904457470864
Ni -0.09016215851213871 9.109598460134391 6.65260575752156 2.027674797116508 -0.42464982587588157 -0.4021696424954944
Ni 3.1128233168342794 1.9169899728049626 5.304702346096883 2.445473661508827 1.6770071791550472 0.1372783968699055
Ni 5.277481035268175 4.4250737100022235 0.21372995693464647 0.7509765530991324 0.2243655175974007 -0.5594921025004687
Ni 7.774123573611227 6.594349719667967 8.69385532216812 2.180281853923684 3.7596717022438733 0.6463419104061772
Ni 2.1014080344026564 6.301572861945242 4.034530667751465 -0.015636163875360168 0.5882041257231805 -0.48305731928049706
Ni 3.913146579874386 0.6619750321443133 12.630890631111939 -0.17347927227049478 -0.6407932126738061 1.0424087824380435
Ni 0.6905694768886643 4.635272479649309 7.421514187262556 1.14299882274798 0.02038550563488747 -0.8750194251153705
Ni 5.736126768406356 9.117390638756028 1.24379895477392 -0.9107148216344509 1.8756729779934986 -0.46027194595486537
Ni 2.0736982870115668 2.5241432272833175 11.675417489589554 0.3423680969568297 -0.6665330406420715 0.3108592277152711
Ni 3.7584623315780368 3.795579709256224 9.456770426230257 -2.313614892992596 0.7703027642315701 1.3460581226684365
Ni 6.920357368414917 5.093652138395531 9.987210632444281 -2.4329657588498037 0.8100805583501404 1.9134337416820402
Ni 5.077611653623187 7.436551191470945 3.25413352587198 0.5427133403802331 0.06254696949428583 2.314601425275581
Ni 3.2330509313720244 7.846799893243276 2.081514222275343 0.561250222842156 0.3717493783324243 -0.8669870417291972
Ni 7.5251254560225025 2.965275563836527 10.317361439580297 2.512285576927054 -1.1711806844988344 1.427811489887844
Ni 9.321355665505804 7.384049012343452 12.92237607776798 -2.582608590822333 0.07423983245118182 1.1731612052639733
Ni 2.9785317701501652 6.554752148550453 10.09729321052293 1.4367291040924481 -0.2898036925965525 -0.5082168492652602
Ni 5.501848266287041 1.9075633372041532 13.802967333002117 0.8981344138662789 -0.6335470726343541 -1.185695847395874
P 6.649940262273548 4.8831397810722095 12.26040674721778 -2.275848215766784 -1.0299361038923294 0.8956792674575671
P 4.021049248470347 5.482776433977741 4.100232987517147 1.7876085809543987 -0.5169102632742001 0.8517355148867655
P 3.3813113836339515 1.670994694782626 9.003714155854572 -0.56264993140316 0.6134958104104338 0.6628414507230971
P 2.6712348527519993 6.2456022130654345 0.11437302764897612 0.8580719986277544 -0.4084238509353224 -1.461051997108529
P 5.733656077623885 1.510646863000306 5.658482459770171 -0.2503866242515107 1.2045260927284998 -1.8344589656490342
P 8.992924839260661 3.034369381833993 5.139654500233757 1.9777519441441358 1.6221784042406255 -2.7321326378288107
P 8.75651774200568 2.225056605408437 8.551867573696612 2.1280810035504123 -0.4506501065943852 1.3102426556317242
P 4.288634562868731 2.873574925179458 12.181825476615629 -0.34771444887040764 0.444693374790318 -0.15356916361012907
Ni 0.8272594941631457 2.1346103174563145 6.689072203205134 -0.08976389622870992 -0.26123745092308553 -0.4504876128745919
Ni 5.113351146057305 6.274043665034409 11.736460656698911 -1.7771909851655008 0.4031746867212411 -1.6438324921752916
Ni 8.053881791441706 4.557265169521238 3.601334950204098 0.6433216355226146 0.07878271462685786 -0.5371080783783138
Ni 0.9881622811058358 1.5672066766051636 4.299354510067595 -0.2403654925700828 1.126077621512609 -2.6487756735677093
Ni 1.2918101782714306 6.814298215248954 1.5919344902749488 -1.2893688975065085 -0.3364080227186529 0.8508623682531928
Ni 1.6288504116277966 4.36863743093649 5.190099354152 -0.06288969754568524 -1.4897015425244216 -0.612950736540241
Ni 4.645839434072797 6.299662827917254 6.241245244897117 -2.6264497563769993 -1.566468255162515 1.1223634058858156
Ni 8.178100521858827 7.80259353355077 4.850018270601825 0.0005964959334183276 0.2775960947867671 0.7565941563962261
Ni 8.931328617522306 4.583064882884341 9.141083613094233 -0.10901246004567679 -1.4086835108091418 1.0494672319467215
Ni 0.8093165774882983 1.7737564260196772 0.1506104593023303 -0.5012787273845302 0.32316889832055956 0.11024453268056497
Ni 8.251917160313553 1.0977279146515362 4.637016217182321 0.666010335369382 0.10321436530666096 -1.212918173446937
Ni 8.736619178549939 -0.09485171967040439 11.53142753131856 -0.05431866804722259 0.17570944715259415 0.08382207682297822
Ni 0.8053368647971499 6.618543484022464 9.25864953344671 0.36372727935889615 -1.9789367084808562 -1.4736817700573974
Ni 6.202631198764164 6.10042062162474 4.9087380381099734 3.045041291873943 -1.2164740091189952 -1.8371025739194684
Ni 0.9654414285639652 5.046613986960041 13.492733144369868 -0.3608849248140946 -0.45780728646445673 0.26188922557447153
Ni 3.4191129526057464 8.403969172660885 5.033466110934556 -0.8496500931126464 -0.27015506512768955 -0.492494553433997
Ni 3.2217047590863728 9.78526587054202 10.508402853006384 -0.3356806576343251 -1.0389354791774623 0.09368637121156768
Ni 8.551897031932864 5.011387637996128 11.893677363047292 2.86100095625815 0.44595990020756743 -0.7321421940014488
Ni 5.619918777718552 1.5803868616639571 10.706579811465378 -0.8942695315942341 -0.4206175647880369 1.5893500448566948
Ni 1.2627985668911166 8.418774312041997 4.345029030244301 -2.3842973471098228 -0.5780991760786948 -0.8969941296142487
Ni 2.242921600297068 6.4219905296201 6.7971934329087755 0.6100183933847946 -0.12639157475407264 -0.3721417286748365
Ni 7.357508091745608 6.7928222107551735 2.901007194990362 0.10792796873224639 0.5685732388661304 -0.7677365461662906
Ni 6.903433136554996 1.2656873745752355 8.689808140613298 -0.2217640754188116 -1.0262460566352518 -0.0026821748178534454
Ni 8.835617857672151 9.026440709990556 2.824776881694299 0.47208179410559986 -2.1584133359853666 0.6281999493898278
P 9.098917473828635 7.947917664844299 1.0438820598446534 -1.3247794157953183 -0.4443383054437445 -0.357038811595127
P 6.216752146851666 8.476113343509017 8.031412759306509 0.5979074690538734 0.41316830759884327 -0.06550168124723559
P 1.8873416834153198 0.3208733632478404 5.686215013537714 -1.770672210210376 -1.3877128220947454 0.25303897427269323
P 6.45652318463355 0.3035243626264713 12.554131970094701 0.10609554350919793 -0.6083973128416038 -0.9673626520354824
P 2.8663053926848816 2.291261615721784 3.1489742743102473 -0.08923913407349147 0.1252777728646036 -0.29152016106702694
P 3.6361726405026142 7.9462261919239925 12.190156455880981 -0.7537852261925212 -0.09363006405233552 -0.7608896984477863
P 3.444180961390964 0.8574418328680766 1.1505769407542605 0.8269482806397565 -0.014996730519148368 -1.4439618743954614
P 0.29504989324259834 7.01957460864481 7.154728996571418 -2.0922984466341643 -0.025178299037840506 -0.37976736354089435
Ni 9.00552536225126 5.300258903751179 5.5010699986905625 -0.6601888435915985 1.3698233434088345 0.6585662203865109
Ni 6.53295305372358 6.716886479821636 13.375766841664984 1.1861396198015122 1.2075558806937592 1.8407473697609074
Ni 3.0423991268770214 4.0277391188967275 7.051364796889717 0.09970429527087346 -0.9373275391259728 -0.14633150821110927
Ni 7.3132162081414 2.9012561645999804 0.9856602315557419 2.402481217107701 -1.112463373163284 -1.2876567999114081
Ni 5.176325253039728 7.102266728602719 9.415713247019715 1.3542938803146676 -1.106986409209113 0.21625471556480821
Ni 1.4412584626403144 2.6577220747032575 8.828777845267451 0.030957881834095074 -0.038244645303495424 1.0403794107128403
Ni 3.2606086362534237 2.9014367150802376 0.3236804480830008 -0.7893829207914728 0.19237765183689448 -0.35532877088255577
Ni 1.8342408369059204 9.564994284627938 2.1631686521046136 -2.267153516206263 1.3369749294202458 0.4565348475099363
Ni 7.934490410707259 0.30335331480306954 0.27289064772089683 0.7081244909306127 -0.5780531533321077 0.6365820028059359
Ni 5.671356659278212 3.6082253266901336 4.501787708532239 -0.8600100961907318 -0.2197691564759699 -0.9291740567809029
Ni 3.8815407431724784 7.975304321902295 7.814043284796147 0.18587790304516374 -0.6605128025899205 -0.31795907198484596
Ni 6.997680487249381 0.8541995263489273 2.742385045693029 -0.879633269738298 1.4558845939749765 -0.6768832735281439
Ni 5.422586605454024 8.284169177681646 5.679636324196544 3.667183207995149 1.99719925423547 0.8648095744619041
Ni 7.993691962917988 3.0408311884958383 6.826039698059801 -2.5607452150903383 1.015041446168684 1.5090339243044462
Ni 5.664115634754204 3.6101923766592536 6.732521201146245 -1.0875072174385787 0.11128094436487933 -0.14333437325599832
Ni 6.874725610194063 8.044559685066307 10.774645441991064 0.19753374211653724 -0.04558128817422472 0.6483126609793028
Ni 3.694575969537469 5.419963872161863 1.8972035407001182 0.4500207005405024 -0.05408855431428749 -0.09404555432319933
Ni 4.905670580476968 1.6002569171491312 7.571513625729068 0.6963516666654008 -0.036748777484259296 0.28828905572423896
Ni 3.032782438139099 0.3802991781603635 7.286050012722455 -1.0259971738492395 0.44841196129248584 1.5346547101963441
Ni 6.7601995897697105 5.440518118940645 7.3061471817064785 -0.7391106548994819 -0.9358586678899301 -1.3047628634640756
Ni 7.859733009223821 2.1563809043126194 12.650959292125394 -2.282936490072133 0.8705871003756297 0.6403844072711616
Ni 8.48763056361807 9.018467980888662 8.867498321157187 0.11992884984786444 -0.407437318652337 0.3801409448302292
Ni 1.610947406111743 6.890652063084141 11.923427330865291 1.800251723639706 -0.4027147163656871 -0.8698036852423859
Ni 7.363988903721164 0.4167646735782534 6.397127778222964 -2.1713197596343896 -1.3159019108000305 2.859763484306623
P 5.131054595779389 9.628377005855157 3.6167872205170783 0.012002680887830942 -0.16227954689993343 0.5101983984716633
P 4.0660348260250165 5.5360578309673985 8.112232855863853 0.23033716179980332 0.7184119888995498 1.688591798668853
P 0.6719167117466993 5.125828134508779 2.859171748183342 -1.0900220134406324 -0.4537104906872638 0.4408827427949762
P 6.476013133844497 3.7782848737789325 2.495043241194246 -1.0056409787903906 1.9728408799957635 1.2087311319487828
P 9.09411863211653 7.2994658636712675 10.691586519478525 -1.859519765272404 1.245793841129035 1.2706291550051603
P 0.03043415911160577 1.9097774562515208 11.669312032559796 2.778667033944924 -0.17908633404462707 -0.4593489199199637
P 9.210602199853147 1.4669726520917166 2.2596624308796756 0.5751110399846483 1.413326923118424 -1.3003279676211736
P 5.271570382703957 7.181699437259137 1.247372904017332 0.2836273885825116 -3.482705270621305 -1.7110246737510728
