# total energy = -340874.8696951953 ev
CRYSTAL
PRIMVEC
9.18419228843215 0.00000000000000 0.00000000000000
0.00000000000000 9.18419228843215 0.00000000000000
0.00000000000000 0.00000000000000 13.44199376650353
PRIMCOORD
 96 1
Ni 9.05023156342457 5.2681352983257845 13.065564062883526 0.4373541608164275 -1.2753391588863199 0.10627629206143632
Ni 5.100542159229555 1.1683486411578583 0.5558787428585449 0.6360017048224337 1.8946052961216275 -1.3655748525451255
Ni 8.35682505302533 7.770497039377679 13.025183925078593 0.48115753115462295 0.7856617631861437 -0.8072718852567518
Ni 7.629556426018914 4.899895112438931 9.85764604358329 -1.2479538248948314 -0.7426191822733726 0.5966692257713981
Ni 3.2706928913430136 6.562059399307334 2.361314591063718 1.5026323916534767 -0.2506529905390199 -0.6225129263073795
Ni 3.1006475729318628 3.8512440481027044 10.121713611127701 0.07555520882849569 -0.5716829881397058 -0.3548628869897308
Ni 5.769968743818827 8.18615520954521 0.04020012763799346 0.8240174801462066 -0.6817827677122904 0.8270791497906658
Ni 8.737215925180505 1.8519464342974092 1.816376057942757 0.834173337633286 0.5631883204051333 -1.0151098375127743
Ni 7.855184475568293 5.717839268944309 3.8201068813185124 -0.1979147796050398 0.6721179909290167 2.00741219021273
Ni 0.6122402934945455 6.00267780554725 6.212943456819214 0.8629226418518363 0.5539187221777492 -1.220546636526472
Ni 5.922261018725319 2.278340925135892 4.703138489460294 -0.36216713396062783 -0.05776908848966825 0.06445575648122448
Ni 1.300215272632193 0.6242624010721959 5.651376943736957 0.20911990429223987 -2.4005924847254203 -0.037657919562089984
Ni 8.117806451261886 0.7376733983392818 6.5836330667633325 -1.210942794888121 0.708237105249077 1.2901924218490683
Ni 3.775979593099767 8.791907789676234 1.1636986846516977 -2.2798403676453125 -0.2657224832776327 0.876618137061058
Ni 7.517426623562433 6.671103313187734 8.398625066942948 0.3713081770299477 1.684864470415937 -2.654913925254963
Ni 7.860538859615482 2.2558212858842506 11.234871686153877 0.9714129108454561 -1.0205595477734357 -0.4985726413072769
Ni 3.1592243507242648 8.51010003649623 3.484071065348412 -0.20080727066148643 0.7247739265618357 0.5732385055522838
Ni 5.540979279927646 1.1826667967831883 6.825454683983385 -0.5333933485308878 -0.8930672837560168 -0.3858305390158387
Ni 4.203283318965131 1.9327489571913496 2.9334465988421776 1.3915707623882552 0.17591590673644542 -4.390561282650722
Ni 4.22257930675783 2.6807095692034553 8.153039767763138 0.20886973595464675 -0.38322446885155936 1.3085223305065077
Ni 8.516804496795455 6.644065051378258 1.7668154016239834 -0.5425102232304916 1.0536558161067724 -0.4713559716831689
Ni 3.276065643774584 5.927569481811555 4.857694667741798 -0.1729426830407344 0.3415360879738376 0.1214026061799135
Ni 3.6207575608844356 5.115181761581559 7.854371674559414 -0.040301527832524144 0.24006775882400594 1.298851125965331
Ni 4.6066989609424365 8.163865175098339 11.34402121824447 -1.6749099303063864 0.2708214950670949 -0.17371452820975242
P 8.399724414748176 8.808972018766589 1.4897623047411153 -0.10652003264112622 0.9393052316776339 0.5430205872080067
P 2.8107209938552646 8.777148792825749 12.562229001967298 0.6934085248766768 -0.3819556294414648 0.8722354346123301
P 3.1695841195153953 1.580259660911578 9.963340482571736 0.33680114439201353 0.6973942489973022 0.2786859854168362
P 4.1245472393141025 3.564752356905435 4.272094042115651 0.21675350957809764 1.2777333701501092 0.5453960294187188
P 3.5920569602884407 7.535556218946912 9.328152566469461 0.8898796300566545 -0.25653824567520334 0.9604651535847007
P 7.7314642225671255 2.7865298316249123 5.957464945811562 -1.6462886670252677 0.3594476781469358 -0.13749616930766642
P 2.6341273464121313 2.028788054929692 6.9888690156328375 -1.2223011573237335 -0.7181453655017246 -1.0263013353532195
P 7.6244591993530655 6.226239411853717 11.76544063217324 -1.6189290440653925 -1.4625890025783455 -0.44861019334622093
Ni 2.77652824632922 3.8989926633022494 5.926494012906021 -0.6256483866125677 -0.48143726717857094 0.315391825478302
Ni 5.267428115527099 4.196487016743999 6.421616569165307 0.8823609530821063 -0.1780290964247063 -0.9273904825179189
Ni 4.151815105928345 4.5101914694023675 1.1590900570103952 1.0824375162251552 -0.5459153922572986 -0.951102224312562
Ni 5.642271735599079 6.46535903973126 9.550737893146055 -1.724459973320372 -0.17039626246979683 2.366053056187654
Ni 1.4939741752797788 7.153209113855115 12.09779450549408 -0.23461573457049917 -0.5052078872356074 -1.5357068056099423
Ni 6.7900661546341095 4.035377917334418 12.069740472028313 -0.19728845887495053 1.6460135589870106 1.4843266513657531
Ni 3.0833078180757862 0.2358142371081044 8.16488186517385 0.8415943126877055 1.2281398754926975 0.09137777768304908
Ni 6.6333379148995 8.051707820065285 5.85791289456027 0.8746931521242032 0.7048550761507215 -1.5090161836926335
Ni 0.004794148323554999 4.5496559432458845 2.283579588361478 1.9359059546426274 -1.1268800628092464 -0.16960719090959822
Ni 5.3575342251102365 0.4902861606516532 9.490988294010897 -0.42591532285186645 0.4153177498416783 -0.36921838438045446
Ni 8.13935256614131 1.0980160973613369 4.363620946230693 -0.04744019575983443 0.13880743191992223 -0.27016277843717346
Ni 5.392213734822389 6.7797982277648865 7.267749766761659 -1.9069095674102772 -0.6692908058928667 -0.09296723365735601
Ni 3.6007452061008602 6.708786053746252 0.03781958502215925 -1.2167470602747237 0.16347896652467328 -0.2831697322198027
Ni 5.447208677660411 6.189879194970662 12.341067225080268 1.732119289637843 -1.8811306586739602 -0.6424834558920355
Ni 1.1417879573423007 6.696166973676204 3.402464007218565 -0.19251777695918457 -0.25453432787129715 1.0099450054823833
Ni 3.148341082978263 1.7636220579992707 12.43165274949576 0.9722500620347708 -0.7364385073839576 -0.9542927062254019
Ni 0.6401969745230922 2.6345498192529044 6.146189992719415 -0.10488121148612259 2.535607796592762 0.004429496526263339
Ni 5.450248645275539 6.735025290835134 4.244027150780815 -0.11842321183661542 -0.019338552427611858 -0.38529652088923966
Ni 1.1409338274685639 2.6638473923412964 3.562584887548426 -0.31489508834754154 -1.94938419163472 0.32375639539291334
Ni 0.754102081330039 1.2907647388679437 8.206713105344916 0.7364791308139058 1.1840534266964446 0.5608275334824406
Ni 2.7625590900071373 7.232183982503102 7.405234368599055 -1.4481208908691576 -1.3416139708541541 -0.44963966305199976
Ni 0.23184942133937128 8.293683731714143 7.401861014807405 -0.41720776777553953 -1.431671487063883 -1.697497071578283
Ni 1.2752434540656297 7.774574820710358 0.8444047326260584 0.8562192616897318 0.26649509977759905 1.7947984138346187
Ni 1.0258558993188627 0.7640724403722828 13.207861181428859 -0.899893819759547 0.4154025962460007 -0.19521023618968317
P 6.492819774381509 8.699340316585984 7.858821415675817 0.5029409455783015 0.32095466427806013 0.984541220697298
P 2.0169588153880467 7.6993838392449465 5.342023042919332 -0.9434619341584848 0.5033304677072363 -0.4475920364943517
P 5.573831135393846 4.429673656466339 8.674588918631997 -0.6067857453801099 0.6317123334184604 0.4183508802410472
P 1.5747675139815285 5.5430824599393205 0.9855942375931912 1.2728212775604724 0.5286033833414122 0.2511620689649546
P 4.437314904369017 4.121773613272506 12.104380489714044 0.06914159199266802 0.7839859181456176 -0.11256726727647065
P 0.1959612719349201 0.10146879216149489 10.961475734601352 0.17093773679556368 0.12967204527755732 0.5152914967238544
P 1.0337543046028803 4.5327202928462 4.609286147882562 -0.7451085243541297 0.540823579556688 -0.1898165759779376
P 5.952036169807629 2.981142864146235 1.23293188064299 0.016246800876165566 -0.2522355045347914 0.9165702519739634
Ni 8.006411384180662 0.4539470674106378 9.297007133912295 -0.7025647374546481 0.27399835013317975 -0.7333339003167048
Ni 8.379914112192797 4.551198887533925 7.409159692341369 -0.9049087564756351 -0.8762234727258006 -0.4137282938673713
Ni 1.3662128777146954 8.164489700167307 9.257043958432824 1.6166577315327124 0.12130516137010076 2.092874116631976
Ni 6.5982175639621925 1.108807523185431 2.5424185952917133 -0.71960806609018 0.8193910371177888 -0.6145697602009029
Ni 7.100234693299051 4.793183983374973 1.3285283003177395 -0.864179397077073 -0.11352448898341738 -0.8906432476955564
Ni 7.107398363207811 8.12618243453982 3.229774559875706 -0.2553480820218441 -0.5078828629646092 -0.2886667507786319
Ni 2.455072335461886 4.489306616360674 2.926819285757355 0.8617152518072966 0.09181640788236445 0.9758236383186419
Ni 8.669473323581768 7.3297201035685315 10.269414708358056 1.0318297213706167 -1.1891496102724295 0.4255677097044606
Ni 3.4463864879514565 5.954818980041416 10.947925377443166 -0.6400761320021234 0.7097440288119068 -0.06724540341121968
Ni 1.9154367549118456 3.142848936048214 1.1094945007612969 -0.6243155267337571 -1.8042713863220605 0.6624907522518978
Ni 7.4011547504279385 0.8963312368531611 13.342805435706302 0.5204493867757102 0.3273891070494942 0.1747383414885765
Ni 0.730734741139194 5.092827437789352 10.57194016228188 0.8485859135141901 0.2250990533293156 0.10658790976458417
Ni 5.856162387528719 4.593519645148755 3.345510994605482 -1.4516785263134289 -0.9121721229062677 -0.2741816697885794
Ni 6.766784227430639 2.6919418362527034 8.240722169027146 0.9156397697398941 -0.03581392437481574 0.025008349118879513
Ni 5.397623224022722 2.878087043574184 10.501759157656506 -0.47531264233807174 -0.2630688477048695 -0.40639859297517755
Ni 8.778857052573223 8.144137530272674 4.850086482931007 0.9637121997670887 -1.8268927232660022 1.5641735455910675
Ni 0.6490689041793262 0.07351670322904348 3.2057404473318156 1.3347203290581142 -0.05021904405655222 -1.3771077928853896
Ni 3.285378414655973 1.3866293369546623 4.736111576263411 -0.4832496377969613 0.5057375344868322 3.5270123200687964
Ni 2.294844918502613 3.8853633220912234 12.463053502595827 -0.5324546387667023 2.2596739199997664 -0.639709492691324
Ni 1.3886131224678573 4.227906138228447 8.372709113419178 0.20737746767983642 -0.29208760353472274 -0.2342041009543773
Ni 4.11697028075676 8.272027406528428 5.840156177378735 0.1497256214943228 0.8814286710758239 -0.6780428410538839
Ni 6.87738945398346 8.447243425142954 11.086377993137466 -0.18066524849597274 0.5085346376159952 1.0462723791585076
Ni 7.846119677876055 3.228519080803235 3.669408982176328 0.020428185947364817 0.9755343892129972 0.2369950334359531
Ni 1.160431867489459 2.454383521047582 10.634633295014162 -0.2088936472140467 -0.6258054810157222 0.4181953284997894
P 6.921795023225584 5.765780752179859 6.169955926851337 0.545318639213564 0.08475795837368628 -1.6346220293206168
P 0.439580235566697 6.301981444850572 8.373811216482064 1.3157844113855597 -0.8580974525490511 1.281960006636947
P 5.2391683561562585 0.09235531825064504 4.232386187179079 0.6061964485355431 -0.09032182561470896 -0.40464715750170954
P 0.1938158446391683 2.8315782943203858 13.082326132050806 -0.9053245038568152 0.5537068632772593 -0.6230086349968754
P 5.583382695272192 6.387008696152242 1.5955917513547633 -0.7811790448244417 0.5577735771474652 0.20556149751702016
P 2.271498701953807 1.1205081840364062 2.147479044287222 0.0795833561512823 -0.0837220609100042 -0.04557666018853441
P 8.733790221493368 3.120586454177913 9.259073664906973 1.0016897074521265 -0.8007533674119435 -0.11395232054945535
P 5.851377423397355 1.1602114468768818 11.76986373913229 0.049301417338289286 -0.7406366046257051 0.18266479542450478
