# total energy = -340891.8781365302 ev
CRYSTAL
PRIMVEC
9.05920118860763 0.00000000000000 0.00000000000000
0.00000000000000 9.05920118860763 0.00000000000000
0.00000000000000 0.00000000000000 13.25905665761708
PRIMCOORD
 96 1
Ni 6.486659737342162 1.854943891315596 11.562228421703933 0.40152660959485686 0.3675443391121412 0.25581782256941105
Ni 4.567567643297462 0.5923277082417687 5.985854419682417 -0.667663811812405 -0.6153428909215015 -0.14691386307714052
Ni 2.7878151208071102 1.8137788816840406 4.432979622700806 0.48826534584399783 -1.4159273368557483 1.7987658831227988
Ni 3.116473876181936 4.289078743411094 5.106592824323089 0.5596494540139394 0.48256598146637536 -0.901593318949157
Ni 5.328486177406811 4.218507567128125 2.4898389735135167 -0.7008976341648704 1.6970085619776385 0.873568808711773
Ni 7.347401607967821 6.026687862555056 2.615600614514217 0.5918342662766002 -0.5658712665539352 -0.23636948403681227
Ni 5.145653381547644 4.592145255782148 11.60353113119165 0.7909741765379926 0.3551346525938787 -0.45817546843715284
Ni 5.582469938417 7.975557550494766 12.713605769001608 -0.8830849757323244 -0.503239707765643 -0.3984700821567202
Ni 1.8750462584750198 6.391565303780885 0.42174385814026566 0.9726390699430733 0.5230523716161959 -1.014465519060556
Ni 2.411215073405394 1.612592144470663 0.5101544131570522 0.557177081214047 -0.868786299721465 -1.0918678084001197
Ni 0.6849761575159588 -0.08976852925617253 4.566578378541352 -0.10496682922139342 0.43288815462527386 0.9674629250587726
Ni 8.943605657715006 2.467364001595619 1.646947352662949 -0.7157161872349415 -0.04649557245837799 -1.9091160881432927
Ni 6.703165583553549 0.6139094429348266 4.535896676380227 0.13679837190969343 0.2957252002873101 0.7960747309893517
Ni 0.8111418388840813 7.305747401478848 2.47756103831245 -0.4348884728847543 -0.3135329178926923 0.17003450825500394
Ni 7.476160032680254 3.7394026596953664 3.818316454237514 0.7869324023684512 0.807580417636106 0.847873717938514
Ni 7.788213272506083 3.738578272398608 12.77653279142738 -0.10911273306896692 -0.3053534674056935 -1.063760508640942
Ni 8.174588197855082 8.923213396121557 6.580429715707987 -1.2229508750925904 -0.1702391680666423 0.062276746552034676
Ni 6.953833676974576 0.6543343158395121 0.4519173391217407 0.5163032258178205 -0.07925811160137963 -0.19674235656349343
Ni 1.9140008230471346 6.625066211186991 9.35932967674872 0.03080361564441792 0.03161068492674556 -0.3418340788302306
Ni 0.18328666183243766 4.965058208351108 1.1832711705610677 -0.30416690329676005 -0.45934094950016374 0.7164615500413983
Ni 6.547800285318255 1.6440094537581267 7.226371587682473 -0.6858677364149414 0.8276458209274132 -0.8914878550840388
Ni 3.5404354267424933 4.343026285742942 0.31583907995017446 -0.0007330215112826086 -0.5961858583770765 0.5092216363806908
Ni 6.06169261546358 5.717279909439706 4.687381012880011 0.30791300060275356 -0.8762509835296264 1.1670311811068352
Ni 5.387552168339414 2.588557993420212 9.476273997354527 0.04611247808734639 0.9609194675132999 -0.7666991060407118
P 0.18475425240468943 5.608940923923911 12.273709989690845 0.03993283163919574 -1.2978913331552229 1.620014049599455
P 4.056184802476229 6.2499790503628425 12.703701344479121 -0.06824581965127602 -0.18538270857630007 0.2858619343399851
P 2.413996248131822 8.378130327344913 1.2106779715378162 -1.1396785001254954 0.8405144493599653 2.056659357274316
P 6.3457529240038655 7.837286964665885 5.698981229211982 -0.18594012374166688 0.0630457635075753 0.4297184986480406
P 4.426769540371925 1.3109660450686724 12.717212236944903 0.6765089209078607 -0.7055780703596752 0.5802403907914135
P 4.017945914788113 6.432485714983732 8.268215040844106 -0.7201040318899921 -0.032476375361150514 0.879717344811672
P 4.688652924709296 0.9503192507393965 3.5803566080680604 -0.13756353221049214 0.21687640830920715 0.5654143815221746
P 0.3485328306674546 5.397662236726037 3.7710346720480303 -1.2204301655532659 0.23731179334542357 -0.9062642420622651
Ni 1.3353081183257125 0.8805172006266986 2.6084139503107147 0.748578228070285 -0.25344135191743444 -0.7464411271226241
Ni 1.6906371616308418 6.468822170448558 4.980618292097402 0.7757023379805866 0.19339812268160886 0.2664254228819282
Ni 5.9967200254377175 5.483769942832537 9.155776676217613 -0.4032641611112539 0.5753645507563511 1.2423575617539764
Ni 8.494577297812345 2.3162384094579407 10.225371179996399 0.7868565548251932 0.14637624540611566 -0.2927872007049086
Ni 2.3071610899925314 5.433763152963217 7.161985127965406 -0.2814522353080636 -0.6584996288146336 0.3417140083125986
Ni 0.5364750159263132 8.960002811639546 9.442556556917097 -0.6714410194666501 1.3348586544081913 -0.6630445678728387
Ni 1.6137879590110162 1.329492111243085 11.392141921740805 -0.16037667345026574 0.4589748244099967 -0.27786786039091504
Ni 4.073342929290086 6.9652935663196285 1.709728521951603 0.5359960762610575 -1.274958121397817 -1.208507703084067
Ni 6.027177059412473 7.636290470674836 8.03416605177367 -1.9230272989077464 0.9062411021338135 -0.9610133127786868
Ni 5.268106602320034 2.7903064010995133 4.732184197658581 -0.8532972029469305 0.18822789133457907 -0.12004069283538035
Ni 0.9468948727374757 7.617112142023867 7.224263511595047 -0.19980454042858495 -0.7396338743928037 -0.28176153901836637
Ni 4.900384571960334 5.035729035845774 6.999177696056624 0.9446238156770699 -0.9727938503533826 -0.8356041565425415
Ni 8.058956555483345 7.302005951439712 9.188924292908164 0.2924856103040898 -1.2511134535697357 0.2013680282609629
Ni 4.737382367228692 0.45686728658271825 10.717520431040178 -0.9484059084273215 -0.4750928130177818 -0.745273074956452
Ni 8.150554137434193 7.304750889361887 4.520463421448818 0.028892514664634113 -0.6134209913084403 0.10346247676172504
Ni 7.668577463264375 6.479050008449004 6.816494377015001 0.4495856698856129 -1.09808730694727 0.4948586827907993
Ni 2.3361867701992884 5.324146820097499 2.5818297247905124 0.0144709399226654 -0.9291434606532837 0.6702626828878328
Ni 2.428246371404365 5.332082680228935 11.412971742745611 -0.8041693350720279 -0.05876204853055686 0.7390404637831789
Ni 1.0441725737550032 3.170892496969074 3.7705971126366737 -0.5449589418813002 1.1737857262218494 -0.008863621038216994
Ni 3.6796572286830185 2.6186073633471203 2.4160789584562705 -0.09947418153793837 -0.03926460192757754 -0.503157946685114
Ni 0.9271911104248363 3.3335051560549944 8.31479382903108 0.02075882981390618 0.5602413219616674 -0.7986157522436504
Ni 3.8935630841892443 2.942500978962659 7.058789956813341 -0.5037698692375002 -1.1000775979044215 0.08000887372447511
Ni 4.219141711202554 7.120812870972999 6.026320964911993 -0.22909120520784415 0.02023638165153289 -0.4642327303748263
Ni 0.7695510468025514 7.388131775948339 11.532117449209796 0.8237511138586975 1.2441023123592252 -1.066523158987744
P 0.22494086832141055 5.661366520477126 8.246337976196385 0.1832587202547618 -0.006784627022001217 -1.7690272184077858
P 8.559015394975475 1.5999273813841939 8.072166682473823 -1.6198145319941395 -0.36606081258807927 0.9598468032744115
P 1.863984973976752 3.445150749958888 10.310070180337558 0.43764392414270437 -0.92414549321806 0.2585326503974128
P 4.160320318698661 5.927697972536569 3.710016423286291 -0.7825268171015878 -0.6189455206710954 0.3621280531925763
P 7.001829324207846 3.934709975418674 10.50680794390876 -1.1868487300533945 0.19423347409871064 -0.13624121385464277
P 6.07300755759162 7.805144919293358 10.283206931424608 0.766203654461532 -0.8629961754022492 0.7422569138379476
P 2.441835172999289 8.447677813907733 5.704258213831344 0.12995075286024071 0.849955025947575 0.90676997805409
P 7.288190669818206 3.918684248737727 1.6839668718879468 -0.8205056103382061 0.934224474720617 -1.3588105372380985
Ni 5.639280188284844 2.894306029305996 0.3999166190983929 -0.8731281216299286 0.05263562391784483 -0.46215193658639764
Ni 1.1370112662515222 0.9995560085183369 7.007491324872399 2.2024344787613233 0.6108000087458255 -0.6359790791146144
Ni 6.987153418485329 0.4961180870296023 9.334985791651468 -0.30978630636606647 0.4893542080328024 0.11226336288280665
Ni 2.786700839076327 1.7185304417046885 9.07070624863286 -0.23338700436972062 -0.2560325096833784 0.5049057826141563
Ni 6.4295233562360385 1.987615890887368 2.4517848935270923 -0.01291799361324872 -1.076068636584334 0.37235898689196517
Ni 3.9253880575245566 7.04351070830001 10.66273400668987 1.2887554322922257 0.20913327402867854 -0.7672156406658142
Ni 8.083534167968029 7.088100095933486 0.28385557059625555 -0.23081770098064763 -0.18296432894279457 0.8091806722436903
Ni 7.427702366192757 3.9096522252776342 8.131978245653933 0.7904100765044065 -0.3920276689654861 -0.41352054873193944
Ni 2.8196944493488014 8.505792588728688 12.384873634098172 1.3460020726195205 -0.22558396338553408 0.2932044907479854
Ni 0.00877383622978909 4.828916534772098 10.23149701175539 0.205709078838478 -0.3672052106051676 0.099689382872538
Ni 8.37630036873013 2.368455644386701 5.580153500705118 0.20338428736004327 -0.996923910632367 1.1746467886705643
Ni 3.7991390315066513 2.7476103864882626 11.304446137687911 -1.153380165982304 0.008046524453560336 0.34361148244562756
Ni 1.1450920735999701 3.5282689197145047 12.476162297292761 -0.01744570628027318 -0.215972408437699 0.12037005115034106
Ni 3.134220851064906 8.509207907529547 8.026873394917729 0.01373997529391182 -0.5138581067114376 -0.12021527074003166
Ni 5.3815459180344565 7.80371356552536 3.671048269912581 0.34130314602742506 0.5415008081293706 -0.449539904249342
Ni 2.9531998954183956 8.146441260151462 3.544252068150454 0.04442300620006543 0.49759510788535594 0.13421364190165272
Ni 3.6581597445598493 4.52575037118935 9.578010637135401 0.25598597271615914 0.044768819575258384 -1.66767536023116
Ni 7.252678601650139 6.178402302761849 11.35951067951086 -0.5047090932223179 -1.0342010498162706 0.014206630517685209
Ni 0.46038406843548446 8.936575717689898 0.348346211125551 0.0987640428447912 0.7233832168618962 -0.2750231918532683
Ni 4.499632694523907 0.2913257877930383 1.4660804034345143 0.26354193068654613 0.2575656584984532 -0.28666514696757084
Ni 6.137608720373887 5.44632826483799 0.3933496042476194 -0.5707126538066364 0.9573163235430738 0.38507514890705297
Ni 7.811712840064238 8.488897178745667 11.580791630602706 -0.562322115750096 1.8634646088527649 -0.5065641441531857
Ni -0.014742943810385925 4.673813953367639 5.857386795324114 0.28016796927900134 0.23885831189693701 0.5591326622785209
Ni 8.03521238949648 8.801620799450179 2.5027664534308207 -0.6549227100966527 -0.1984508546141679 -0.26842368425887964
P 8.377251584841774 1.6284638647335339 3.522281693731782 0.7717659790406579 -0.5881689016098709 0.8122618822721753
P 1.8448972373364159 3.393549540702431 1.4583637759688102 0.1694701511111017 0.9330469094727479 0.7529354765977162
P 4.6726090796262225 0.9181137909594274 8.240848100352036 1.2422089519912543 1.255468645214638 -0.34884881958516695
P 8.66614044754879 1.4668295993624476 12.277395272683387 -0.7272632686425926 0.1272086713387293 1.050413397910075
P 6.241481519765484 7.563336724512222 1.5456609551749192 0.7842044619143268 0.8628563073902754 -0.4592635592950091
P 1.5950444720110848 3.036580782004848 6.1652356599364735 1.0743326277298335 0.26050211541895785 -0.7362189351739837
P 6.570285222357323 3.836997432750109 6.043955605701779 0.9743869058721155 0.26292640858973426 0.456340215000627
P 2.400570512156037 8.653792756499536 10.230051163265692 0.9919125734607045 0.2117563134738224 0.012820548803435984
