# total energy = -340867.19584711775 ev
CRYSTAL
PRIMVEC
9.29894712805464 0.00000000000000 0.00000000000000
0.00000000000000 9.29894712805464 0.00000000000000
0.00000000000000 0.00000000000000 13.60994907388871
PRIMCOORD
 96 1
Ni 4.566424562226906 7.452445726529159 6.317343734391595 -0.8636541207012222 -0.8859394144619839 0.6368550539616644
Ni 8.9991953604555 1.5486838148845028 1.125989024161613 -0.025778908736316893 0.38685229541213373 -0.1415348581534143
Ni 0.027119448780677565 2.8739325333137455 7.953898878036861 0.2995543442254131 0.2996618163375549 0.5659728251288059
Ni 4.213092476326685 3.0356970138337935 9.107940965249341 0.13425863620697523 1.0349232726942759 0.05651361881601235
Ni 4.0932011537614414 5.253700429711167 2.2537392688687827 1.1331622962735324 -0.5786913011367388 -0.6093221386487184
Ni 4.102555894357163 0.2519819335872729 0.3876517092765917 0.8944551652424788 -0.658450263633937 0.4501973353276827
Ni 1.7869135358803123 3.963201875900424 12.28861321094953 1.8040101622408737 -1.0811583924024153 -1.0169461193905647
Ni 7.2162059801729965 5.188561306576945 11.635240374019881 -1.2428668972902273 -1.7006908959252325 -0.6831223124593202
Ni 5.6342040384947865 5.676746720627415 0.19182518620969802 -1.055958238987704 0.4329879134279317 -0.47249239928045716
Ni 7.334814048064075 3.1876976000938932 9.630100081850971 -0.824888055676618 -0.6694142188446084 0.07531455357259932
Ni 3.3583239770232076 8.966165501016135 11.609435796332876 -0.10006707792693088 -0.6751205252007663 0.3939333706286312
Ni 8.129715927133702 3.6138869350671525 3.4543820986472644 -1.497810287674485 -3.328929390317009 0.24422368997390845
Ni 4.545985476909416 6.588861825550985 11.586598512606205 -0.1006625454190847 -0.45984642838167256 -0.39567297902755727
Ni 1.5681372118290844 0.32205135837542315 8.573043221269899 1.1741544224151779 0.07981012745010772 1.4329981762951063
Ni 4.099729014495236 1.3747005181191492 4.620918250933712 -0.4644019089628389 -0.962876848349987 -0.3336708262931479
Ni 5.6033408336864365 7.638201490087936 2.4636592758788924 -0.25102991426246446 -0.7243756626821525 -1.5487479550646166
Ni 4.01728455115362 2.7609875240934367 2.4688583170986416 1.5783336391415335 -0.09174724520732586 0.5909899159984338
Ni 7.054236922820835 4.09242934116756 1.117894290872771 0.804347255410789 -1.3804913646456418 -0.12734853935070328
Ni 4.4343423202571 3.7320486535063484 11.841159044172796 -0.3969371904519615 0.9482997218667604 -1.713338409485914
Ni 6.806726852804618 1.0670448594616548 4.2959395840696875 -0.3266200900939536 -0.0026137834737632406 0.8053397012310453
Ni 5.84992100901123 0.06342532721792876 6.737863501431245 -0.7580943950908363 -0.2466551822335365 0.5164726615161492
Ni 4.907937686599134 6.327542819367129 8.8799066096503 1.203056964382141 -0.27568113715224135 -0.3066608733632074
Ni 0.3592666738208867 7.76659205013279 8.811420795521645 -0.4947663801873092 -1.564044733322687 1.090764548033612
Ni 5.1116497166493 2.2141350539610523 6.943823086950581 -0.5652341471905685 0.47415821701865435 0.38380528105569384
P 1.5406681226444314 7.965440730946811 6.984925362206195 2.03076552022669 0.2353202168366915 -0.4585583056978683
P 4.263688046487043 8.512999921044676 3.7558967327625976 -0.14854985601866674 1.7535764310703539 1.8600784659893514
P 9.048256604375009 5.314069193078387 3.1936563652765355 2.4219051301602676 1.5984892881538018 -1.3819514941309363
P 5.644730446401701 8.004803173234771 12.856733302569463 -0.5446133856164234 0.47613488112905095 1.4200434159066513
P 5.564917585036815 2.932274126253662 4.926992158721095 0.5806399402226775 0.5758438043856148 0.3462242374781263
P 8.11254077218311 8.73389640499235 9.916113371460273 0.9756138363006811 0.03262858466829865 0.3966787945842523
P 0.012721889273366127 4.427851655310963 6.357220408443912 -0.3983078455472431 -1.311081863703568 0.478976207232588
P 2.56324541796221 7.253438963617597 10.524355629331062 -0.544910605141868 -1.080941648405919 -0.2981978301975187
Ni 2.164618161642746 4.191444527910344 6.640157606413985 0.4061383973352554 -0.4521560017159503 0.1222371862660669
Ni 3.2763816568149613 7.1426606090283045 0.55008943355323 2.2034904308296634 0.3330599321820264 -0.8482089897907455
Ni 0.014478460345465289 8.371163083761838 4.665789389373666 -0.4635616724497307 0.7260111414030463 -0.7349809490018245
Ni 8.821976030163993 3.1724008324199753 11.581916492834887 0.0886431523607054 -0.02672018960366366 -0.4163374493554443
Ni 2.699158826060682 6.1561632277377605 8.07309463937292 0.5883699618770836 1.962176458303382 -1.2916340393916013
Ni 4.879520104829229 3.072948595172222 0.2974072892633152 0.4239294027700892 -0.6405039635681614 0.7839656064306434
Ni 7.769911774181173 9.191664963686355 2.1569865159102326 -0.5240795273291297 -0.5730940095546194 0.7815222870964734
Ni 3.5827354629044628 8.347060213360137 9.037182488494846 -0.20250651274078027 0.4635079363936598 -0.48043762226946285
Ni 1.7998483710380144 8.849073161472077 0.5573909666702881 -1.735213098071818 0.17594367465058733 -0.08073983835322869
Ni 7.80000316639564 6.991757298504084 3.2129414512819694 1.5613784993444335 0.7844934539096554 -0.8784765304260355
Ni 0.13590224936217477 1.3384811198882005 10.083380038869475 -0.6100086231927817 0.3184774063821612 -0.0351130416530492
Ni 0.5247284156340345 6.262710561481076 1.241883659343118 -0.6501720827855447 2.4608766263274586 -0.5158152304378084
Ni 0.43925807496652663 5.756457293576246 10.669546596765867 -0.41612096246926394 -0.12876933095762982 -0.3321219937487893
Ni 2.3720404715116916 7.980356241797245 4.883168081703683 0.8932493178598359 0.054706904624576745 1.143389116207863
Ni 1.0346287305186284 2.6293144357878564 5.240755365711859 0.13336157831400258 0.6262027164541409 -0.8875327270910327
Ni 6.491622737668822 7.789988200569008 4.8269048033991 -0.1285155630756109 1.0234831491781342 1.1220744138904868
Ni 0.7742814642873089 8.431448156606828 11.387920932415406 0.8744820645546616 0.28517442135465726 -1.523659387527105
Ni 7.3117526597167695 1.0480750077566134 11.033790066975252 0.017532352456808516 0.44277790293516 0.957748783094802
Ni 8.947465318771606 5.004228281896047 13.096051000354237 -0.8288413838974114 0.24590544855170554 0.1396445831092369
Ni 7.668488160187602 5.346178456773243 8.765351022824445 -0.07966306034928215 0.8729221762667095 1.9739860493438002
Ni 1.0758602611363504 1.4029228220038552 12.61515689057922 0.15735845544923222 -0.30985546904110506 -1.0942545634647411
Ni 1.994521824687543 6.21964713832125 12.464317742788708 -0.007847263958560677 1.5174704851075735 -0.8678326775589442
Ni 7.505877475498358 7.185073105904134 0.5448215801263154 -0.6789982629886178 -0.8648316859490913 0.297754572012513
Ni 9.140139498834573 1.3998727674159859 3.6208583555687555 -0.6452270800754437 0.5109404188440103 0.3082333600566498
P 6.3343217516676065 6.099244373675723 6.884987719929519 -0.8575971158738649 0.343420449480744 -1.1396885274278243
P 6.973773135171952 2.19961939782793 2.3465725157029826 0.19913785337886347 -1.3050194595595719 -1.0896797996098653
P 5.590870945874447 4.6808481040065795 10.113145038047254 -0.052497041457451515 -0.09637754489048564 0.5289998474488825
P 9.291191592509422 6.999717197062671 12.706016900878218 -1.0884269010393706 0.634030954249308 0.4795958430944579
P 7.80285794309831 9.202200670540185 6.104347635742256 1.481460899782184 0.4923788537917391 -0.3998710762693049
P 3.3589749033072045 1.673373394057492 12.645506793517903 -0.7569903633933802 1.3501032392720878 -0.3927799737504784
P 0.4769178800744906 3.2787435893311767 0.1346422420552958 0.01152548414109628 -1.839617112811206 1.3987621379303716
P 6.379700612609078 5.6333392364317625 2.444278410720242 -1.31240598183163 -0.9595297862546249 -0.15017222211343814
Ni 0.5993617635676918 5.466069779338487 8.17945692407264 -0.50909616654642 -1.3772718292670796 0.6586868051247753
Ni 6.799083118441117 4.0555404187587865 7.244385508901897 -0.4303841572564975 -0.9630635104394961 -0.6313773186765449
Ni 2.4180702587371594 1.625279240617064 10.302867732359642 1.1558381406044933 1.0920303021199127 0.9952478084815246
Ni 5.435392553468422 0.657067308538674 2.426490455168 -1.1735640971293466 0.768880944183379 -0.3012430447817457
Ni 6.650337163600999 0.5192401771652525 0.25736323416654117 -2.086887560031238 1.2638512128513781 -0.6902573808422048
Ni 0.9124247598558145 5.9526743724135365 5.039260204606048 1.3212251227851568 -0.43675380822826715 -1.3865224013310702
Ni 9.01398998499605 7.0095368850041035 6.5674537899650325 -2.4303640595608984 0.4143628421275767 1.1841608988085863
Ni 7.552902250043649 0.8949241417632225 8.259020573660226 0.797909213094929 0.7119762605765351 -0.09248309493208588
Ni 5.230192691911979 5.8304304162789915 4.598801635592893 0.23327490427188857 -1.1675050354194603 -0.5241911132063295
Ni 5.88996227442393 8.672039810118854 9.452109868860273 -2.061690234830004 0.7025907055965771 2.135417646421142
Ni 6.95980611690677 7.378844561702983 11.283341255839144 0.664244758828527 1.162611711882901 -0.31164161440725036
Ni 2.9572139018776427 7.256637801356093 2.6790777501993897 -1.4714150855104078 0.40195804070532065 0.8697077830944699
Ni 7.896433245896266 5.251412888770266 5.010298634441661 -1.9384045526947649 1.131828407953457 1.5243368732101037
Ni 1.6956629698109156 0.29477661718127784 3.006791237350891 2.6528377594522246 0.7120582787673801 0.38060400050957677
Ni 3.013612014912483 5.014382731926393 10.004686770713063 -0.5359549386104769 -0.4029093488749964 1.3887770016932017
Ni 8.465333519162304 8.945605529388759 13.063277791849705 1.834176144301293 0.9870639871191517 -0.7432933255222618
Ni 3.3976027287889403 0.3372300294235305 6.7972168197954295 -0.3556740700371165 -1.1563485045820086 -0.7593362379177374
Ni 7.84344784637895 2.5268121439522337 5.899572736059793 0.6051682643813449 -0.7011408605239279 -0.41328400724110115
Ni 2.1806867419105456 2.0327590943988807 1.0163748977259832 0.2227259251114487 0.28047830143056857 0.5601970989872933
Ni 0.8130087885010271 0.7766396772247591 6.612570420603522 -1.4881694221506114 -0.1040926541465562 -2.098283974793638
Ni 7.171998786542718 7.5134654161803756 8.279517312448585 1.7411718867584145 -0.4227158420779623 -2.2307307546028547
Ni 5.058078483476387 1.3650947059567435 11.297223653687407 -0.5237946490988592 0.38227650311599326 0.2716532469397709
Ni 1.737740704597833 5.054061338409437 2.533206099850463 1.8185518075004743 -2.3860840066966 1.9494510403169139
Ni 4.439159174758674 4.629471422305426 6.94055636689961 0.49988158992668746 0.6087644663730355 -0.1414674952505886
P 3.0508078025694267 5.690620749423455 4.7493683242388185 0.435665717370411 -0.017335405954654014 -0.22631955599997797
P 7.094919815570617 2.7048497815721944 12.75377443244035 -1.844859849267384 -0.6288460676142589 0.46788318264322
P 0.35608178450276085 8.235993591416504 2.3328268123743587 -0.36698023907855504 -0.8280872793402061 -0.34316693870904125
P 5.501071015523671 1.3619051671651607 9.185326801469612 0.8340542955569183 0.9463246004182606 -0.8814368986059399
P 1.0909152561904982 3.6097953984248887 10.033662289297821 0.17919226349487205 0.15878490348311364 -0.735633752094475
P 2.115389536678781 2.6602148363838625 3.1753234914351194 -1.450698936008979 -0.35995341413876075 1.1054334628996962
P 3.4270989884008967 5.112226251357983 -0.0029003415425501756 1.2965067941028703 -1.6959541525711952 0.2734702455438516
P 2.6871538855944035 2.002360836936244 7.82456354498552 -0.05497738467714403 1.8446950415547456 -0.3907531731284367
