# total energy = -340866.74863577913 ev
CRYSTAL
PRIMVEC
9.31362133912196 0.00000000000000 0.00000000000000
0.00000000000000 9.31362133912196 0.00000000000000
0.00000000000000 0.00000000000000 13.63142626507757
PRIMCOORD
 96 1
Ni 5.404824963052037 4.621689096920544 2.008454541519389 -0.6942999263426946 1.1531217701145948 2.0788081254572135
Ni 0.3105822684363854 0.36623208842475763 9.85177282423764 -0.12969312832347987 0.791737022845946 -0.9116303914701849
Ni 5.148607234833242 0.19990012156690773 6.838573174601635 -0.8619013996761736 0.655221215173678 0.10279450416042298
Ni 4.960174044090871 5.133835831090785 8.26060391890761 1.20325493932556 -1.0886948099887765 1.706036990728494
Ni 1.0702003088490375 4.549229121437367 11.9599958109207 0.36594434161487294 -0.03620421783469893 -1.2677865433500424
Ni 8.426620153995682 0.50277909363798 12.473314198679088 -0.35328680075186253 -0.174991338039647 1.1631562715324613
Ni 2.3881150094623527 7.01173202603907 3.959343451102219 -1.6456134953351143 1.4589508916051261 0.33977951029404707
Ni 5.934583755530592 0.7493246259005689 0.2575002139031176 1.0999703829025957 -0.797645160800265 -0.5169542291382582
Ni 2.8121828248479637 3.899557451793528 7.980450183363396 0.10135880015516091 -0.19913091140032801 -1.2795521685264029
Ni 3.849608499542078 6.344764961218848 6.8667357033761895 -2.1482222543849776 1.437824394039156 -1.1903739695978337
Ni 6.260327668451432 7.639730898388647 7.596507312242133 -0.9514747771606323 -1.2776518661798963 -0.373382285950157
Ni 6.467583688300681 6.515427762086939 9.78826417040445 0.17803295307944822 0.9489273281484303 0.2637730728607457
Ni 6.218909993519081 3.55964752052951 9.92252002472193 0.8507854922686703 0.5514993141029793 -1.8338740396798416
Ni 8.497571322791421 3.6278604845961935 -0.010262679561042883 -0.06204303327467379 -0.0570725766432759 -0.8782901254468422
Ni 3.458650608686377 0.24470702337307998 4.333307708119025 1.321927033948188 -0.6584914012845176 0.2573183183743375
Ni 3.935144799649726 5.450862194261979 4.3273916957248195 0.8542361698214319 -1.0289467433958666 -0.42668639668993613
Ni 0.7844993803231032 5.669341128051745 0.4273592492333942 -0.014801840899522894 -0.3750385906066573 0.6297014736360188
Ni 2.4966187002565716 7.216985617259928 13.12503300233465 0.938875600339383 -2.103604615675603 0.4112600348325369
Ni 4.160683458557263 7.107857913823373 2.5243900569269746 1.3930226643434331 0.19163177480980545 -1.461584215462915
Ni 8.20705152648721 8.329711922003076 10.632894154032757 -1.886614821716983 -2.530001506149578 0.861382036837594
Ni 8.597804517669308 7.380840160791489 7.902765266203347 0.7582548319281006 -0.8221236055576034 0.009870722146492678
Ni 8.9020153376188 5.883433346102106 9.828831511691348 1.0063683438747184 -0.5067351225134112 0.34515440145271525
Ni 4.602475095709517 7.6861127335951025 11.207554847257063 -0.8687477331740456 -0.313960235238098 -0.4847249367909071
Ni 4.465006041965082 0.8444660638894257 11.730347050833123 -0.7130656369859719 2.1804309779070383 -1.3349067340373075
P 4.291744740690846 2.9223163994094774 4.015300620600995 0.4742209519357898 -0.24136796569266822 -1.7886771314282288
P 1.5530463896940745 0.836352968176907 5.201902571299488 0.2796511775435829 0.4974117882299563 1.886886844431447
P 7.729029901593366 1.9564845333964926 1.2053484081088444 -0.05633415581535459 -0.42625290869694327 -0.5256126761442044
P 6.154562182386269 9.069762974948814 11.66169914064111 3.096101343774552 -0.6777073120913361 0.7263538694544458
P 7.261271887622718 5.643216419667386 8.074766434484925 0.5985196487165757 -1.0566750625490706 -0.8787045872764415
P 1.7055010604760974 5.632263600751163 5.5763166762360665 0.5256612699939528 0.1990694620347733 0.6602564636047403
P 3.1733464404375096 5.266638760449992 12.308346677375003 0.20010715927066827 -0.23887965205317566 -1.7653078605746695
P 7.638697086399106 5.140029389406506 2.654216352846025 0.7082275921673803 -0.1015212938749542 -0.11921511161029145
Ni 4.030218248201433 1.8028004645728528 1.1738171424278292 -0.5171077239969869 0.09083218959222421 0.7020039798551716
Ni 3.461724103790419 4.215931861457804 0.5121243814785739 -1.2420688268689641 -1.5723270279361372 0.29826262199718306
Ni 0.6061630866785865 9.327033142400204 7.625133659368752 2.058428790469913 -0.21123900751777167 -0.4576818166301859
Ni 5.940414082606745 3.214559215696258 0.3987468725390664 0.6611550641596097 -0.3529415015973018 -2.173553791171231
Ni 8.466491767754484 7.4456257121360885 0.5460734633081024 0.9761699659144671 1.0039754181625098 -0.9343512301064683
Ni 5.799880847379795 5.726098337639726 5.868670324619023 1.2118807333213582 0.7419231846476125 0.5321031689645546
Ni 7.072494092883833 5.626545037133339 0.5250647272287445 0.4098127608630491 -1.7956281088247654 0.8621184007829863
Ni 1.2129408723779813 2.1079333330535563 8.643633123757036 0.7603438532466453 0.9580868831605113 0.28544721540006973
Ni 1.8170782463743582 1.8155973805515015 3.209901473570405 1.9516711878966837 -0.5236311269378014 1.7936918110340012
Ni 8.810592828705833 3.109911364214383 10.603478011800613 0.5652716852967232 -0.30982358736190513 -0.3825418409622379
Ni 1.6782959719945596 5.972574017740858 7.852792098535925 -1.3222183399363614 0.6553317726096134 -0.20776107627150026
Ni 0.3266352265010134 -0.14982822951129582 3.8264911595489166 0.20858048684900204 1.2524951644086106 -0.24496776722878458
Ni 6.664808937764919 3.86633576380529 6.915304376917279 -0.7545174763728554 0.4892837598061831 0.22710965600144112
Ni 0.8186421854804016 5.046082889059615 3.6250328691004747 -0.9007201723155842 0.9403490995611159 0.1468272169006052
Ni 3.935359012944857 3.7595364657505854 5.867456759734003 0.7511740138219192 -0.23044874767700313 1.7150931873934914
Ni 8.76430412971465 3.7486581558065812 8.17528462618155 1.3492673736343537 1.8842720325164193 0.8350778517254263
Ni 6.035124299918882 1.9422998878102613 5.4532660399782005 0.05506737328778903 0.1055026471202054 -1.0346126834323925
Ni 2.2608071168043122 8.480462200045585 10.996471860322206 -0.4678507867433878 1.0206053134097066 -0.44469311768000186
Ni 6.253370393170464 2.4431771399323456 2.6666342044285085 -1.0387441891022626 -0.8632982800237003 1.0527921825548965
Ni 4.6825908680882184 5.96135110380034 0.005699005012616516 1.8438892578239985 2.251636394407271 0.20055761654452556
Ni 8.747167066104232 7.259120441049888 3.1808113080917217 0.5620421226158321 -3.41213028861622 0.4857634053577506
Ni 8.840796903319193 5.611605988203388 6.033038048696745 -0.4063674826269259 -1.2149110355072494 0.32657226757515373
Ni 0.42330689250682213 3.328483434219424 2.0787109141491835 -0.8274159643047944 1.2090057257664082 -1.0557394381086784
Ni 0.7554390184333074 7.725192689524077 5.5177284086558 -0.7167741961858106 -0.6666029746480583 1.383162997940534
P 0.9450904308714633 8.545862450410993 12.926286838474985 -1.731268511601773 1.422430428081589 0.1709634478271765
P 4.479898522787396 7.467587231697699 8.87679870733336 -0.8134890698110571 -0.24834671100334646 0.30301530619082007
P 2.8991534226708318 1.5755108448181652 10.29814769454353 -1.173319070998076 0.8698057421249149 1.7034363198808533
P 1.9022606288639656 2.1157008934074084 0.791415675669351 1.5716644546514738 1.569883451491651 -1.3467980861582547
P 1.0266405009653843 7.742692984374063 9.183287639108453 0.7813919321661962 -0.7958623578682293 0.6730235334624215
P 4.80871593081228 7.4919702928564345 5.0018478436152245 -1.01015840704477 0.563415605924591 0.051985391928355634
P 3.3402837926946405 9.219786790512185 2.1857449154663784 -0.2883412491184131 0.1809994919069399 -0.5771969759793996
P 8.905200596181169 6.036018407585513 12.044783295857545 -2.1199660877527617 1.1318122100035413 1.0498356710297339
Ni 3.020519224794391 0.10936799487196149 13.120616483006357 -1.2059455987838457 0.9307501430187711 2.476723106441412
Ni 7.299560185721862 1.9817151341142212 8.305028030869007 -0.9199319693573447 0.15314184626472332 0.3415566567991279
Ni 7.590042727539965 7.714565847361312 5.729861040736796 0.3191973152673212 0.28605116753265575 -1.0442782315466144
Ni 1.374569460364494 8.02283740629675 1.85484218758151 0.5917481343206971 0.017948356948304576 -1.1240294807343285
Ni 2.746745319996446 8.474231387243755 6.499723133467436 0.7869282886033931 0.41184907456678743 0.1952961110352701
Ni 6.750643273761444 4.177429350063529 4.389850704411875 0.346001579944359 -0.5074920552840937 -0.33327179108251637
Ni 7.869432746118932 8.997116727035086 2.2211180500274463 -1.1901579969322857 1.550659827375349 -0.669987317739259
Ni 8.506801121725074 2.0844909476690887 3.781821167979197 -0.5454402523930929 0.07757198214820835 0.8454059731243116
Ni 5.259746680519716 5.385638902705591 11.276679614871279 -1.4472150912254365 -2.2468194326346014 1.0386297750115854
Ni 2.6029430036133783 6.301382112144215 10.251146503505502 0.43133855074996685 -1.3277356702101648 -0.5087786353060012
Ni 0.3640694655060952 1.0476892856173101 1.7318595407607942 -1.3702594025049886 -1.351637416528427 -1.918216250672348
Ni 6.595040598903161 6.6999771726523845 3.854040852026968 -1.155441162276391 0.31427802358883294 -0.992021331124427
Ni 2.820071462281672 1.6616990984327316 6.864718372953354 0.33682299876888444 -0.10681288129119669 -0.4737324423351454
Ni 6.676003910840855 1.9053341239680077 11.469195897291263 0.1224690997712149 -1.1860501454114993 -0.00800924345772169
Ni 1.1506141171166155 1.2784808270663006 11.60545604296144 0.6363068947676783 0.8399092116757987 1.6781580049300389
Ni 6.697527690190678 6.958420856416228 12.284559687994019 1.0892080021797694 1.0252068167374602 -0.08610213110640655
Ni 2.6778338343152077 3.96179107083962 2.65364356512209 1.4010393640003225 -1.5124300944701887 1.2260822216327207
Ni 3.4494301233742504 0.31116995795476443 8.855655855104008 0.46280679656157714 -1.900915554610371 -1.4442755489811385
Ni 8.464172675994162 0.6803889248033594 6.061813413767801 -0.3900592323852056 1.6879593072911767 -1.1133881989703986
Ni 1.2273304176378157 3.418983894601177 5.648699348660567 0.2558545893446174 -0.1690250931538831 0.043118428456028965
Ni 2.700102703387223 2.929338870041138 12.206574872220788 1.1986976589721805 -0.5754504256019379 0.8006212127094534
Ni 5.60138894538783 9.190141533190468 2.632432723455587 -1.003268621903472 -0.14636107589746405 0.39071177836754
Ni 6.074791014004083 9.114161008769932 9.420855771580781 -0.6895410715014706 0.9141135629033548 1.051761427297537
Ni 3.902090756848981 3.459032467169 9.986314606736014 -0.2220209286246241 0.2088964754275241 0.8255555140572879
P 7.185570771848004 0.10672851453109611 4.411634333802312 -0.5107522140926042 0.4161536154794123 -1.43179387157436
P 4.986457084041196 2.6532272462398154 7.696057818662061 -0.8160231490868205 -0.3757356166736819 0.18281340518722708
P 6.178665834899183 7.571806656589313 0.9509663946931005 -0.3312010245964167 0.9428258432363827 0.3436518487652598
P 2.3969350090488013 5.883759322855566 1.958331424545376 -0.3555372873489361 1.0395371173172032 -0.1784705548374991
P 8.4530708391335 3.0527722961437798 6.200949605765642 0.3212248872203113 -0.9533239145542289 -1.8479832253877142
P 7.179814953744071 3.9303110300770054 11.781546822455702 -0.6876914198872414 1.2552274757381092 1.3106797431691426
P 7.652686145933262 0.02112701907275585 7.978664762116594 0.2712984347035134 -1.4258607939193766 -0.13265683893749414
P 1.6679671657206723 4.192992411635816 9.720992813474185 -1.6863608524558051 0.21598552106382157 0.21201522356216387
