# total energy = -381165.25849794835 ev
CRYSTAL
PRIMVEC
9.31418937059555 0.00000000000000 0.00000000000000

0.00000000000000 9.31418937059555 0.00000000000000

0.00000000000000 0.00000000000000 13.63225763655784

PRIMCOORD
 96 1
Ni 6.746854128939245 8.82039758697439 7.640771341876097 1.3233959051842306 0.21931304277515778 -0.2091996084902397
Ni 4.648898180658255 7.67891574145786 11.569846616706288 -0.20897823650805297 -1.9950516117648476 -0.9760378112119771
Ni 5.048020507832857 2.5742556482816332 11.64768715981295 0.20732733116819133 0.27259375647616924 -1.6799701184381133
Ni 7.466766450984921 7.86408182542862 5.595782394083866 -1.3543139349193256 0.6036561986121927 1.9278100650083703
Ni 5.7641046980620345 7.551954026638673 9.243869999326295 -0.4540920423963986 -3.1005151565715314 -0.06226903324255082
Ni 6.435257238941366 1.0985061759269394 5.416081876414617 0.4845009937055591 -0.9925319522122584 0.7434609614483777
Ni 3.1297632143832503 2.945714833132635 7.4452571935546565 -0.20992568802298686 -0.15490896546747515 -0.4244924743624109
Ni 8.353654245230992 8.456408381969695 12.534764963521445 0.5247004487425803 0.015188534814980295 0.9274542458763188
Ni 1.679646391077225 4.804696625657196 3.8221716667429475 -0.4599482440668595 -0.36053114101910166 0.03853903661546266
Ni 0.7344331432182324 7.104733225740479 0.38425129248306605 -0.09340097876066494 -1.3291592900305689 -0.6654758030221506
Ni 9.156295196946099 0.35337196058224807 8.577102578785667 -0.050256582162706995 0.39924578398048016 -1.2925673498391481
Ni 6.198080721726504 4.390634338789983 13.102044733522993 0.8552353005099077 -0.7445765631100596 0.44476510856851786
Ni 2.3041162150118155 4.512193823795134 1.6466676409004006 1.4786265156571825 0.2955526792651878 -1.0203566877340104
Ni 8.285688605656814 3.6009214818712247 12.450627097005697 0.7399776308854675 -0.28424625311343305 -1.31385377002175
Ni 5.3751814082087614 7.258920315984543 6.445276512408537 -0.6198112111055003 -0.8814111875743273 1.650835405855686
Ni 6.959953466724307 1.5258598109745474 8.84976150027048 0.07341296567451226 -0.8184299587561 -0.4448625533783306
Ni 1.1916294408937234 7.442083849248376 8.673388011031529 -0.8149849376302933 -0.20973234106525815 -0.8152608169994993
Ni 6.776277653047074 0.1422751735041131 3.0893694380771937 0.29098768560232463 -0.5045296302216602 -0.05765081774424909
Ni 3.9266479970896087 3.9203609192887905 4.483853539906913 -1.156775307706782 0.9081809994690037 0.17136453992033712
Ni 8.098780768280493 4.034049914306251 1.1743572081917426 -1.3767578657451387 -1.2643055267799774 -0.017233590269467094
Ni 8.858697533518042 6.231360320218835 4.884233282641678 1.0044652133147347 -0.7772820237628808 -1.014245689740266
Ni 3.6054481778878134 7.6703653156487475 7.97866032552753 -0.028474710400925154 -0.06293983405733031 0.11102563382096364
Ni 3.3839288129443226 6.2540683138164574 4.95505278982796 -0.6655632205296343 1.0017339304265005 1.9692536768651374
Ni 6.177030653830433 4.110631179014883 9.644849575854204 -1.4318650911319277 1.8635975348862033 -0.3701527232692658
P 2.508329816171721 6.032511692115627 13.060221229154086 2.1923130740566052 -0.08442474340398362 1.0283978128709321
Ni 0.9661981164297234 2.7014688462128533 10.946730144482007 -1.4287625409472038 1.036095438625506 0.8831104296536211
P 4.382344710282238 5.516011950947085 9.55179616730743 0.41663595443246954 1.0742922614102013 -0.8378556715808797
Ni 0.9174122555332419 9.09480291895943 10.66202052483616 -2.0429481783358105 1.582591900197255 -0.710128665844835
P 0.37539442984484694 5.319249701254816 1.5149528952637947 -0.2689656728052787 0.5753051582733253 1.2557859193447403
P 8.537236917014878 0.6722134270445361 6.431876188212926 -0.9283489897764462 -0.012931106239371278 -0.2355027651611428
P 6.88870923250437 2.5041011742138375 10.670595167537543 2.64046406837822 -1.4986291840313546 2.039977268632945
Ni 1.3181906455715253 7.901161613169445 5.830011901793278 -0.3955950746017703 -3.7318667642164636 -0.4837044659461928
Ni 7.4898097553985865 6.188049339813199 8.425676214260363 0.7691416540439334 -0.26549288376532987 -0.29604427418962564
Ni 1.224964924522061 7.093220887722981 3.302482747146258 0.4582628859446366 -0.24741802854149003 -0.5972207273994941
Ni 7.791207608075139 4.432455048902092 3.878527169311614 0.2979327494615901 -0.5732364486697547 -1.2014749646070018
Ni 5.6091631584818735 2.949645421031813 7.453831836256039 0.0025641611827504226 0.07402643088879508 0.3441956370838718
Ni 1.1480856057547242 4.9173890024158595 11.951263601374851 -0.12356593237981946 -0.9445353697283216 0.7066299086629573
Ni 1.7869644805898561 1.7210107059119408 9.107738465107248 0.44188290192471635 -0.22877984461501247 -0.7806193156662298
Ni 5.953760221292046 0.13500172305276664 12.016807551722046 0.7662118819916482 0.9031850889163091 -1.2016305163482595
Ni 3.015627138277732 8.583370096788883 10.126054127958419 0.028526132464150873 -0.39399507710450205 -1.200039517712056
Ni 8.49049831493413 1.7677306796140202 4.08681479688645 -0.4243801171542627 -0.21926779135951913 0.27997616498316946
Ni 8.10203142035825 3.482528821239819 8.52684041887966 1.2453202439267261 -0.12661834605289807 1.9914317556240733
Ni 3.3308845046840867 3.643943722407489 12.801385496060671 -2.888159776061129 -1.0408951740069945 2.07030291619968
Ni 2.4511500078469477 8.169009755862966 1.3583469100495504 0.786692004222871 0.7994097088998555 1.2942457659828355
Ni 5.331516488608413 4.5970926595795145 2.7044214442319037 1.2905487767472226 -0.4908824717518708 -1.1054427188710767
Ni 0.642598030636416 2.700490856332726 7.057093010132148 -0.41050670160628006 -2.1826508683764927 0.152919188730956
Ni 5.526089903807064 7.617553862121876 1.8201928510408465 0.9484413896509473 -0.679952399371771 1.1115388044664858
Ni 1.1817564001991054 0.7137025520163348 5.472997161762288 -2.638968714779616 3.5292352958620445 -2.519613478047035
Ni 2.4568502917196895 6.1847986877354435 10.27481011440151 0.1830193505504461 0.2080582957969449 0.1503817670210829
Ni 6.06614522980267 3.3071892070170037 5.055904037685616 0.6882964004610921 -0.010958813004348868 -0.8572309907836978
Ni 4.076420161589097 2.9184522009504206 1.4700072746299466 1.6954466168071574 0.8137852608952372 -0.764789804833141
Ni 5.0639757141629325 0.1500366874765897 9.662148819705255 0.05839592344038975 2.3325911769847827 1.018990146403787
Ni 7.750914425013895 8.830829479029083 10.220485105107773 -0.7827862414105615 -0.3666071720098525 -0.2614989321145883
Ni 8.726585071996851 1.3732002477813499 0.5166804364416313 -0.7677321752909164 0.8485540318349901 1.3588038523698793
Ni 4.780610132038061 0.742746057199314 7.30139581360687 -0.9635682179900564 -0.3378128734859795 0.0629280069827884
Ni 4.346196341474868 8.373977806358969 0.05720495663597694 -0.389995983247438 0.04762248697396959 -0.620094546673874
P 0.545397013578968 0.6313129588386808 2.5154514453369146 -0.259890707087204 0.7321555637378875 -0.00458427693657275
Ni 3.7675150723089024 6.284544341319089 2.816165636516311 -0.3461378484119071 -1.245923424728364 -2.1956984455890702
P 0.03814905667643069 6.1132284568887965 6.922351152961814 1.4056894611778243 2.460995668403826 2.188964469299346
Ni 4.224199089570993 1.4028752550012111 13.277328462609802 -0.8613303576640522 -0.9795761633825387 1.4400301434412233
P 3.1796127557017364 8.141011302723323 3.477043695140705 -0.054572693039557627 1.604231847064534 0.7558770757245433
P 2.349019921793658 2.700788910391431 5.232210464761357 -0.3848049259648018 -0.7362562161698224 0.2594199380983726
P 5.952428292217206 4.824042196905046 6.550545480267568 -0.40554832915974026 1.5299349361231716 1.0327532616261506
Ni 0.4023841562795589 3.103990852494563 2.5486183421382975 0.08762345284693941 -0.38047544535151245 0.9492605431181329
Ni 1.0021508872610683 3.0184679660247684 0.3107893497825738 0.9206518782425047 0.31362264939302115 -1.644375509162955
Ni 8.1569944516214 4.506661195330414 6.623409452012782 -1.2330414265593734 -0.9851999373272196 -1.998584821729087
Ni 6.846348299410858 6.300266692915802 10.977416672663601 -0.952524044360753 -0.2241886256999042 -0.3423516418965975
Ni 3.076327710170964 3.771268690610724 10.238371142886901 -0.2571270282991378 -0.7124539715439021 -0.5286532627427413
Ni 8.570358174288522 1.2771709557421875 11.909862961201732 -0.4008558087800774 0.9122238020798097 -1.7573438685325864
Ni 2.4619172107176825 1.81535412968155 2.4459955354692102 -1.6421677028783588 -0.9670075826889087 0.3626682419667625
Ni 8.630062127922958 8.51764917684433 1.3805118864089678 -0.3243598333048672 0.1593603163706094 1.2419937506566545
Ni 9.185905004840619 6.925761077677191 10.940172955190487 0.9993497464650402 -0.27012575455165094 -1.4017029657262505
Ni 5.175596959148124 8.430170310614281 4.497826686746598 0.007098815828310355 -0.51357502825338 -1.1691307439483414
Ni 8.754304099456458 8.514454409902582 4.00973801730522 2.173178410109683 1.58072605063311 -1.5332634862757724
Ni 4.537304878241068 1.8132025519452704 3.7057657226966003 -0.4277148379544505 0.16668076129142262 2.834230887253158
Ni 4.668942316106198 0.5719573558853573 1.9825121599929012 -1.2840677970085692 -1.3095312313869962 -1.0739289645335117
Ni 1.9756792706970787 7.874336747885955 12.14722762504115 1.25243808591843 -0.2671682145852237 0.9987146839842027
Ni 5.799638330373325 5.790650137665489 4.6340951395488625 -0.19193207965904363 0.3764066745987775 -0.4926850721782483
Ni 6.383442403673291 2.3314254181407024 2.5087172864480385 1.1754934529415755 1.1828450082106403 -0.354707335248473
Ni 2.730082035848576 1.285991493042002 11.239046662557376 1.3270700116017078 0.15487631245732683 1.0791655303421028
Ni 6.5346396391409645 0.27006212549834097 0.5865918101677949 0.3329378047818653 -0.086410920596077 0.31350463575791815
Ni 4.5272828105170975 4.962609391635076 11.699762792382392 1.240061309520632 2.8704618445607335 -2.123215962148627
Ni 1.577208936775896 0.535870460727595 13.535318467311638 0.029766689739471313 0.3523920568517351 -0.38015971388330655
Ni 1.382393352654546 4.590488899341322 6.0876759098684055 0.8129987604381999 1.0551174882539633 -0.4672866867098016
Ni 3.2897437303934 0.09731278732946251 5.43460873041996 1.761200780384831 -0.112332011337213 -1.0591093830221758
Ni 8.202866834094038 6.09259752751278 12.81546761891557 0.7667970650711569 -1.8781918877606105 0.4001199590553174
Ni 3.557461474436236 5.393688702416503 7.137222980977241 0.7268408363931934 -0.39087195809448816 1.010302131711486
Ni 4.53859955055857 5.554563380602769 0.4335252169006777 -1.5649721302329629 1.0654754344495199 0.7523281820310205
P 4.089487969225464 2.016345021331704 9.346602713429528 -0.7308725832604058 0.2335726380179655 -0.9022602631091945
Ni 1.1580983592893603 4.663782255214859 8.46842648046806 -0.03999145279127306 0.2211794065599352 0.7436067429976226
P 6.645152495595345 2.4167527066344716 0.3395767147588529 -0.13092494384805192 0.24218429094637645 -0.2766995511144267
Ni 2.045116552186114 0.032444115709021684 7.3178642317692795 0.9298659406416051 0.8028225912361463 3.821782355531689
P 9.13293521009506 4.814877034599853 10.301269863463085 -0.8866279558885763 -0.2738582250108897 -1.1213077109277914
P 6.549933538028288 7.411328396065708 13.114750219194246 -1.6615599913620416 0.31209310012237224 0.380640510174467
P 7.1234826888709195 7.113609648176301 3.4821012999493632 -0.003770265675709636 0.14429365184547407 -0.8345903705660466
Ni 7.474478599753924 6.258175871312991 1.3462999375642495 -0.41756103734990024 0.37278630423737086 1.3986718922094104
