# total energy = -381175.8516605674 ev
CRYSTAL
PRIMVEC
9.16700329990604 0.00000000000000 0.00000000000000

0.00000000000000 9.16700329990604 0.00000000000000

0.00000000000000 0.00000000000000 13.41683594430486

PRIMCOORD
 96 1
Ni 1.5544121081280498 1.7111311992227098 5.831856008739992 1.6113746287569024 -1.2543227045356526 -0.5049960283351174
Ni 5.236641557600229 3.3604401271338626 2.2470250542942316 0.5969602746492557 -0.22784704838809788 0.8720788544298077
Ni 0.3034369814181297 8.326783420811703 6.834603349049722 0.18645280171202727 0.8656516107472254 -0.597728520273848
Ni 0.639461743424257 5.824246479170638 7.350293128502817 1.0438396013472993 -1.673459828123421 1.1728958674177283
Ni 5.774735493501343 5.558082533807193 1.2538058973773296 -1.6153156156825212 0.06149281719815862 1.748623457940453
Ni 0.9136844015264313 3.413617914185812 1.7727664636637521 0.2876264824395756 -1.490220391142369 -0.7037374176065107
Ni 4.085669271598758 3.3991248817208692 11.278997633314276 -0.5250691449359086 -0.6991238300938992 1.5469345560049617
Ni 8.413796617622097 4.835172641216826 4.560382545600686 0.6096494400811501 -0.44900151524736864 -0.6630692504631871
Ni 6.930135442172369 3.765062492706347 0.4984833139649877 0.1870233295035166 -0.4352692532629407 -0.13297642706044194
Ni 1.6307549129149197 4.125820746738826 5.5836447229460235 -0.03897560993224901 0.3134053911758925 0.7040588055016713
Ni 4.878459231539065 3.6329659728962134 9.17150812213524 0.48042939473934687 0.37137682548435397 -0.4930360277597638
Ni 6.906383736216224 7.801037438566678 1.935539443841175 -0.372352559134062 -0.8221536874645906 -0.16082198851780047
Ni -0.18487920901310223 7.918631758908413 0.9226112294925042 1.4487055597280343 -0.8050874760109232 -0.810897654934797
Ni 3.770617696801069 5.629713498817352 5.62620253649346 0.07132034481154169 0.5697140373387931 0.8631704961965845
Ni 7.190762517448006 4.589982799762166 7.475955328586738 1.6727190933026548 -0.8819930282197261 0.9344774712716873
Ni 8.257801719800511 5.9707626954180615 10.995580470745095 1.5811729083625414 -1.1176767990434235 -0.693904747786805
Ni 3.4688949450293305 4.923075037362516 1.909188892405073 -1.8490510045305961 -0.8313147851385683 -0.7089783542904758
Ni 3.9408306169838987 7.98944686061093 4.5961787773985066 -1.704019446077833 -1.0358941212479773 -0.4159744095890707
Ni 7.019632896919513 2.8617093040755455 5.597235722270833 0.4599590427001369 0.8868076759995502 -0.43029545419743315
Ni 3.827636458301349 0.7721385345531963 3.161060552053052 -0.11023321982665532 -0.11197308533589748 0.023511195748062735
Ni 8.875951096888436 7.245572031115237 3.4469198043430813 0.33452520387364326 -0.43194455976508195 -0.2897525276436429
Ni 2.071550274127293 3.375015662629915 13.102211033700247 0.8469792311487025 0.43892407640670855 -0.30637856623609816
Ni 6.056281670665025 2.2102012014089225 7.7311967893316 -0.039475175276486855 -0.14365241871704937 -0.20475262846247963
Ni 2.687692077458212 2.246273360010788 9.47644574201922 1.6553767453694652 -0.6215076249713167 0.8888679009626885
P 6.765688567163765 1.5933993738291254 3.8013519092901347 -0.451851325991338 -1.7035175667407498 1.0689225124578559
Ni 1.283270479887651 0.3016567493468508 3.4734582793500444 1.0912371167946562 0.5602562343600028 0.07102235395514865
P 5.618483919582971 7.264786070360347 13.388432382626812 -1.0267685047976252 1.958709582800704 -0.827827083700284
Ni 4.508240629939337 0.25113555989663494 7.4172159205376476 0.5303175378190415 0.10096747825401321 0.49006126140215606
P 2.33811756764283 6.876691812020177 3.4436325169035316 0.47970280098596735 -0.45159215879268033 -0.9827633028612688
P 0.950829099532723 5.394231514023269 9.620770127740164 0.5189707453476546 1.266764015622799 -0.6763325432309965
P 8.134404686270726 1.890786132965875 0.4659670360039518 0.7872648460072055 0.5267637590295121 -0.10756775717935023
Ni 3.4327127823859858 5.357710172252029 10.040247622414126 1.2162163845822342 0.3231388164135725 -2.0199033807012055
Ni 5.264289240025445 5.375512492964817 12.034405469858765 -0.352361974944748 0.11477430223011846 0.7314917049016434
Ni 4.37277065285716 0.029979768104584494 0.4285069930787518 -0.8799407736763877 -0.3523354925821867 -1.170421694845623
Ni 4.713709845416391 7.507418317850607 8.965183625235682 1.083768833442069 -0.351368243572911 1.3498818672899011
Ni 7.387578081661995 0.2739943997161041 8.759731827065195 -0.20446389357746722 0.1528096597362852 0.3473575797516211
Ni 6.821891465356404 3.3340574911856624 11.460581304584718 -0.8976214787856025 2.012961659276049 1.0475731002478021
Ni 0.6852655928956877 1.7014325095655882 11.86285783397265 -1.2593517823191278 -0.37783415107392354 1.7111452584893367
Ni 2.227141823796787 5.791648614878838 11.76125260105998 -1.2601028015525395 0.16782387375693034 1.762965842705054
Ni 5.955233791562519 0.9565951447069475 1.813687967094178 -0.009005031712087717 0.6010370158217907 1.1034400866187513
Ni 8.801780871920787 3.5975080035259426 12.568127661811408 1.1209852945913663 1.2104473433089413 0.37177894601877903
Ni 4.636248666207812 5.65048592865009 3.626154889327932 2.1049621581447617 1.152666170634415 -0.9497014873102935
Ni 2.2736918673495876 8.182265611317826 1.776711025251143 -0.19207451877417886 0.11956298186801345 -0.6495475618276684
Ni 8.816118065326966 1.5031318907916245 7.056611672163239 -1.018536603806136 -2.681551068226517 1.5167783441365554
Ni 8.415006662078374 5.109238543559893 1.7865453865594227 -0.3703941498561105 0.9402835364305032 0.12195667891117061
Ni 1.3429018373730726 5.949605251440144 1.2695373920092636 0.4136455043455779 0.4005529328276779 -1.3154761361165217
Ni 6.005074789356252 8.681133939427992 4.060766190008458 1.2312413972361569 0.5522377349309006 -1.0524466262900196
Ni 4.542681061925921 7.7688520894304265 2.248863038487287 0.1941098040366528 -0.7268881446913611 0.32192037062543916
Ni 3.979047854394617 7.751627289935406 11.600022427564308 0.6209026443974662 -0.6334971932330251 -0.6743607642166063
Ni 5.595282233834224 7.626066843589854 6.132849067036583 0.8770904487117862 -0.4019084184143078 0.7313261258580566
Ni 6.411933903772157 5.347058114235416 5.478872290339087 -1.7803493282888243 0.4246074026737204 -1.4293562086671447
Ni 8.377770294037516 6.725298749933824 5.9323483674330255 -2.420110757264006 0.019547068893992145 -0.8830703204443051
Ni 3.334332501289361 2.2969027201017918 1.4606776643832489 -0.908417540959842 -0.546132136253795 -0.3926534754749431
Ni 6.812321113747675 0.5519736958348082 6.226699931725282 0.5133163752753547 -1.795097433132276 0.6876801070333317
Ni 1.7144496544740124 6.725738766099742 5.435415193752555 -0.9099393769210071 0.45874702466990674 -0.3048197063894105
Ni 2.9153271072934133 7.382572897774671 7.462739259703304 0.012069529570024376 -0.40338140341540857 -0.5519384585229268
P 6.860768727016 7.522855551671581 8.02911798476987 -0.2820297050780885 -1.1922750432752887 -0.44403928614608684
Ni 9.268573854936182 1.5356747530626846 9.662603748014524 -1.1087535284118648 0.07309286333093218 -1.7452568554610655
P 8.974212206940122 3.3846593502662965 6.5499513911149325 -0.6883082275356338 3.682219019282349 -1.71983712983638
Ni 3.761817373482698 3.5707953554533036 4.430628195173723 1.4861225669239115 0.875172405753467 0.5265732402852608
P 4.9058960728847785 3.765319168803133 6.425926417848366 0.8683466410808851 0.3967695545258457 -0.13290340773066142
P 6.815557065967869 2.3899753061970235 9.744165327869256 0.18128668413005555 -1.7072646924880082 -2.348815352153129
P 0.3719658324585626 6.5125325997052865 12.656249149339711 0.0937971857578191 0.5980139127247508 0.8670045252306939
Ni 7.124631754511829 0.10072795068186916 -0.14469014915886153 -0.5257448308466945 -1.4455389890745944 1.6745350634654708
Ni 3.4685374318945215 2.4981092789715094 7.363843793012418 0.9919742799365755 -1.4901759110576787 -1.3133050966071316
Ni 5.009565714975882 1.5262144054954354 5.226797112588147 -1.1918490114814635 0.31719468301499565 -0.0006260636197731154
Ni 9.099231800081734 7.346097391020715 9.046315272628297 -1.5854537951260823 0.10341671112545414 -0.563961451125732
Ni 3.7792346800503074 0.2895838057944604 9.741025629185359 0.6966663696923421 -0.49889505764370207 -0.07985383620384957
Ni 6.55220739066561 7.48083400782636 11.15777592970475 -0.9814157876944387 1.5829238296153771 0.6401843754452137
Ni 7.39634173696654 0.7710494945425478 11.298706690746045 0.09077176866793399 2.4209725910436695 -2.626624591391967
Ni 5.150435057094017 0.596972682402746 11.566882793368222 0.28872742881323826 -0.7487116683243558 -0.9420609400459001
Ni 0.2069561034377203 2.63136084121718 4.032229308247949 0.7137289816015837 -0.6506315389204667 0.7335701846972269
Ni 6.272008763010055 5.5379884622302455 9.860717359917972 -0.4610296500564964 -0.3565382178096247 -1.2172216859182972
Ni 5.586848590654118 2.1542549793130688 13.041499803207632 -0.6107295605192062 -0.6205169789232733 0.9889272655801357
Ni 8.384388870533208 0.5694487545241945 2.2029235173646984 0.1583025645300564 0.9223912295311146 0.14126617787305992
Ni 1.9114302247502208 8.14821019347642 12.631548658525803 -0.7016854201734883 0.3416636146906374 0.12072434916596626
Ni 1.627848972819166 3.6780492958959523 10.67112080029986 -0.7932141216121048 0.7124490864478955 1.2728169066850983
Ni 7.612838857601927 3.0589190494381695 2.6918199791147357 0.09260830765604051 0.7629995457019376 -1.2010761865066863
Ni 1.3010269655831561 4.9495768443556525 3.362406449375311 0.8821994878035774 0.6662144809603882 1.085656280272769
Ni 8.552676719990142 3.7809305756897853 9.71632513837145 -0.4276737003038699 0.7293898280672922 -0.02672533180998623
Ni 2.9118894809971745 1.1811592283841754 11.97188283948312 1.6096869566418341 0.7276093391281018 1.7603134926838717
Ni 5.2377599320219375 5.792180301079323 7.5226190429824005 -0.2758757696615507 -0.17999470479150936 1.00831081231307
Ni 8.43932672224883 0.11739906316810857 4.554398325744194 -0.5027128887278955 0.5016787910364263 1.2606201075085903
Ni 1.3403809114224972 0.9746999765338049 0.7142333238186594 -0.5198675461303112 0.4598775387299241 0.10671415092980333
Ni 2.155034174606883 7.511158455260913 9.789553912084102 0.3450327882731864 -0.45094784034046204 1.033453887237601
Ni 1.6557349973342548 0.12552561173241694 8.284199022954242 0.8351642407916455 1.646295351893487 -0.2887382274465156
Ni 7.365036420162125 6.109963642907089 13.175614897178917 2.166258543061398 0.006984915958265389 -0.5702336572876889
Ni 3.5208901886353736 6.635957134245443 0.25926394186163465 0.33655071894410427 -0.03590905519178332 0.0040325181981607965
P 2.9576328282457913 9.101358544883674 6.038931283222648 -1.5451792638767519 0.9011927410766286 0.7098070208393581
Ni 1.341499285844207 3.062219170682559 7.9749006595259395 -1.562933502536379 1.2920305034990716 0.01715594295399626
P 2.3956221803263116 2.419071375168388 3.5940887112366173 -2.6516668790725753 -1.5874489711792403 -1.2940932995653711
Ni 3.1167261732357208 4.773194530846506 7.627592232965038 -1.090640877971554 0.18327774641815534 1.038374721577986
P 4.34854226272127 3.7989070694682496 0.201549404798996 -0.13947848984501784 1.0827537619139933 -0.8373982723284867
P 1.7460391483855824 0.5199121012452215 10.46027513729549 -0.6289229435987814 -2.5380480306031385 -0.5871887970847887
P 6.935837318322397 5.911754694167691 3.139687683493904 -0.3731920243162218 0.011144189542277581 1.492242049558088
Ni 8.972195466179663 8.39040242480076 11.174520378218643 1.136998382190171 -0.6093169964423958 0.37324241793818297
