# total energy = -340862.5318152429 ev
CRYSTAL
PRIMVEC
9.30115632561127 0.00000000000000 0.00000000000000

0.00000000000000 9.30115632561127 0.00000000000000

0.00000000000000 0.00000000000000 13.61318245782410

PRIMCOORD
 96 1
Ni 9.077891274957915 8.498178110667999 4.249000694349823 0.0029166594261627187 0.12215439674427349 -0.45282783097199436
Ni 5.288358397168454 2.5351789487356293 7.450004771975446 1.12421202905878 -0.5110486622871006 2.575737574734112
Ni 3.5378621925429945 6.411156772518168 10.488603220916334 0.6397979386400723 0.3272950046737912 3.081863345798299
Ni 4.9433506091631605 2.1114182709387097 2.770214516066386 -1.1864232124802019 -0.35737459766799096 1.1801085831160838
Ni 8.33537067203417 2.862291312156171 5.405917570979051 0.2483351410391207 1.6169829760826153 -2.0290989311575442
Ni 6.436874469491577 0.7667529052473712 1.6476988958660357 0.5188486179474935 0.2540350196373754 -1.4106576038163772
Ni 4.641369969873596 0.3011798097382415 11.428348330868378 1.3218321602415364 0.45719536391207066 -0.5077797617278417
Ni 1.5598783088666779 5.271941856424126 2.7374744461400216 1.7581103143849657 -1.2964733697617734 2.1885618345442888
Ni 7.04688149961961 4.867667100927131 5.595835089673783 0.5094404372597162 0.47317502716977855 -0.42181287064771866
Ni 3.5488933638306843 4.395093955239995 3.956522116263887 0.5418317091062281 -0.15699464435191027 0.9279489261245503
Ni 6.277954914161503 6.245066025735474 1.2549054876182173 -0.6507456959008276 -1.1596940240154736 -0.2934950254052107
Ni 8.751699726004054 3.4524124702664296 12.58390351822567 0.41223268315845135 -1.6227777283875213 -0.5539264354872331
Ni 5.648824706826479 6.42124852702672 3.791394039150901 0.5070976480591525 0.3307896480906109 2.1648413509988975
Ni 4.839856643802179 0.6269249031931083 5.603798739637122 -0.09094943189637886 0.9296939338401149 -2.4015322229308707
Ni 7.262445096384786 9.084885744442184 10.706427928760801 -1.8776051620192051 -0.7769441808074877 -1.4745631442210863
Ni 4.943406416100536 5.498229686321433 6.501151969843885 -0.22434392033084588 -1.077610270039841 0.20521465570056271
Ni 7.086718351748763 7.963575554089123 5.341335922818053 -0.07111337100705818 -0.40846318881369004 0.8155487805535632
Ni 8.4113425161133 8.92617081454915 12.574836751133562 1.1411090619244346 0.7133358599282231 2.1218764174015967
Ni 0.30490864327048 5.7008646759281865 8.074142118646698 -0.6889708008202974 1.4216832655029192 -1.0715645780663934
Ni 1.9899265682744565 2.486552503969995 10.24639739224858 -0.6003718714339661 0.6500322147735708 -0.03337214770254252
Ni 3.180995430345624 6.87729351809478 3.7499825012721653 -0.20092065631089914 0.30312586362675537 0.815218393797338
Ni 2.7953136861505605 8.602630095120576 10.144706921080417 0.427941866363592 0.8267796162723762 0.33097168219443
Ni 3.0184019183050625 9.243275133867202 3.2771963591073834 0.8765438321796968 1.2228385178844423 -1.1092088707817283
Ni 4.065749314324473 5.513641702193019 -0.005153770666533655 0.18937614600640934 2.4370532986556155 -0.6861742119117666
P 4.315615575262499 7.385304069014714 5.716665480130149 4.884939426260677 2.840543973955379 -2.4418280943364397
P 7.983619545762792 7.428898588260415 1.057103378788094 -0.8863289365909187 0.9217775072065156 -2.2813421490018193
P 1.7305173210453937 4.912117326545908 5.769988078675845 1.1507463279038828 1.2255469179545408 0.23109743700459554
P 5.434135418746837 7.5890458962127285 10.310978110293956 -0.4610697592658124 0.16187356971076639 0.5200423811452786
P 4.348588174094591 5.715755827050945 2.3275138938401887 -1.7501494076666764 -0.2692243257833041 -1.8591713807940498
P 7.7645587142554815 1.596859706033503 13.666546011787574 0.03561363543855156 0.030288623681212355 -0.9605134903241329
P 9.026083834761936 0.8203991840298404 5.72224710398322 0.6022644604709886 -0.5148191850731263 0.9572954976074675
P 1.0412551386893634 8.80040988117575 2.3426654773373614 0.9180977443620834 0.20500048280722757 -0.41907875954600726
Ni 4.3206475007824325 3.569328004065975 0.8840832706147334 0.002771392097550066 -1.2959470649446585 1.703043198207493
Ni 3.8765730977812 7.850147953875483 12.566396881971293 -1.7869267243960256 -2.392443116145409 0.3721113896575333
Ni 5.3779285316545025 4.913958955479266 10.6534178490644 -0.3019130742655768 1.0804521103640101 0.7873982862612762
Ni 2.770851645268078 6.724894073281292 6.573778188027417 -4.711214870748597 -2.211114265923508 0.24189966982642214
Ni 3.5297701866236944 3.1449441488017063 6.44831954223146 -2.9355518921918478 1.2294678502755017 -1.3432769603788737
Ni 0.1064498728105836 5.25985965448255 10.734511839878886 -0.23095885454420226 0.6490186859073919 0.7562809960311814
Ni 3.9482385065262675 2.1195474814829263 12.686029283505354 -0.7932927973688402 0.3484191882469161 0.17401920393436482
Ni 0.3174763655672139 6.995650731109833 13.180446194596486 1.060667214427599 -0.035015082622604214 -0.49254828949006785
Ni 0.2828630427763128 1.3717438218210611 3.3674110637201062 2.8819562183535785 0.19874781702929642 0.6462511504645838
Ni 6.9087593296177605 5.5675139990718545 8.173069216299202 -1.6388273256512162 -0.4587531953174938 0.5620855742592578
Ni 4.54854443070737 2.595692271162029 10.402241055213695 0.5703681259830241 -0.566794806809469 -0.9786780770483016
Ni 5.925171359548698 4.197304868028592 2.8748450827185614 -1.3338055305533287 0.9779342569037416 0.48783520028511473
Ni 4.132596724142878 4.397409943141036 8.750063652623359 0.3369304708810262 -0.2420667915319057 -0.7885223725633903
Ni 4.165532118350052 6.934309605779045 8.425103576754227 3.0184056915642854 0.1870914637372907 -0.4696014508859074
Ni 6.9169629494118094 3.6268463541866103 0.6903801813347661 -0.7826155201606522 -1.9558518016369348 -0.11263308751739957
Ni 0.8372100937982809 8.453672078111847 6.925815789910649 -2.412685668444529 -1.075731050739257 2.411166403586525
Ni 7.053736451760443 1.5782201889504253 6.47928960212743 -1.1975280641441117 -3.340618139508847 0.31140867246083787
Ni 1.0762832930480815 1.70485543100936 12.516408747933722 0.5215966130062759 1.5040035609693905 0.04257926812310731
Ni 7.999040862790609 5.335766390468079 13.341598957537162 -0.6142352596796196 2.3605118146544504 -0.8451048969441252
Ni 1.8502697074948087 8.713992838651361 5.11724967660017 2.587069969027796 1.234072696037365 -1.495839022880727
Ni 8.121118538297294 5.036948144296401 2.159513619683663 -0.47693732242568826 -0.24762963033166388 0.8313302117575359
Ni 6.109594685258911 6.922208801525011 12.468231549013952 0.6222198205469929 -0.13625664047361052 -0.9626176811513293
Ni 7.60278370396308 1.0265872153161029 3.9983140714323926 -4.200652661179611 0.12484968418824949 -0.01542610474708311
Ni 1.1565801747737356 3.170959482774445 4.898458578623503 1.9605893163219204 -0.8658153900185992 -4.003105549326635
P 1.1088838456310095 9.306922945942802 11.29448981088194 -0.07563517013681167 -0.7812392086384158 -0.33109946602154594
P 8.035138650115671 7.077510207081973 11.259041244261667 1.0263015924635357 -0.8906015958243435 0.6747644274129282
P 2.9821088066991894 1.9397840350434818 4.529758885471495 0.12705800469347794 -0.5265578136662932 -0.23944375208676183
P 5.409868702145165 3.449659328022622 5.3224136505856094 0.30120653511685547 0.31422583019465883 -0.11412664134379052
P 6.708775169536295 2.0678888597866116 9.207425687413457 0.7507258705409071 0.046254145871533245 0.4024131259648682
P 2.207155072004638 7.5212776719276455 8.423415416898647 -2.74397539610001 0.1587990445505007 1.2359208049896975
P 2.243903940265736 6.0648840272657205 12.318215060426356 -0.592727981735463 1.275857493283635 0.8254650112260106
P 2.114692277931346 2.8715366614478772 0.33083747649028844 0.40247483244073906 0.6841618094674282 0.4615418138062245
Ni 3.571309150342769 0.05244549951329483 7.386063043363007 -1.0088471444325142 -0.8422985378435818 1.4500355913933674
Ni 0.4361367962753348 3.3965776294232577 2.2360742269520957 -2.7384956039323614 -0.7822020867723174 -0.44380814397188734
Ni 0.3605388586766121 1.2684823853658065 1.1102585565216676 -0.5656738058311485 0.4214009799212807 -0.43381143777049164
Ni 6.695102469879545 2.159747078705013 11.67940234945686 -0.6630918761710064 -0.275952388535757 0.7609064106183347
Ni 1.8584547249763996 1.3630379395906416 6.512287314081341 -0.8058917170797735 0.5306957470940667 -0.3419029843949531
Ni 8.841669810207952 1.472466042625777 10.85656719261062 0.17549244604578165 0.7636672611929236 -1.813638172248941
Ni 7.068125340446831 8.139218588319084 2.9598055641774765 -0.09569645966306099 -0.42552425806103494 -0.6869974791440103
Ni 5.403962467939699 0.24932865410798496 9.216845898442267 -0.7263289297537813 0.7836383049982116 -0.7862847414821232
Ni 7.896709541958262 0.1674561565171244 8.381813205317215 0.08532668639296272 -0.0990733465550939 -0.22156455781349585
Ni 2.4119386287003093 6.910935800175365 1.2996570706988166 -0.44392872871015154 0.6508115161417566 -0.516870154064884
Ni 4.636905414883636 7.856565751673549 1.5177468614958107 -0.10715818044575738 1.5350236634999885 0.4235432230752641
Ni 1.0701910357180335 4.926124867826903 0.5601779458619789 0.1709829882112023 -0.5139203274079407 -1.6931709333991032
Ni 2.1145155559629933 5.247740247916059 9.403305247251028 -0.9619923888625045 -0.9184592414665601 -0.792670590403809
Ni 0.06222008459443582 6.818314886446179 2.4462208303294553 1.307387445571116 2.385648718931394 0.6045671404622363
Ni 0.7499661784851261 3.5227478136707386 6.99126802629469 0.08430441577603544 -0.40509170123829585 0.328018513103377
Ni 1.1875065192354293 0.6766916697124279 8.806204501506468 0.3524635335196188 0.3403901472948525 0.25414969083836875
Ni 0.1573030143774598 7.795912911903713 9.463027041282333 -0.11289842536364426 -0.26411862912562256 0.23508856044185966
Ni 7.36996646239296 4.04332422665616 10.39407277981332 1.5456271500474479 -1.2254402171733476 -1.0747059519088524
Ni 3.062414989581073 4.2790899347509 11.630285733757951 0.3004002371654762 -1.2153923460190423 -0.09247461029165364
Ni 5.755639184961243 8.535401337896781 7.1093350432353954 1.0149956805324132 -1.5948239234870727 0.8222225930293129
Ni 0.9571261805973276 6.660399855988846 4.847585904628545 0.6125563293152999 -1.503531249318662 0.39507056955686803
Ni 2.5012948365930883 2.811962755800615 2.4823502415856966 1.2974467894186366 -1.2098295072192842 0.6271897629577585
Ni 7.699283199839793 3.5022759688105314 7.571011884400164 0.20255999168653502 -0.046218150427275236 1.591115364287234
Ni 1.7899982151303653 9.104780917616187 0.042988083859565505 1.2262236323065914 -1.5884696991342706 -0.29819808730783487
P 8.251753277534734 6.3066303788157585 4.331346620792744 -1.574789887654333 -0.28434549769545864 -0.5944681043550213
P 7.996343527484175 7.178799798416662 7.615623020021704 0.2792063766966804 2.8653211809000587 -0.720517722388643
P 7.5382987878268635 2.9976510387579838 2.9789724568187435 2.2825935049104173 -1.3515991070913238 0.19491764464992883
P 5.45556528269864 3.9154054250376125 12.592792633233802 -0.34325512754747334 -0.20196478130469733 -0.2990990018555494
P 4.511163083822694 0.22854336028285815 -0.011749220548574829 0.36061650164405634 0.8041737059474021 1.1272844973365166
P 5.2265057082450666 9.335012437754626 3.3958223755374566 1.0789855531208128 -0.7671359364678143 -0.015497067194334602
P 3.352555256991019 1.8045638257851058 8.675408852266266 -0.04431553408792368 0.3250049230880338 -0.5731999390048644
P 0.36237118645374106 3.7469428834165015 8.92059570150544 -0.6479596485152582 -0.5615942364451361 4.140899709490694
