# total energy = -340894.9688758511 ev
CRYSTAL
PRIMVEC
9.04780455908799 0.00000000000000 0.00000000000000
0.00000000000000 9.04780455908799 0.00000000000000
0.00000000000000 0.00000000000000 13.24237653833122
PRIMCOORD
 96 1
Ni 6.33859339731293 1.969779466264045 11.443081614415103 -0.7953028858203335 -0.1664439626902682 0.6259751738243671
Ni 4.640257119941289 0.22963871204301733 5.999842684455007 -0.14558640251496863 1.0045870836045796 -0.257321403698131
Ni 2.7942878132320477 1.62999820845046 5.0283029871621485 0.34776535671300113 -1.1896617740221576 -1.2261328723649978
Ni 3.5486032913147705 4.275956311382782 4.8898932899387075 0.1441977496975581 0.5639431962932868 -0.2475928635564575
Ni 4.902688695349582 4.576053897769344 2.7069140679963866 0.4040969414251944 -0.1826822789260015 -0.07997904892780419
Ni 7.314073413553912 6.084721045153602 2.626996618616405 -0.15912326065913887 0.026764926798670038 -0.9292355061464578
Ni 4.85186717633326 4.6425371667264255 11.445968768895806 0.5584659752287995 0.43503374021336694 -0.4469662299848947
Ni 5.653774107153361 7.908848951309985 12.315092745634395 -0.6335087631972509 0.21068879144125652 1.1402811667065007
Ni 1.7638514312255087 6.4940256343044505 0.47941783735474214 0.4216125817114545 -0.5194404858952215 -1.3418168308935794
Ni 2.69166761229149 1.606718206949838 0.19681508614175186 -0.1341179968640529 -0.5906345895415441 1.442554966745606
Ni 0.7911889013690169 -0.21239992974253744 4.558661302788915 -0.7044383003282771 0.3481134840810392 0.07507646941986425
Ni 8.556925106570983 2.156037573878426 1.405373789773803 0.5792350894553508 0.9866397550975394 0.26980513798743855
Ni 7.169190916845999 0.6402434707296757 4.8266744689184415 -1.1117066975029177 -0.1705602988514869 -0.17311494695254057
Ni 0.7408161534659612 7.225287306004124 2.516382682220815 -0.08966568008794881 0.8860882813350223 0.2591399449641085
Ni 7.775303353894836 3.8668326783259914 3.757299049811931 0.024147029559848737 -1.0879509898442168 -0.22687491428281573
Ni 7.46810324081648 3.85237428641072 12.792785166632289 1.190926499667194 -0.7850020181149577 -0.07243800335575266
Ni 8.050854246122368 8.80231966572367 6.86439751981862 0.4268974842594777 0.6294885862942643 0.8961289534004762
Ni 6.764754046625324 0.7304862748366335 0.3987611823305316 -0.36724223449069004 -0.45517447682729995 0.032504143275292406
Ni 1.953240079267101 6.4060085901544115 9.108424994432974 -0.5414612131406868 0.37114285509667694 0.1378340122630594
Ni 9.245589713729293 4.894609005749871 1.4315409457551276 -0.5677515142957835 -1.078238133431827 0.05403173293442307
Ni 6.372712668847654 1.7847066210657472 6.831821803766213 0.9179923291324706 1.0296368274843557 0.8548588910070956
Ni 3.4541261146068445 4.4058285000885435 0.625719934620543 -1.165244778630374 0.4922112178656233 -0.12734802513007099
Ni 6.1679970396393085 5.589236116207409 4.605023158867165 -1.8310923631696465 -0.09003771871538686 0.9214599759660969
Ni 5.378775131012707 3.0450839117923807 9.187548046560039 -0.7835994813404763 -0.8860026635997515 -0.03467364012278545
P 0.086981070511554 5.4740847057533015 12.538305706777397 -0.2650051454956339 1.0692457001252296 -0.5511730411118121
P 3.7902972983439627 6.265704282626178 12.700075026182844 0.8470869603711605 -0.2240996655305237 -0.28321138409101543
P 2.2499447388900675 8.410332574774218 1.293565543157427 0.7197769875678766 1.0565753037464125 0.8201489983297359
P 6.381724282331765 7.813675093639935 5.887481616971283 -0.1796010688975165 -0.4804301660702951 -0.8263954934600799
P 4.631145980605445 0.9707208709672445 12.578469816634142 0.5093090538881745 0.1745467943030607 0.2840539345969688
P 4.111548652125961 6.180093954527117 8.362786361060357 -0.4385538375514834 -0.18415654947868285 -0.5576763894479686
P 4.720085900835182 0.9794610503102685 3.8571596703180964 0.15826991151990805 0.5270131560361568 0.10862859434369677
P 0.21159105600209607 5.47912433297283 3.6132616180632717 0.8282631427964381 0.12723258259812928 0.8047187798175948
Ni 1.6815254562336086 1.1095413385241981 2.537000819577837 -0.9012529048906026 0.1355812116731407 -0.2930054873633018
Ni 1.931281057253106 6.574840625910962 4.851688934580613 0.8905774274546275 -0.25587181573579804 -0.6927336102968392
Ni 6.111511594878958 5.599224892599436 9.26637975937567 -0.8032365388451134 0.7798880939271601 -0.062324054850202336
Ni 8.47696965641125 2.2766176671542855 10.360967791067347 0.3366715607926847 1.1540370828400124 -0.8896400032420226
Ni 2.5527385710781014 5.194154676049556 7.0311196075184474 -0.14013669225430703 0.1982809046952069 -0.3261354371480512
Ni 0.44286108723305045 0.003776553683000222 9.094095986124955 -0.13037215666837546 1.0024589815179832 -0.02272289551881248
Ni 1.351307727991014 1.3407037008791878 11.412810374220532 0.6978861010320562 -0.9194313755718422 -0.9549519370759554
Ni 4.173327062637521 6.722138886474554 1.664818684849661 0.4529412166214071 1.3990174484742874 -0.8962839909211014
Ni 5.721840741933454 7.89530438766971 7.9866094040487905 -0.5616952807993746 0.3614523672817904 0.33442544507098537
Ni 5.558156907052867 2.9035038638010358 4.692357093762133 -1.0177950976544212 -0.3198004960689589 -0.2199167377974277
Ni 0.7770200392042388 7.156180173683196 6.745309409538271 -0.6284868845026272 0.10860725418745812 1.603108532093368
Ni 5.13963260490974 4.57563769875301 7.08816782573132 -0.2175634070739027 0.08410155573660999 -0.07318439460347397
Ni 8.079092444600192 7.271774926567745 8.878470514005825 -0.291708108708117 -0.7688259225757276 0.3465209427829387
Ni 4.358164664913543 0.39125512354898634 10.431311758291164 0.4128775158313019 -0.06085878315858551 -0.03802995818952805
Ni 8.116188443882178 6.94911211525209 4.886450600249245 1.0180246971667242 1.0170643901359837 -0.38735263208732
Ni 6.9763912464314055 5.932600304683351 6.9067340075845385 1.724662319139165 0.03790654523778633 0.5507668068123289
Ni 2.3904571459264683 5.296204865293829 2.776913313861024 -0.4689419629250375 -0.3670918249557549 -0.9296538246307989
Ni 2.5193883629431264 5.287057534739173 11.213909769094757 -1.3773114242557634 0.08074292367702222 1.1429522857807606
Ni 1.243819808120284 3.3814270038188545 3.6339729478087337 -0.832408018202747 -0.5238632975532656 0.5533412524077245
Ni 3.648092951828116 2.584360648514819 2.7326044046698676 -0.4270386378230323 0.40690227208447344 -0.12491010511253971
Ni 1.246896061719278 3.4510770044219594 8.212180223097373 -1.6241918351262286 0.2715051513976808 -0.2056864531306587
Ni 3.694734385071686 2.8503299155619546 7.110123228623434 -0.49842994508182553 -1.121950486718113 -0.28466714270093557
Ni 4.189866449634466 7.029619481498703 6.122705538857415 -0.19374573582901472 -1.7004880358858068 -0.38898091171936233
Ni 0.6267839564536067 7.291481045210712 11.182484933800563 0.35995495680065753 -0.17240198004591598 0.29082210655873786
P 0.04861294988833707 5.486977827454968 8.054172076106932 0.28545338604765674 0.15763844858349627 0.1938879178338338
P 8.499951080356674 1.7764007363484635 7.950749334889224 -0.5319373328106517 -0.5931108189961785 0.6865696475779725
P 1.6643165316886486 3.330089759934468 10.426782427256883 0.492156710478604 -0.7211867234312096 -0.812545217840549
P 3.9971210660480887 6.299325924902242 3.783042768533159 0.4599050495337499 -0.11871606048668587 1.8023358598622443
P 6.744885067497704 3.9603869789542197 10.639998468983624 0.9871840576367837 0.4807559248408301 -0.2393655905506587
P 6.31362145633286 7.879009291399745 10.124670799543448 0.4234218670060514 -0.4336599997942919 1.2011278656802282
P 2.315369414696907 8.529826931485728 6.029969159774331 1.4510138961462367 -0.04846760858308427 -0.10805523833873004
P 6.719424545063678 4.020084394384108 1.7176289113396839 0.8695663724205991 -1.0427684797703074 0.004360333851224749
Ni 5.166359820002175 3.0094084178487543 0.2790324874772167 0.8494737154357822 -1.6857126773488451 0.5480895170904819
Ni 1.4107246614751117 1.1795170600966076 7.061577232489898 0.3198809715979071 -0.1688518008008124 0.15128319578942975
Ni 6.728743783907689 0.8632628088520343 9.345993202517633 0.07259612620017175 -0.5306324979562991 -1.3129328008693775
Ni 2.7610823699723186 1.6122916546468389 9.125004191770612 -0.4669670985868538 0.5377899349366867 0.49468719020994156
Ni 6.4228917937300665 1.8236302768977235 2.685977447913822 0.323703687778107 0.7593622060596664 -0.43116988638258646
Ni 4.278372075238462 6.944986316307558 10.55107573958282 -0.30313923336319404 -0.14942608797603296 -1.04564065911178
Ni 7.999489858823873 7.144019924162467 0.34205497113542954 1.0640993800375997 0.0032758425377943583 -0.28973170170803647
Ni 7.521838152947141 3.828469986385597 8.517046907342847 1.2981350737349127 -0.4692353257957402 -1.225974492410263
Ni 2.950923408249057 8.318461165820734 12.362235427258506 0.22129716308472208 0.4031903704505249 -0.19043004119222043
Ni 0.08702902387647948 5.045707344288691 10.34172672958611 -0.05959765705797478 -1.082834494553258 -0.5333668661683265
Ni 8.829236884714868 2.296794271641805 5.727301092071667 -0.5934846573958295 0.7791193340819356 -0.3567246227888179
Ni 3.59768763182813 2.7418467371739035 11.576115106084067 -0.22464396806976797 -0.39879455537567443 -1.154979906369256
Ni 1.1994584216618505 3.4811700028638826 12.557242762020614 -1.2336631193037721 0.7073287345021948 0.613334345131905
Ni 3.1572043076710075 8.381913420202336 8.24540557152745 0.5621670782294705 -0.05009871642860404 -0.9834263903665644
Ni 5.733213832445029 8.009333870340653 3.626994376041369 -0.7899346795298847 -0.40521537130035373 0.24239486429528576
Ni 3.1469079059190803 8.434399735283995 3.483261855311198 0.012260305424591788 -0.34279361453002255 0.3361997633625887
Ni 3.3238377268847477 4.205519151770523 9.259705193846324 0.5211402421951477 0.2979790293184933 -0.3187234609546963
Ni 7.142852757355789 6.113484016304196 11.49558783466711 0.30476519900239124 -0.24226450936500857 -0.4397997941434426
Ni 0.5628277393500523 9.017304553269833 -0.026249491004121335 0.06014298803848352 -0.4453361505806395 1.0604707821460768
Ni 4.589571317995512 0.5336422357198323 1.66593066004765 -0.40034441636129764 -1.1743657670950356 -0.8746841532631389
Ni 5.828613885232653 5.379200377833745 0.2760304258767867 -0.3287541057178209 2.026744057772122 0.7923520307221257
Ni 7.8807283742933 8.788322711848249 11.478254050417247 -0.33373407543091554 0.41530463721555566 -0.5278184255462717
Ni 0.2933488288586524 4.884131647903886 5.845317942275189 -0.7040112400931875 -0.635002831244274 -0.04907850269420579
Ni 7.9566304079461245 8.743744178076945 2.6419996883747925 -0.008701384428739854 -0.4241116939842245 -0.8304364962986731
P 8.68566631968888 1.469752539356984 3.580301370310992 0.6177106198227297 1.2899342830916751 -0.11182576112475581
P 1.7115551200426116 3.2641945982830762 1.431275845077332 1.1446232457252803 -0.8817459452059265 1.1097117785600759
P 4.713453859987939 1.1081117853811362 8.109525640498946 -0.06545951515539049 -0.03113580217285605 0.9403539846571225
P 8.439538888355255 1.6846107576373055 12.48644911890306 -0.27816122326161774 -0.017194509501415548 -0.07337465623740912
P 6.334114733984983 7.7444593876625705 1.4409298526953511 -1.365175817334494 0.4292107057736866 0.043362940366667255
P 1.8505022568654061 3.2903065626557133 5.893016159108061 -0.11621154889727728 0.4873924563207412 0.795579536520488
P 6.957417999969374 3.849089933303559 5.945761241404223 0.6038441462532828 0.7114319580372908 0.5114422981810934
P 2.1735812671973944 8.550591643278937 10.177057588773376 0.915057929094495 -0.06919404249715824 1.0055329924576166
