# total energy = -381166.1536331556 ev
CRYSTAL
PRIMVEC
9.22878426361008 0.00000000000000 0.00000000000000

0.00000000000000 9.22878426361008 0.00000000000000

0.00000000000000 0.00000000000000 13.50725862959943

PRIMCOORD
 96 1
Ni 5.410144115271814 3.037848178716599 5.528925953096609 0.15102814235583023 -1.0882335540816421 -1.6430868722585186
Ni 5.680242947327186 1.129132538461156 11.113893699259002 -0.28821012285718756 2.0986274741759856 0.5441079067349145
Ni 5.819717565458625 2.73751584907646 2.1548805429346434 -0.031564919290474676 0.4547669569762362 0.15431221242374069
Ni 0.5075831401594094 4.493864259440414 9.926146382650673 -0.7942451339797805 1.2565287110480359 1.2261071613333852
Ni 4.157631958614456 4.421925885303277 7.899423199578786 0.32513990600400133 0.5556763282988042 1.0095652535454613
Ni 0.14956075656562495 2.632455367847829 13.135620418474845 -0.4771468673333331 0.23328030358852728 -0.1498264087382452
Ni 9.24991828273408 0.08998341620902345 0.5416788840015719 -0.12583081715459618 1.155989578580693 -0.5432530149337871
Ni 6.601524804285247 3.7449484080961226 9.213598401859583 -0.6669027652766644 0.37692398055482823 -0.36708668274943235
Ni 0.3815687040265611 5.189170102399507 4.053758299055361 1.2309899433469833 -2.216274727078525 -0.043850935746679316
Ni 7.385011681866578 5.82537481027531 10.02410162279551 0.3607987928581915 0.773797664758706 1.0479330546903822
Ni 7.035572990612108 1.3284373656408397 4.071695364350157 -0.4883980147671202 0.17378394799510716 0.3451757416089539
Ni 3.507214922814188 2.8640240251729177 1.7665739034420755 -0.6235161707609133 2.4242854574669863 -1.8266435833696735
Ni 7.8401014965491385 1.8184396715820004 1.7360072467416758 1.8057520846326451 0.21116033176103638 -0.45508320266507435
Ni 8.144577550369853 6.037147725134183 5.886760992367753 1.5278669978505495 0.12263082216005976 0.835653007502606
Ni 5.022101419012129 6.792071515101089 3.057125263501417 1.6348344024417396 -0.39054902753743065 -0.4079425404235297
Ni 8.594277754982356 4.209322379851416 7.797848430205396 -0.22017256256197568 0.8940237341320152 -0.43463933298842566
Ni 4.989911419141656 1.8925652676140075 7.491800714407061 2.8213496604151156 -1.5767043310682265 2.4897110340606474
Ni 8.020939526211386 6.745216976872192 3.6366947674766705 -2.3490863464263287 0.3271294256302043 -0.650954212367208
Ni 7.193136026101955 8.655169274232751 2.147897121804487 -0.7908039695087155 1.028085938057468 0.06051682643813448
Ni 0.9032423521567957 3.421488744833447 6.0377448274826975 -0.06348516503783906 0.911760489290146 0.3202774357053774
Ni 5.139888393882211 4.900004601842874 0.7096686000687301 -0.6045712542272943 0.28453653066034224 -0.5209240124192834
Ni 4.395300842405824 4.136728762024254 3.5211531558429656 0.00872041059213337 0.49992658423201003 0.2869389694542478
Ni 7.882277041104202 4.681836139417994 1.3958397922618262 0.9178156943452903 -0.8378268752254733 0.7512323778636805
Ni 6.135757286090607 7.18108323371926 5.21385617770155 -0.22363146764485356 -0.39534259227133206 1.5033499865457916
P 5.730733626596497 8.611157201588748 3.763014676372051 0.25811844567812964 1.786515090779904 0.19752551458642112
Ni 6.941144068973724 3.290919903615714 13.31537498885246 0.18349860417970978 -0.605294505546564 -1.5949889883100272
P 3.7461666076325053 8.430808297497926 8.577028234122865 1.4991449473255085 0.6701207579933297 1.9586743586873947
Ni 1.8616580687704827 3.45112237143439 8.38898067811348 0.6679522895871012 -0.31633567744881 -0.6566337792504885
P 0.8824139087199635 4.927275659645985 0.911947864449748 -0.12970804072181533 1.7684767452209544 -1.6596020963047224
P 6.441100845641774 0.5063114136737009 6.533934110463183 0.4345357175310258 0.1734111380367207 -0.12725855074005826
P 3.5798085406413507 2.431978485053595 11.276940478419442 0.69531036988508 0.5533335390982406 0.9580907398152532
Ni 3.0475014871639945 8.7076349133565 6.593568669282857 -0.43337563578465366 0.10934618923601168 0.18254935289256305
Ni 3.389981675006098 2.7525218524564457 6.499598418227491 -4.767703549863944 1.4885237201662365 -0.5277868009773878
Ni 2.584253427101418 6.403447405426313 0.5318465371374659 2.8626392631925217 0.1269443619337491 0.8075487930672222
Ni 5.250846068321058 4.489203723335315 11.446536925844816 0.5718966468124086 -0.8092310658656515 -0.14856245442415705
Ni 7.1117842919109515 4.4210399220040895 4.4274899193978605 0.9516640103533031 -0.4989781042758116 -2.1809552258416245
Ni 4.591541713175818 6.9589279364480365 7.339074484803715 -1.1334530880410736 -0.16939841733290184 -1.1092713485885477
Ni 3.308094671321835 8.19829830416745 2.0839001166147515 -2.876150410305079 -1.2734712524396457 0.46589032058290736
Ni 4.687622587215811 5.194790432078727 5.72702365528115 1.2762611564799569 1.3834530183771272 0.3014862711408034
Ni 4.245683790255564 6.498873035776281 12.134110893261623 -1.2008810397767447 0.3078973168734697 -0.20763792043007467
Ni 8.807167352749579 6.710562891575854 8.20228329325692 1.4438551736142682 0.44616301735730907 0.45159730099900297
Ni 3.5179295414637353 1.422506364688928 9.426999274280712 1.9375044094779987 0.11072635741298996 -0.5544378279060128
Ni 0.6061723977902265 7.111516657164322 0.12900825378135217 0.24083420467638522 -0.5618544320850581 -0.07643375477870708
Ni 3.006359566457983 8.126941343445402 10.652810712008812 0.95488920215882 -0.5272155018549501 -0.3681341501773402
Ni 1.5453137982544056 0.5206095692927731 9.50736814293668 -2.2352461259747054 0.5490899333305382 0.029163766048149773
Ni 2.955315160126679 6.157712564098592 2.8539757247546347 -2.6996022693012733 -2.412632703719406 1.0381366374252508
Ni 1.7099922264908511 7.898408956176904 8.378984981766086 -0.80151004307231 -0.059637252046658575 -0.7083857150117994
Ni 1.984290155432996 2.6080729195514443 3.856120190332273 -0.2309971639813054 -0.35903887274429136 1.5027321504561346
Ni 2.717932368650673 4.269097216193462 13.278283581604923 0.15491436478411383 -0.39739587525593495 -0.8127010266921229
Ni 8.404847727074863 7.5592972746285865 12.046773369530486 -2.183383889887775 1.0872675906239468 -0.9025464268910456
Ni 1.4645250199097606 5.694233784426852 7.079667199436974 -0.03612554207796359 -0.813998662457624 -0.8661797153365535
Ni 1.0500603140086866 8.94386410678669 11.734660496646464 0.7979824895350257 1.0763578856899785 1.2816172785855475
Ni 2.444714207479413 5.993144881274545 9.12735448907588 0.28942085533583706 0.6939973075006112 -0.8452730470908733
Ni 2.4343687402045275 1.9327473947458995 13.323911614391506 -0.9147766504086503 -0.7388921111307726 -2.2066983962439997
Ni 6.389161247226917 8.516571390616132 8.443319760463638 -0.14579440476071667 0.594001449131248 -0.7199263686615472
Ni 8.843611822213024 5.255580434701091 12.368380815770797 -0.37475602636923205 -0.798412892204225 0.29254705966964456
P 8.765231756588044 2.9318740478356813 3.759597257521123 0.6820342216014642 -0.7376484685316587 0.007004199231975034
Ni 6.849391494801636 1.5045964016292546 9.3211838784909 0.931665455744189 -0.7102749616147122 -1.3210667428304217
P 6.712159471271265 4.4215844202817145 6.456982660658143 0.04418749315049164 1.4908829644270325 2.6296078423900067
Ni 7.5688306088792165 2.454035279689613 6.429833422808672 0.7352244324711983 -1.174432358666913 0.31444745928716167
P 2.2928914758655505 8.616666785855568 13.562503376619528 0.21454570329350148 0.7921196029963455 0.16707516851636386
P 6.11918238936831 5.057327688939192 2.591543243872543 0.48558728479120244 -0.38120255332552416 -0.1193089568756784
P 1.7111827396741341 1.0298308186772425 7.132075620097651 0.9885691109097684 1.715566013264852 0.7047751148424056
Ni 8.182526311685042 0.8667111321203047 11.548152301869418 -0.2647272092438989 0.33423132678230827 -0.4775736704581065
Ni 6.420585257994968 6.3527906080384025 12.606567434365129 0.3272363835217138 -1.5657172359291034 -1.1471850929151857
Ni 0.2556659361845479 7.850022439743163 2.378533671908556 1.8851940301100567 -1.2783866874633918 -0.7919810205359522
Ni 5.947536228935131 8.16801866266085 10.715713183372676 0.7020204349154039 -0.5626776993173018 1.1181185145665324
Ni 6.4848360547547825 8.62004452093372 13.002398301751732 1.5680546258130283 1.3869985696365403 -0.5117184346606154
Ni 4.088960574143071 1.0305598926421988 5.310257290559062 1.3046103970466112 -1.6500913286008099 -0.8450987262965381
Ni 2.122002075750427 1.0998403768817748 1.8054750753038926 -1.5690817815259623 -2.8948161050353827 0.7417846021872193
Ni 0.5162212823264859 7.18574376982436 10.323935598079855 -0.003720386274380689 -0.39556036470909295 -1.286094854740927
Ni 0.7600134645450501 7.849542542956104 6.311158638882528 0.44838779292276965 -0.057475211398333274 -0.2990372953796786
Ni 4.265147296484585 0.2550153068867072 12.54347577292175 -1.997633256449095 -1.6167204664498482 0.9022407227251686
Ni 9.16395215635981 2.3064116449625236 9.134864873793367 -1.209129652938782 0.3103694325630461 0.29664874054284396
Ni 9.207927313866348 0.4965353623942307 3.3530416198221693 -0.7700883342279189 2.2647811593193445 -0.459555379503815
Ni 1.8854037309455765 5.9673504289700805 11.746709597515412 -0.3275140626631327 0.7580599423084752 0.1860051726516474
Ni 8.963096893406549 0.5725740854254202 7.6391382568187876 -1.7343584633810067 -1.135916719090218 0.14244245756934823
Ni 3.556358199565986 7.3650313637130305 4.903688732561996 0.05930583684916883 -0.8531005135550921 -0.5542892181432905
Ni 1.4401333428290093 2.431240182304272 10.882636051967065 0.44586296961838695 0.12974300772480882 1.281478181904522
Ni 5.018031525106488 6.506717502487835 9.584318669863285 -0.9133509737057173 -1.2802260546649757 0.06678928971040757
Ni 2.1319599340819178 -0.08796784970337226 3.838127752331277 0.35016548151406146 -0.20565945654746517 1.7463853126385536
Ni 8.162066096744436 8.766385354633861 5.4244201218084065 -2.1368510364335584 -0.4805144982539854 -0.32133261644276917
Ni 7.738234174711328 6.872334252736842 0.8162435248119095 -0.5116950376218478 0.3785980258231415 0.8624053358957857
Ni 4.980590346931456 7.561161489070626 0.7472029889658635 -0.00911018983138431 -1.448451534735699 -0.13656105908790675
Ni 4.627294023811774 2.610675436742807 13.175155607822642 0.9384048313505515 0.6734498223665627 -0.20719569068633348
Ni 2.7257306914403947 4.62530983517297 5.025443161831251 -1.9781265538747352 0.7495146238416253 -0.10091117109478104
Ni 1.1664445136550559 3.145871099726888 1.8263838091647135 -2.0413808338486903 0.15541135902519043 -0.0637445893468128
Ni 2.9803436233287215 4.513641544337899 10.444541966573913 1.679311658918508 -3.2846308255099492 1.5672583551639783
P 7.748339693592683 3.8176066274138503 11.085136807172878 -0.09082987559937906 -0.324443394157609 0.11139227313176299
Ni 4.469380294515998 0.5830902852110864 1.6000967851325925 1.906309986153065 2.3379691534672444 -0.09074708607758565
P 3.9594807294805885 1.822398820075244 3.4159588572410198 0.8026295013887338 -0.3017621505100093 0.7057053399661588
Ni 0.43539558884437485 1.2781866347650583 5.481542605523511 0.05935545914018164 0.22217108104924319 -0.9514015007205356
P 1.0423727366313633 7.175536734314973 4.354740335114903 0.7544992215404103 0.005672624904745069 -0.7869766253428253
P 6.1213050097726125 1.1972225095174494 0.479378129378406 1.5705362545843018 1.1052719976211673 -0.5891137820216434
P 8.328885602953916 8.85022886060383 9.535003737722269 -0.06272643249494358 -0.07795327674702704 1.0301924428775096
Ni 6.74072255888569 6.395898259814487 7.69752969838429 -1.3570629584193725 -2.2549690583249298 -0.24659913218462043
