# total energy = -381172.68996429775 ev
CRYSTAL
PRIMVEC
9.19417007276663 0.00000000000000 0.00000000000000
0.00000000000000 9.19417007276663 0.00000000000000
0.00000000000000 0.00000000000000 13.45659726244347
PRIMCOORD
 96 1
Ni 0.9983857073421368 7.275649991695062 1.9480846077824738 -0.041306057837638535 0.6925459197660654 -0.13487415830378707
Ni 2.7945403364016657 4.4000722424383785 12.933297105400094 0.8623235748152569 -1.0555175519058597 0.7506471947841717
Ni 3.918527597750202 0.1484279194358476 4.339820089311218 -0.1282525392222114 -0.19992049718115892 0.4254260419202738
Ni 3.9729846656354155 6.606378787479569 4.772152940000474 0.9975612871060497 -0.15787781828781197 -1.4570397906253423
Ni 7.987940716531004 6.351121050573071 3.474278183548195 1.01048647980815 0.2095708757867294 0.6222056794796059
Ni 4.130931309093138 5.961233084890077 9.945824470515074 -0.07454656505832323 3.2848732805380587 1.2526412030681715
Ni 5.946522413166906 5.833746726069146 7.754189062266799 -0.5198181809496144 0.28687700586806075 -1.3220915845505101
Ni 7.283327123500592 8.447382576955116 13.083432382172813 -0.4263796640827947 1.1775935300037137 0.02513227629125349
Ni 5.468738183937965 4.66884540899054 11.527014811934855 -3.30031146947 -0.4826040337931624 0.8020813421947478
Ni 2.7696701070196794 7.526816323028554 6.500693644152379 -0.9891172701037545 0.5402491951104567 0.5796104705168985
Ni -0.006427644126043042 7.790109764363835 6.584783521389955 1.8190128062972932 0.6931827820191159 1.234258586795926
Ni 2.399301363879368 4.607483519565263 5.161533387509019 -0.914877951873205 0.6860687966821539 -2.2274173739589056
Ni 0.18087690300621478 1.547645412806035 9.557588697149988 0.721169497040029 -0.8394412709004447 -0.8019828689436705
Ni 1.7763503872522095 7.373696618729997 9.032458170980021 -1.7749332994795755 -0.4551456804718935 0.4795328510670063
Ni 1.905151512358399 5.274621676380896 11.162853052844738 -1.3691810818391452 2.0800342845548307 -0.8346096538397562
Ni 2.807513310027537 3.2789351737362065 3.038809201530955 1.457245735988561 0.7297356414424852 -0.8671670189504872
Ni 5.978260687409647 8.978888340483113 1.9547862381693608 -0.1659114872255659 -1.9593276760006773 -0.31014446103643367
Ni 7.559621120971226 4.034870622740831 3.1439187898269774 -1.4108468370090477 0.27980210129915034 -1.001358806475269
Ni 4.259208366519189 2.3082882767620743 11.21558897213834 0.9809481040294009 0.43596036579269437 0.1801623407176252
Ni 0.8740446740190164 8.578886787990438 11.29007094190672 0.22608841382577835 -0.9648961927728609 -0.8137574929810952
Ni 6.946894061191671 0.013366484094466276 7.911186867398376 0.04273764807784253 -0.6594725342508642 0.9401195000488131
Ni 1.465375981194201 4.902781866068267 1.3682395769721374 0.1927278360874616 0.5916334631197037 -0.639057460929622
Ni 0.30938473409492345 2.98708464091832 5.725230697852227 -0.04522107662132857 0.9667111344944125 -1.642499889406797
Ni 1.1641473951527934 5.5238296495412404 7.0512699547355 0.6648829066331581 1.3555619483938137 -0.660307885667966
P 5.615026620055074 7.520316044960878 9.016943009396991 0.9287063731158651 1.154624065691734 0.5883704760977158
Ni 1.8793710601635418 7.837395379784002 4.153782498781118 1.2867358307590355 -1.0605913668843412 0.29445404688437027
P 8.064895917982842 7.6700798772725856 1.646536064631087 -0.7290062194756283 0.33321445548201967 -0.12987387687571827
Ni 8.51091429045956 3.218529477972935 1.1704766616616875 1.8910623159653754 -1.4457757876757487 -0.9186060514570695
P 7.489635100248239 4.029721887637721 8.713469207083834 -1.3945789530869597 -0.4155383504929166 0.0623263688430475
P 2.5051998119465457 6.002046004752049 3.112403014494049 0.23603215530205154 -1.3453580112776187 -0.2702280844574701
P 6.039824848571119 0.8832443603478944 12.395531031636907 0.890564314828505 2.2200725035580606 -0.4122051723546256
Ni 2.462235456345059 4.953175110889956 9.012636460250032 -0.798316990056309 0.24011583845312193 -1.0456905385131088
Ni 8.674947474342744 6.531703740144822 8.583465484564275 -0.10878106076116105 -0.1423961777124451 1.2893092479131665
Ni 5.247544846240435 0.12845634373767753 10.531536301092007 0.16158123528132817 1.0576518246400428 -1.4649634163477931
Ni 4.737709740994634 3.6944013198778642 4.685964033791398 -0.6161448179975066 -0.17766168578295854 -0.13420361459932373
Ni 6.603473429814243 5.784346451588773 9.895820139077069 1.89967371178347 -0.8914711429134905 0.3914473709819839
Ni 2.760696597268545 0.7242845193752391 12.460566911325046 -0.7001538140203103 1.5089552485477111 1.4767583521001924
Ni 5.02642506190152 1.7898382343883923 8.660921768271685 -1.04494928947171 -0.7540672762093142 -1.09178476176801
Ni 5.717440477757826 3.5323264941678274 6.870050109194739 0.039976540392937604 -0.3268993118972693 1.5129790249951234
Ni 7.180113373022894 5.892966373924737 12.206828970690946 0.5165675352228007 -0.2167080010521429 0.8250268952473275
Ni 4.423857559780781 2.936415571001823 0.5680167313279241 -0.5106066896536754 -1.2859436738750432 -0.9330877900130123
Ni 5.845634787655434 5.924033473770109 2.9456897301063 -0.7048895289330829 -0.8327345483042303 -0.07737863519047965
Ni 7.16970557277875 3.1601740820810815 5.140715948186767 0.34574241274570133 -0.9052954503910925 1.6961901798414014
Ni 7.656307010871767 8.022768231835611 10.47438626086447 0.00867284518364958 0.5120652764770729 -0.042696767537578076
Ni 2.2938534301337126 3.504578489629996 7.199387111231196 1.7931408236265376 -1.2565991592746553 -1.0863304235216582
Ni 6.335546126886164 4.2227810656646865 0.5837589889056825 -0.1946214535657487 0.6599268481794635 0.6154909864635916
Ni 8.913655705560675 8.499715791610296 3.9415718650045495 -0.46311018673460885 -0.47014292521167417 0.4362251894183068
Ni 4.7389325655816235 4.069275206233397 9.121984560836294 0.9283662161676269 -1.2955079205247109 -0.3313902577890873
Ni 1.7953639304544082 2.8142710248503686 11.08617735415564 0.14368404328593318 0.35110933348456946 0.2648321102528794
Ni 0.9873435093799315 1.6573042763324481 7.304119738564312 0.325677009454394 -1.0734810783628157 1.9684892878952873
Ni 2.09524097353125 7.110458342413679 13.207084772175891 0.8773385601668503 0.7868863796218641 0.11754080923166209
Ni 6.764251877578675 1.733027459027471 1.385921804383389 -2.0464911584920626 2.4652891535728574 -2.378517764313568
Ni 6.903451608759182 1.9440244623868783 9.977393572032998 0.2531076227270996 0.17622186801263845 -0.48083460059756544
Ni 6.256816450657718 1.527822782659062 3.6816710723354253 0.6175594389568462 -0.2318379147150459 1.349158101749999
Ni 5.526312075394526 7.283805220331596 11.462611491130811 -0.5922939795218379 -0.6711702823037666 0.42600968233788566
Ni 4.687132612776407 8.648817643694462 13.219706528514372 -0.6561000182342055 0.052477758183741875 0.5395125740547483
P 0.5128544706169808 2.520949424860165 12.764658561850574 -0.6985432750000808 -0.780749927706823 0.6785843153796507
Ni 1.8947712946237363 0.7158185277985541 2.875957468470538 -0.22944756010599843 -0.10759552509349211 0.01411175681103376
P 5.367142607349815 3.4531922744669945 2.64414026753793 0.3451348610686895 0.7375003729895686 -1.3194335781023727
Ni 8.014842857444753 2.214020453526029 7.469905331216519 -1.676382658197171 0.3887664817157111 0.3840292241410418
P 3.155816045583092 0.03653395322449525 1.193112707775717 -1.0840961348745006 0.5780462113535721 -0.06712841821738115
P 4.838468648128529 1.7664114896692422 5.921642989615093 -0.6608069367915717 -0.9742799479806059 -0.31084174421377436
P 8.867317089632687 6.164617315632744 10.818228904636957 0.9111493380687083 -0.2472475644018968 0.3989099979076162
Ni 8.176697023078942 5.429350360399174 1.179054822110262 0.17391635980791337 2.074021502701848 0.6324358418480464
Ni 9.017577407115052 7.024934174683093 13.006984698895423 1.179209211230266 0.16455934407304562 0.09913068215559057
Ni 5.853146424404079 6.772259999497977 0.6021978964936946 0.1310036196047873 -1.2291914566856637 0.19378455948675014
Ni 1.2264838665797304 0.2120414610517526 5.68916656670589 0.825629561828333 0.6584489780823564 -1.3369852138328908
Ni 1.7317770519310014 2.3727026305699095 1.1069587394119833 0.42345117758209005 0.1180275190600935 -0.5160890529244855
Ni 2.575535211122957 2.1939219982842464 5.001076735688531 0.40573396280798507 -0.7297230430369949 1.1176132927953397
Ni 6.283746174080948 8.215413672220363 4.094102223017196 -0.38163424154630404 -0.3573835965290555 0.30401058022455385
Ni 0.46568837940456365 3.7992700209244195 8.4923503421619 -0.5180474622024369 -0.23503276750325974 -0.6085258679996681
Ni 4.982412570939758 8.483074344223459 6.216234304458403 0.49363869434076924 0.4792993948999616 0.9581948694932853
Ni 3.156891763452849 0.8494640609865803 7.194664066191075 0.5832670934328793 0.20260395755059302 -0.46605487118522965
Ni 4.062912840713126 7.351547863616798 2.184274555884794 -0.8645046416269757 1.2372814327826498 0.42346557575979327
Ni 8.502189023293756 1.0103749047965211 11.581675990390227 -1.330050948606903 0.8187168938688997 1.594914683428666
Ni 3.2398507578017064 8.243382336834042 11.124286268671497 0.4345524297015742 -3.4138076763186436 0.2127050505403369
Ni 6.340317901026368 5.3535076534964015 5.372922981920038 -1.1741760196817328 0.6284377764322467 -1.7802827367169467
Ni 7.150388621972261 7.37057979515865 6.132601377461227 -1.3754856839009344 -0.25096512246280006 0.10874403687563854
Ni 3.796052061484976 5.305624417037479 6.7428184288780155 1.0351927243055783 0.325997111797974 1.3062201647358924
Ni 8.473190611659454 0.6714208011210413 2.1655294824415434 1.3939613741076187 -0.48732817874170914 0.23420692916785468
Ni 4.1130762312891385 5.041862073041022 1.5191554387631663 -0.6741378495725229 0.37942437837917875 0.10151743722021227
Ni 9.089503397671532 4.6449497616102144 12.554250904777076 1.1608327656056072 -0.7278795620703529 0.6877215017942284
Ni 0.7694389262295126 4.0950372700886 3.3224337106046407 -1.3927712104542596 -0.053485630622965956 1.150722416644483
Ni 7.786174659677886 0.4916729421695799 5.621668488338086 -0.2676168720868682 0.9353789000400343 -0.10910424842853468
Ni 8.706143292565693 3.5540890941482934 10.490345500850147 -0.737153531173111 0.7831096861882514 1.3997430137864022
Ni 2.65573595452372 0.8392980674088865 10.014466303609357 -0.5623395992515928 0.7190095132742327 -1.8273439518708077
Ni 8.020809873662465 5.088605232441398 6.843715248559314 0.34292036991587393 -1.3741217136738721 -0.2205656842353363
Ni 6.956308891094501 3.135450959416327 12.055038743349371 0.3899216783660769 -1.7263407352828526 1.1409360266816801
P 8.66875060387936 2.16448226649825 3.7701217443219392 0.11764288202716514 0.06937324838749988 0.4144695429087701
Ni 3.6908523703246496 8.227366092995439 8.638220443551884 1.556756941412022 0.8503558609304193 -0.4858557079612406
P 3.893225242386348 6.254361607313914 12.520461411245936 0.8248307200761213 -0.6104523955984197 -0.5351126452148397
Ni 0.642527203022768 0.2766921050241412 0.17227024063117705 0.015343315225289703 -0.3757991229217657 0.2980487062141641
P 2.880634542661524 2.8749433515386222 9.175865154273355 1.106428994043746 -1.283057353466184 -0.017689703970279212
P 9.077900355349879 8.721221731081945 8.895967961647528 0.38968873641966434 -0.05419216977168731 -0.42536844920946093
P 9.191181721788125 6.1050115126444195 5.28413672273484 0.22793755121937517 -0.32920302032978144 -0.8359155171353734
Ni 4.315099724897412 1.5360147879749029 2.489080593405881 -1.2395756281334653 -0.7561490984390075 -0.6277618334111448
