# total energy = -340862.4127820374 ev
CRYSTAL
PRIMVEC
9.30441082340156 0.00000000000000 0.00000000000000

0.00000000000000 9.30441082340156 0.00000000000000

0.00000000000000 0.00000000000000 13.61794574430994

PRIMCOORD
 96 1
Ni 1.029747041960514 0.1295881100323408 1.6037714928862459 -2.3338124509863936 -0.5237715091704076 -1.2875241309882859
Ni 0.3321032604465481 4.224174530454107 9.650139308342249 -0.8733242968011348 -0.46009016896136246 -0.5320028959412644
Ni 8.057117201101796 8.887210198928795 2.6438557350999212 0.3704841384667555 -0.5881588743075418 0.665380672205183
Ni 0.955600193339953 3.7882442817942357 6.112619119961056 -0.5625573716893537 1.0762293305319142 0.06485479169185604
Ni 4.680751266388295 9.115326435298513 12.1015733177216 -0.32062247774962205 0.12042944363336679 0.6267938130709205
Ni 0.8548241213849656 6.2091309805064805 6.2877458071302526 0.6404818520809744 0.009910317135176481 1.1433922015316567
Ni 8.695530034738535 7.262325137352653 4.661313422059871 1.2824413171487397 -3.1963440280473985 -0.9936802068840885
Ni 2.896155995680277 8.899529238654434 2.5690938649341457 0.48991419430133043 -0.9255153769823932 1.3821206727189488
Ni 1.9252593512006322 6.285659758258282 4.318373314507241 -2.1850263105872045 2.569557928285962 -0.9143889280519285
Ni 7.170555734925172 8.553460988234916 5.1664582512447135 -2.5490428390517454 0.964086809497688 -2.515368843838068
Ni 6.73513722885209 8.816459460202386 0.1425733455618746 -0.14586845253176167 -0.899982008597979 0.22478794984679995
Ni 2.133929369272325 2.2095090971358986 2.407230615173482 0.9486632758537662 0.8394818943303931 -0.49147022593454065
Ni 0.411570371087593 1.6208376429351647 9.579516970483073 1.0358511838251838 -0.2301237602374166 -0.7158221166851866
Ni 0.01739831750979882 1.8747550100897772 3.077669230332616 -2.3615292001753714 0.08305563097059888 2.037058809434569
Ni 1.9991735895544704 2.0210296502157448 7.207979005076604 -1.0520859005164913 0.6803946291155121 -1.2573095550781184
Ni 4.723346858430576 7.11977226149425 13.532206475998596 0.026370262463412647 1.4781945703260864 0.876768032375361
Ni 3.976612075786362 6.969459507137974 8.122695617937357 2.0227053689263745 1.7762913561693665 -0.7488049993691104
Ni 2.115274025881156 7.444821848212696 9.148141230845633 -1.3915278249654615 0.5959986820669348 1.0771240744320418
Ni 7.909428290554154 3.4409571535770898 13.328495708813431 -1.4879079409591085 0.590686525825402 5.329653369876286
Ni 4.473104733490183 2.5080597222692824 7.751579893997127 -0.7114234733968586 -0.06499877346888806 -0.5266010081994028
Ni 5.533602852711451 5.418637554486374 7.091217955592425 0.8360397014180634 -0.7194494290251288 0.2802888111275818
Ni 2.4328707796538036 0.720085089606315 10.835935273836423 0.6326435869834782 0.7107616714431436 0.5448697246016034
Ni 0.5805049729566295 6.843477786680904 2.3232899438828243 0.17799875740740312 0.9615079930269184 -0.8735119873319085
Ni 7.202860648767635 1.446919598711859 1.5102165740514015 0.3965232428429945 -1.2511425070354583 -0.4207096102812109
P 2.4595558294522433 7.903417641262037 11.508076596147967 -0.402318766478849 -0.9610572786427447 -2.109812544258528
P 8.392317899860027 4.647385649729577 1.729724369670243 2.772106864228903 1.1094271574401215 -0.055977800917200365
P 3.3614416600005663 7.972000452302589 4.959805429406041 2.194718083953672 -0.6892217404888389 -1.0855395521892466
P 6.951613647475001 0.22237262366379962 11.61475910799558 -0.37740940483167906 1.742471065185812 -0.6558920159884576
P 5.435673930421151 2.7779062404890724 1.1141464206971492 -1.0185355753648717 0.14600729210247113 -1.0174212592547702
P 8.799544041606303 8.007924781895259 0.006272103231913677 0.508994093750917 0.26054453862111904 1.0089422752494819
P 5.621920318780766 3.0723350116961283 9.40088996402023 0.6741149667543874 0.4530957399214003 1.1764385904636643
P 1.4249425807118885 2.2045219330173613 4.8040160989300436 -0.688192527893376 -0.2422639951443763 -0.7561071894574785
Ni 7.341998805910547 4.799382502416925 9.591826705798043 -0.6693728240837117 -0.9790380314908816 0.2604460653700418
Ni 8.814505533961915 3.067599066665652 11.591799544228973 1.8342075117598604 -0.8587227448378759 -4.089947901033176
Ni 5.285119261387483 8.641099232325399 3.4100292925136255 -1.0729082365784812 -1.8319205154978966 -0.05380033364990735
Ni 8.140856897122006 8.90400466018618 9.773326914275444 0.012475763869507547 0.662961007020097 -0.5155930871246732
Ni 2.0925619594383416 8.7143063354684 6.412867800041515 -0.8727825653650516 -0.5145109098040881 0.3087046432661135
Ni 6.393711879356359 3.7601728748061274 11.539983281213802 -0.7258892711132016 1.1001938117673116 -0.03332072563931681
Ni 2.5056498799060343 3.4497126040165362 9.197955184684854 0.8324666393548243 -1.0445618242253043 0.058602383024241006
Ni 6.960387706735784 3.385112080742279 2.3946612868008486 -0.4112901167395239 1.8850199664260376 3.1188741186946927
Ni 0.2816817285906463 4.66763204734513 3.8720044475179165 -1.1678467350295951 -0.47744922906510034 -0.24856731165458482
Ni 6.235676464144887 0.46713165939700185 8.601748088283369 -1.5175846420879346 0.19399616127692396 0.10738186642078926
Ni 4.533239139643362 2.232630557648145 11.342686044302718 -1.347118445612151 0.14716583118694654 -1.3537138394414814
Ni 8.439295869327363 5.081650408879713 7.400508661960934 -0.43214664847355894 -0.6258923843025738 2.3525051422998904
Ni 2.6063515165756703 0.4094266348694756 8.45948178827357 0.7016085441889658 -0.914571733486696 2.7438378420808807
Ni 8.724448143097513 0.9771678172704914 13.072206647379312 -0.9525528407161594 -1.0083401228891085 -1.3798681292393462
Ni 4.405508189980536 1.6251641938962087 2.7307794004510324 1.8912219814716915 -0.25738953793190505 -0.18362818777903858
Ni 6.0575621307099015 1.8095403957113718 12.971515245561413 0.8667412442669782 -0.7233914443920122 -0.29577662235053576
Ni 6.156923932243214 7.947734549278066 7.077640959544349 -0.7490083736291682 -0.8700715941917919 0.8387249615597103
Ni 7.457075757063652 5.884407048161446 0.2749490570306215 -0.09959399494525428 1.2229210502959196 -1.5623987130788317
Ni 1.0883555247639916 4.107208783935213 12.927842202763673 -0.4307142869024066 -0.22063818934448454 0.48395566272505036
Ni 2.2652146038106755 1.674821833636193 13.236874246515587 -1.2334921409435466 -0.9930022069804576 -0.39487516571661024
Ni 3.7037044064564997 6.731052592568438 2.9810903780303746 0.7109892140729175 -1.1252620675898493 0.01835176303431033
Ni 5.4771995152365065 1.8095403957113718 5.463288490845415 -0.013834334779931012 -0.13261338729406838 -0.44630545647244424
Ni 3.43120613119607 3.022537805796111 5.411853708667669 0.1032596167222996 1.5674357612821068 0.5593200956989787
Ni 2.308173067869043 8.202945229515658 13.54996487420128 -0.19429646612616214 1.3087719846234684 0.3579512961070674
P 5.416460322389847 5.918526322084347 11.9742322228658 0.3798537526071135 -1.0213648172835506 -0.9914664870622214
P 0.4819842901477863 0.11617952381737151 7.8102051247398085 -0.8463228285116262 -0.6820905287606962 0.4673730757760209
P 2.9673254328867857 5.229776626728794 8.003620561519819 -1.044647184850259 -1.3412892405248835 0.9171592917082141
P 4.342210284199927 9.246109231660743 9.9328073044638 -0.37459584664228385 1.4124476058372641 -1.6612010653607263
P 2.768713482748187 4.499008212792434 3.890987306164631 0.20538049185446566 -1.2603259733069392 -0.4340045276179042
P 7.914862066384799 5.1739315538939845 5.493914889003207 -0.8583334798192572 -0.0331803434067106 -3.1673203871215385
P 5.62539086396027 6.489203046051404 2.214686071232081 -0.8457268467988402 -0.38933726661751655 -1.3484513054909615
P 3.7273748271982123 0.5794238004369019 0.9054652373326537 -0.056484822460605946 0.12770129470443167 -1.405146958410793
Ni 3.40264159044251 3.441106024147792 0.5216406188597568 -0.7406456034867697 -0.32658435176001177 -0.4912074591914573
Ni 5.108605286587552 4.929067378320223 0.4948029767263466 1.6523433578597801 0.19796234501352356 -0.19278028659195184
Ni 4.557272432401162 5.181868216194566 9.9148581658424 0.37199903244938515 -1.1965677571133713 -0.12362043976683872
Ni 7.581810686491089 6.518744549925201 2.6095252510548366 0.5450332467626614 -0.3769098394874412 1.088815651837357
Ni 0.45246697774172945 8.82274924181457 11.531662346752592 0.2871356588460861 -0.6029884831212067 -0.1844224015455598
Ni 5.357768099890349 7.4048314911577116 10.108424334075249 1.2225700947144043 -0.12654532672311755 0.5930447416449335
Ni 1.3661852273377082 4.720388055837861 1.6117518859169722 0.6424032374734033 -0.40733858829094366 -0.016123645034739974
Ni 8.930410577664553 6.929618020653692 9.000999419645321 0.8567442809552664 -1.37264950000372 1.3528697462736314
Ni 4.4294019165783025 4.008247072060663 2.6155852137234987 -0.2962283651759737 1.1754672276893303 0.9408759185988634
Ni 0.6274596813972947 6.46477896804551 12.446556673857122 0.6648271136945583 0.5555631997597077 0.32643959865203137
Ni 6.885431374387028 2.837277684967401 7.508213728541061 0.3158641371290302 0.9734219708556848 0.42736593925546396
Ni 7.3872182417614605 0.8777232064822253 6.5020654633601085 -0.4246896779748815 0.41127289034834336 2.0481109534836723
Ni 3.1241419703006312 0.9542138361502851 4.527585779720932 0.15826014132789518 -1.6654505846656993 0.946533373994957
Ni 7.518233648390412 7.557916959893323 11.748569559589473 0.2841565216131042 -2.2825500532669913 0.1242051086257151
Ni 0.02559364242697664 0.5886816890524694 5.48051467675784 1.425361485685455 -0.3213133331690595 -0.6586330690687044
Ni 4.356343684006005 0.15416198905000467 7.062130506959272 0.19555039313792127 0.11642057958428981 -1.3018405476109578
Ni 3.2794046711327685 5.738151016856816 5.946766138905563 1.4279855535718633 -0.4907567448072839 0.8207539789035864
Ni 5.399051770028313 4.410253439421681 4.703365636519086 0.6341420259058757 -1.4772851711379398 0.7766179078163206
Ni 8.548064430046947 7.705373260174243 6.908900819858292 0.13316694580469324 1.439419763550734 0.8219639400512876
Ni 5.573323381857038 6.6150172871164346 5.016524186402663 0.03558741018630645 1.4219159503390157 -0.47064917542413137
Ni 3.1679378313192004 5.262490934640689 12.47745662168858 0.8761080301938587 1.4539475248532636 0.7991587692313139
Ni 2.0763536760530967 5.446960180562542 10.357550860176438 0.38752772421260356 1.174128711383565 0.7270195280629027
Ni 7.63244528935131 2.868186937209527 4.924317476673743 -0.04721213890942837 0.4203046615333084 -0.23248506138074157
Ni 7.483258368685972 1.8544806992422176 9.995545084722142 -1.4018965697942953 1.1827789308593952 0.7705601316580148
P 8.375504829781303 5.372710983424622 11.55264751457526 -0.3768193366561639 -1.6802485689104805 -0.48417934870008233
P 6.834554856849417 6.547383525964112 8.595620203416823 -0.3706085798597617 1.1939745424648986 -0.9526487428640754
P 2.8422369358539314 6.467979685315616 0.9448554598994934 -0.7779214571190926 -1.8502010589746392 0.6283475307112856
P 9.082872650885347 2.978248811012089 7.864717805966831 0.4256235026430605 0.10654780055526811 0.4308659819889224
P 6.5449550747795255 0.881745503214396 3.6509167629674937 1.5808677184172968 2.3349738182843467 0.6258407051290319
P 0.12551556948255796 2.021355304589157 0.9987493978170332 1.4418327438676009 2.1126114471599036 0.5243011564216327
P 2.634348488278427 3.3624372319421405 11.698891450146018 0.22107013467558057 -1.0038833726693355 -1.0621476556278677
P 0.8730570445317658 8.467869714491593 3.834922649238034 0.4793330763513745 1.1708983773717256 -1.1112837510328861
