# total energy = -340895.1076115951 ev
CRYSTAL
PRIMVEC
9.04456933541919 0.00000000000000 0.00000000000000
0.00000000000000 9.04456933541919 0.00000000000000
0.00000000000000 0.00000000000000 13.23764146146850
PRIMCOORD
 96 1
Ni 6.327327443763894 1.8880357550485516 11.569380735379577 -0.01787765161136921 -0.21704404423532297 0.20019689077099714
Ni 4.6622493668617295 0.11112248304224237 5.995791519923145 0.5554588129713595 1.1145490520477193 0.57071573913043
Ni 2.913771316320043 1.447836566561893 4.890130004085438 -0.27171109676089983 0.18737634196756117 -0.009577102165473828
Ni 3.4958164853498754 3.973894330121352 4.819718936436993 -0.7416838149432968 1.5752627135256934 -0.14929444749417514
Ni 5.111257965859709 4.7607447266854335 2.462584785031379 -0.3368623366472521 -0.45339861587379987 0.6105063887648067
Ni 7.246011482641136 6.207740148301174 2.8240519021011994 0.3821690310038515 -1.5172943645410257 -0.5484893236320617
Ni 5.133335759553892 4.617089832279565 11.578210043943388 -0.27590379468600873 0.5372050089674942 -0.26556718864669104
Ni 5.627449625718156 7.985848207913793 12.396376357298434 -0.9703379326137223 0.15511619638227478 0.27714666595417436
Ni 1.751218555043668 6.3514945329694905 0.4248252295676197 -0.11455858667488658 1.0750859609560905 -0.4510635399827199
Ni 2.2774406422707547 1.3021828223377478 0.4251417894935912 -0.23149852909775617 2.3259852416324907 -0.7284266928230745
Ni 0.5029630727805628 9.191905347587964 4.78244174401152 0.568152606388944 0.29177470027999425 -0.3840585347170805
Ni 8.753180423899403 2.4091114823362725 1.2965580046817 -0.3014610743298228 -0.2545279001133939 -0.21344527114047113
Ni 6.7837435450296075 0.6674566548846692 4.749560212272395 0.3909478056377461 0.3039920682817926 0.16289609743800978
Ni 0.6839485225708533 7.295928460682187 2.725286109655022 0.25478115377478056 -0.07779798211608537 -0.29189579923889086
Ni 7.705394202641669 3.722554793469292 3.734404988183803 -0.1065917664193261 0.05339667045358546 -0.09771040476929624
Ni 7.546616788343676 3.8738071260984768 12.637115658715103 1.0666306310998857 0.12348237152707765 0.040262189954156466
Ni 8.247200082795866 9.006889637711593 6.9577836700440825 -1.7084414864049287 0.3849064845396726 0.05520312753470493
Ni 7.306962835244621 0.2744900162668216 0.4147115921612959 -0.7688904572650759 1.05549029821235 1.5695569213901677
Ni 1.9725753444215701 6.447059452335631 9.07114678039915 -0.7031861730887309 -0.4560435096958146 0.4167364845660758
Ni 0.020342140842928784 4.936417396460992 1.54035798835405 -0.47454953891980217 -0.6092846005425635 -0.43453108954533554
Ni 6.411423849240553 2.1162392833967516 7.041260522522768 0.20585923126309708 -0.3323446512825567 -0.23927200239558793
Ni 3.3534187860785796 4.44084735463726 0.4389962607679669 0.4441966376595576 -0.28056803293089744 0.19320708971672534
Ni 5.983507185881588 5.50667749167537 4.863945975922937 -0.30671126698516854 -0.047165087721576834 -0.4054094895890309
Ni 5.298634308326898 2.692875799977128 9.331359039547726 -0.59714462274592 2.4084240649546973 0.6407387052867868
P 0.22194830421100287 5.57102960234072 12.329049487785884 -0.6318460307828473 -0.06844790835975308 0.5874739324253753
P 3.9968132687616893 6.309247349706265 12.566069662300855 0.5033188977430106 0.28691505819484775 0.3843459840505123
P 2.0689000076100417 8.388856127383457 1.5071978838800693 0.6488695619240373 0.3549140519426404 -0.19457877325327133
P 6.512885827799075 7.77183560881843 5.816513684819238 -0.5107501572100752 0.16365842952533105 0.6767557468113442
P 4.5028478772811065 1.1538247518888745 12.709737219103761 0.12630595701880182 -0.1425987806415544 0.051224602502931135
P 4.086056034177712 6.113613315455876 8.042211250504554 -0.202220091848613 0.7003754431128132 -0.007541559792683787
P 4.793802627526173 1.0008810847980711 3.7514286765456193 -0.048398445908045686 -0.5818033644031594 -0.40422652502452316
P 0.11858787055358176 5.468292339508997 3.7677767355797185 0.8247790409025795 -0.17946017244427803 -0.17810237286480296
Ni 1.6390568509873078 1.3841175757484863 2.7233008266907146 -0.43401609758212994 -1.5804535136980136 0.2257739679091531
Ni 1.942954379919951 6.358721143850953 4.892208446113673 -0.936868082991051 0.18040376730446991 -1.0375229151006518
Ni 5.981598781756446 5.39282445315739 9.085601811075941 0.08810090670399019 0.4385481811245286 0.7817711698824859
Ni 8.589518942172136 2.3362212982390056 10.273031660249018 -0.01792727390238203 1.0689538799164235 0.3207057814920477
Ni 2.4519465626048738 5.172019382507611 6.834660852436727 0.4010255015887223 -0.019774354413449817 0.605666287063686
Ni 0.36661347700918573 0.16717981919020747 9.36062726584612 0.7130890340247397 0.3473382964779115 -0.7190179979146649
Ni 1.5670349455441341 1.1275955008798073 11.263353210373612 -0.09878795410419114 1.4903844275240592 0.8245566404791284
Ni 3.920422836340109 6.864086454241175 1.5644644789452458 0.832689811109224 0.9204166223032471 0.21934492445435771
Ni 5.821989267081614 7.930830092779946 8.174176943529691 -1.0418086869601995 -0.13288720978074534 -1.3764033106191973
Ni 5.4668361638495275 2.881111376529097 4.692002382075325 0.725124367922719 -0.13533695687281852 0.12387677875201891
Ni 0.7679363932157498 7.3069718798139345 6.963528780472 0.40398252733451717 -0.020206042634229718 0.044491140433839504
Ni 5.012572670080422 4.565888525396003 6.94904661608727 0.7287437098428611 -0.5050165971604076 -0.5441554721433983
Ni 8.07666472839036 7.40880468571431 9.057882919500944 -0.2766643270011171 -1.1828812607652144 -0.34092005165639344
Ni 4.423201399906677 0.5612996403955227 10.376987226567268 -0.021562299551808026 -0.9851724265233937 0.611394962017347
Ni 8.4083562188233 7.181469436020204 4.900892137111538 -0.5491629526603187 -0.5843035051171938 0.3371068485578904
Ni 7.264317690931603 6.098309904177483 6.9797583556480935 0.12045206934118612 -0.6128260380369187 0.38939563065927774
Ni 2.2237792125339277 5.358183752686794 2.5271322583939 0.44206879268327737 -0.8997511235340956 0.6333146449085739
Ni 2.4252922168380735 5.424154841259256 11.471475081475111 -0.3722741404876427 -0.3478787423624138 -0.9121548965150871
Ni 1.2182401745394187 3.467651696507725 3.7129865435925713 -0.8144342073331458 0.4236933754998832 1.0661009838486606
Ni 3.791673392162842 2.7297505090681513 2.71322698538937 -0.2689265920372272 0.17279124506453467 -0.6284632303535433
Ni 1.2858302410189912 3.5552845285859505 8.084585057738167 -0.9760023299883515 -0.5867239416332282 0.4947229285438835
Ni 3.592448663895005 2.7345169970963505 7.170710920821829 0.11312082578709551 -0.20784000913855172 -0.5501659400035364
Ni 4.03175244001963 6.937908228977729 5.853645259678764 0.83611297785816 -1.0259290396154654 0.5182392664982687
Ni 0.5825697540500137 7.28460465990172 11.03423618052475 0.7414904679855682 0.2360079869323355 0.1837667702394319
P 0.17339162939469974 5.565358657381173 8.076192601872197 0.006632674825169222 0.30451631621637876 0.10178611750056664
P 8.637970699984402 1.873193616805145 8.061908513555432 -0.32973806689764495 -1.3191366156872442 -0.1975064884230276
P 1.9056817097791345 3.3499094931849527 10.333885331503918 -0.21043682333145047 -0.37949379816453355 0.0299572084837226
P 3.871555028339422 6.021286351903958 3.787964214287387 0.45381847702003775 0.21435929831430822 0.35719642021891385
P 6.818836473965877 3.8303389259779324 10.53816868738878 0.7709064592538402 0.6681150404172107 -1.1843424186917733
P 6.275511106167016 7.936835686804091 10.295654841472805 -0.4394256986334754 -0.4600850267550399 -0.6360204738755111
P 2.361663671717801 8.421687913991358 5.79918609892849 0.2600801973901908 -0.04799529693235605 0.18890511990726178
P 6.9739417931225995 3.9727275806799147 1.6457697303317664 -0.07174894770852805 0.07602777758954003 -0.7026644962573061
Ni 5.398314506730667 3.056431308101429 0.3380453003756546 -0.5359965904816898 -0.4655149395213596 0.42570372106169263
Ni 1.4765259404242248 0.8985580632409054 7.095402218890141 -0.0073302151128260854 1.0919354284132614 -0.37804523864346506
Ni 6.736648472614362 0.8559427660066216 9.302725742015138 1.1853106961423134 -0.5913619546258719 -0.34660424652536437
Ni 2.6571678403275425 1.6725579357244065 9.076057981536366 0.1415626260675562 -0.5192782492857444 0.7896068638768208
Ni 6.390087710230073 1.8449926496857407 2.2974589875322606 0.3570845772313979 0.0028523818471305716 0.8474790536032566
Ni 4.185582474903153 6.888470613110294 10.079974423796036 0.39059350762212086 0.8936380686578222 1.645759019774043
Ni 7.9735023708009045 7.027738891399129 0.24500472030490447 1.1796714955786651 -0.2414903502031454 0.38436680998611866
Ni 7.717143098179868 3.8579972189385283 8.35898824613958 0.17112465599538915 -0.009842182901402404 -0.3238119312211971
Ni 3.0768358564726204 8.408374307961928 12.618397922520876 0.6418597062651075 -1.057275672247547 -1.0390794609544944
Ni 0.2782814997230289 4.902771598614877 10.189780017546239 -0.5911963755822851 -0.7483995364005757 0.11436215439336433
Ni 8.57861119158009 2.311918540493708 5.683157841490621 0.4761446513210638 0.02699478342128899 0.26905231898181403
Ni 3.6045593422057434 2.848062520257672 11.65383711471491 -0.19202386804190155 -0.533749446318726 -0.271341629236623
Ni 1.1896774246474757 3.535232718417984 12.536576226226556 -0.8061907363774309 -0.5720149175578279 0.12600308106640234
Ni 3.15601201624275 8.165165839122679 8.084929655829011 0.7299858097800782 1.5543498746324262 -0.7872167663780893
Ni 5.529496940053259 7.630695104681707 3.820330205575645 -0.8780654110305457 0.9614928235182666 -0.7516918339986022
Ni 2.9835863468507293 8.387897403036229 3.575738822088366 0.5030784995974303 -0.2830702305274609 0.19148470770897988
Ni 3.5998652107320512 4.4714722663326745 9.431514982297383 -0.10925902883884409 -0.6242371080873378 -0.28787407967400747
Ni 7.225091393819077 6.216938475292974 11.296129825108702 -0.07031864301990469 -0.8743432249839523 -0.1522959533246603
Ni 0.656857324106212 -0.30503171792455225 -0.15479870825699632 -0.7002774840823682 -0.31259163702534554 0.2762164408304211
Ni 4.133530978504124 0.5166692131181976 1.5544964591048684 1.4102706527906035 -0.9116432469859912 0.799042555368424
Ni 5.949599095525383 5.704057127803259 0.4147468659816184 -0.19788238370520758 -0.14001996417078466 -0.38059834408262194
Ni 7.8108177025594925 8.846999741388043 11.4695820531178 0.5212425721009668 -0.5975711687603773 -1.4745636584417183
Ni 9.16513342242009 4.781284943596328 5.911678834221723 0.08872671321344719 -0.4884118987241911 0.015382653103657377
Ni 7.834225047942756 8.533397389582044 2.888638267111768 -0.8385727522525622 1.655012162941195 -0.6407962979975995
P 8.529291155113729 1.6135692546619451 3.4473990969009995 -0.18603602588958282 -0.5173491505838316 -0.03795950996290882
P 1.8108494005273859 3.24172739962652 1.5477844842173414 0.6039647309915469 0.581102995902025 -0.29087532839417646
P 4.744591125891573 1.1120117079526959 8.116408374867618 -0.6014301374951513 -1.8890159749593083 -0.7078061883592455
P 8.594430143309351 1.581397721613927 12.334265490908962 0.4844022633441657 0.8993731713693865 1.4459786477151741
P 6.235579332648039 7.615038955200087 1.5031341588875267 -0.4361907366359456 0.8765428037384323 0.22787044542686566
P 1.8095741162541863 3.0429187215471027 5.909812939572354 -0.5181287090623334 0.4395840785882107 0.2685704942493891
P 7.011603379743896 3.962091167167272 5.987967967466992 -0.13761289739118882 0.12466944985664334 0.26203860666814227
P 2.349815285917153 8.520382254339959 10.243406173462743 0.4929910334544412 -1.118363797808119 -0.8808694561382442
