# total energy = -381167.40439475497 ev
CRYSTAL
PRIMVEC
9.24889775230690 0.00000000000000 0.00000000000000

0.00000000000000 9.24889775230690 0.00000000000000

0.00000000000000 0.00000000000000 13.53669675341265

PRIMCOORD
 96 1
Ni 5.409171670713737 2.437639520784674 10.675553306879037 0.8769132997039736 -1.9940751067841918 0.18905321544935183
Ni 0.5571258605763637 4.044820502446355 4.2347799160963335 -0.8220742403769068 -0.18722747509452273 -2.248959876016372
Ni 2.1515618609827665 2.0167129301395406 10.782994053794908 -0.12242821923095044 1.2280030928045174 -1.0395170627125452
Ni 7.467994832823732 6.965835172247456 10.432949166592596 -1.3437685553033116 1.4040110450341368 0.1449071170597569
Ni 1.4679665710270977 1.8945349893686896 13.047385994478345 1.6910348608927068 -0.8029920269344751 1.274918012188501
Ni 2.6003461319913974 7.831726239083782 8.124495476489603 0.5325605682169473 -0.7383994877650703 -1.8817731773539654
Ni 8.154485027810534 9.125304840903128 3.3277266293205168 -0.8709889637997388 -0.10834885831974889 -0.0032817560750653158
Ni 8.441737297641048 5.0279136030032126 10.288647862133336 2.9622047188926857 -1.0014444242105398 0.7833099751245155
Ni 6.390479733983027 4.591337877173804 10.29724378780725 -1.0367387286364598 0.2671903260724108 -1.4740556084570484
Ni 4.960590875458094 3.071133531016217 1.8878008668346051 0.6777348228951618 -1.276243158757828 0.02838986399660272
Ni 9.126655179991133 8.159914130856142 5.059936062074441 -1.0796206156016506 -0.0063048591721052705 1.8631475918329783
Ni 3.6718309494253956 3.0371993247566973 12.899727340094799 -1.0509528153533125 0.2520604124095078 1.0797280877137923
Ni 0.3270105070743947 3.690448980823709 0.3013096696925597 -0.37196920765271424 1.2900492114029847 1.026447888233413
Ni 1.3453076875673682 5.652630409162724 11.622919764770517 -1.955576179378045 -0.8954067305224709 0.10463181447947786
Ni 8.162587062338563 4.175636913821292 6.34400032266207 -0.4556966678793572 -0.4305836748618133 -0.8603996183196666
Ni 5.020606973691406 4.971291850285639 5.990069973467491 1.1243989482586054 0.3581400150791058 -0.32058391120220275
Ni 3.840549344243099 4.114492450048689 10.567557626091382 -1.961154959017403 -0.49462445529280624 -1.889889892923829
Ni 6.719490777665198 5.197473647526454 1.280304583606301 0.33615091240252426 -0.831216311887491 0.5310114785622726
Ni 3.487315437057607 5.736323685925437 12.140563005259319 0.8828458631383247 1.2219337466819857 0.8796291559732399
Ni 0.3617077474076157 7.742992312985709 10.83117156276352 0.11161390222426583 -3.4636081447805385 -0.5938921772468934
Ni 6.352429768174451 2.405518098506312 13.312799766674633 -0.09388948836130927 -0.3567426205109469 0.008760005580817172
Ni 6.865521626024849 9.147890649484689 1.0460263011761746 -0.18766122019783166 -1.3159073101166692 0.5230587993740992
Ni 8.551253497237388 6.115778218552668 12.931498229144152 1.3959349528942215 0.2147303085004818 -0.0033977128276393093
Ni 2.3230734229551104 2.4013745922636667 4.602369037655061 -0.8249111956050695 0.7040138111963488 -0.5256111334823077
P 5.656968142260493 8.60276985833456 5.105405493748753 2.506674915608496 1.331576898333126 -1.9722999198906292
Ni 4.410318448198248 5.008796131120295 0.8546878768548166 0.264733379891486 0.5149531395478293 -1.2545037101982073
P 1.122853196165361 3.901619816832799 10.318644812572556 -0.5270478659288342 0.0776156909019502 -0.047362291334047464
Ni 2.423155746731142 3.5212773900107157 8.627018618751897 -0.36680566117390373 1.7981830140361355 0.027115111049237178
P 5.043608982676804 0.7875214556835829 0.5937524210038162 -2.3733254214793513 0.9977991141484687 -0.2044073293079189
P 7.865077764777929 2.294799542187776 7.389547530928939 0.3412542950673607 -1.1025646259923334 -0.10058001300760742
P 7.336475505211203 4.344216575171051 12.79097417457216 1.2044787844303322 -0.14810556939239652 -0.2628467043917344
Ni 5.688395897199127 8.413676141524563 11.604347052971733 -1.8290023134098372 1.5772200943623804 0.17720145831708836
Ni 7.2414800752598465 6.53391164204316 5.827724069277426 -0.31431093370929736 -0.561062275201066 -0.39104447911661044
Ni 6.495454724728611 3.7519171560215194 4.518034812270439 3.072505815842799 -1.139386165696057 0.1398217321170495
Ni 0.6013170945660024 5.134747622219269 8.355485775729417 0.813137085788277 -2.088394483594068 -0.13963944090291436
Ni 3.1747396848780696 1.4469253283886658 1.9616301940263778 0.9839915188414151 -1.5323155205402061 -0.3200853742992294
Ni 2.664043291574202 8.091167073040113 11.256142696444165 0.9433254085806206 -0.058112330761699915 0.3756201741417402
Ni 7.395316993415908 0.8666670493670351 5.293877684622353 -0.7896307751362207 -0.40878226271600565 1.0859455293784135
Ni 7.752777646924812 8.556756591465902 12.348635460484287 1.7162692099794634 -0.3974429264437865 1.1827678751158017
Ni 2.5276682925835736 4.827055288111421 4.745885110685747 2.2617950801078273 1.1151463193120859 -0.4627183506128289
Ni 8.228023014719621 6.958473049548472 1.8308248813288766 -0.17384334047813285 0.4348056833629608 -0.17156765707007873
Ni 4.950444834502331 4.799253101135101 3.516779650979916 -2.4475637112686366 2.2660003764384262 -1.6227592164447602
Ni 6.534744042850835 6.687295364203933 3.586940865279204 -1.1901883359495888 0.8518956946137134 -0.6003243060254823
Ni 2.0026638542855726 8.449487874050282 1.875008716200225 -0.4481360819232798 0.15370440363641272 -1.3119863777957081
Ni 1.737812415079358 0.19159369390237804 4.088922022126723 -1.1983868125999813 0.5076072407057194 0.2803078372909753
Ni 0.8351671530250696 1.9612380407569847 8.450134372010908 -1.4557226144758155 1.5189128739810551 -0.5515651343439082
Ni 3.6220071366371607 8.313667808931436 3.3643430159603205 2.380145015504346 -0.525777740967159 0.2143083904717148
Ni 4.162198265226285 2.262067692650452 8.452638048662436 1.8941291278161572 -2.1658862473236438 1.02036800058792
Ni 6.050212781601528 8.583032710294818 9.02740618191256 -0.2161153617734665 1.081635332038834 1.4339320009632854
Ni 0.7981863598094624 5.492263769115352 2.106851763823011 -0.7634068084426853 -0.8287046012092308 -0.12717936076269062
Ni 1.144292141411904 3.7759642904654416 6.433626767403927 1.3049754936955138 -1.8469277875400063 0.9653201676841568
Ni 8.786878419196373 5.940456110660747 4.047080008194298 -2.2408917542962565 0.7007497957330964 -0.13700585993480918
Ni 5.313787787052134 4.304381572074907 12.116237478989719 1.3050893935655588 0.4473457248115006 2.74647450837278
Ni 3.5715821454878283 0.8938440108478126 12.132901218269572 1.262051440638478 -1.600845189980488 1.0278581383173782
Ni 5.115583905847036 6.758151170732735 10.28906776209632 -1.9666910583442838 -1.8083054471821178 -0.27698622911691007
Ni 8.51158497430278 1.4669491922621627 0.3393050670037432 0.6649263582765839 -1.1257202381731903 -0.007679885142760967
P 2.3053432857516496 4.653240750571178 0.6083083364606795 -0.16221809753437866 -1.1297298735532155 -0.8968259794675005
Ni 0.5135321053886778 0.014490248282035776 7.256536356091101 -1.5413822587281647 -1.2485402935259207 -1.297917815517784
P 7.778138124865287 4.06073785566866 2.7441859164472913 1.094578008242431 0.3231506434881144 0.7383174695742252
Ni 8.033805408493496 2.4081910299887324 9.697784796821935 -1.107540739050686 2.042976717580901 -0.1823950867028859
P 3.8934992845090433 0.05170966306250962 9.070629056295939 0.1285944959426624 0.750777806824765 0.532425842411296
P 4.319179808655782 5.195374147711543 8.761098966182704 -0.4213210186129647 -0.3065086640560592 0.5474264295851863
P 7.072058764204551 0.7355851946234286 10.901047911008627 -0.18824254662259837 0.751789278808415 -0.4985906390294058
Ni 1.5266600768659941 7.128985730551605 3.8420532150356306 1.0905866276948508 -0.8930806534924555 0.15467782329327553
Ni 5.840614258229155 2.4261523896387693 6.351242209688837 -0.6159244744565844 -1.104037610993434 -0.19842051559686472
Ni 3.5802483627855035 3.2738416254806184 6.524769106505539 -0.44858911030029835 -0.7640557548805937 -0.8910407402442914
Ni -0.0011995820528371993 2.10030446902576 4.89648029014081 -0.46495855279725734 -1.9491340232971268 0.45468622433697176
Ni 2.480924362783734 3.6158658684560976 2.451360260764504 0.34125352373641227 0.47580706547598706 0.5105454973984368
Ni 5.64211441229244 1.3257370196891605 3.5248335912390574 -0.6491742376486497 -1.0775552484321893 0.44475893792093085
Ni 0.8513018553471552 6.0179526258552185 6.04194241713239 -1.09441602874327 0.16341108940121535 0.25988813598404276
Ni 1.0928867670890887 8.772255911674897 13.077653937624953 0.3769982854361894 -1.0327617462665828 2.4862053349002347
Ni 3.026757319069317 6.126072241874239 2.31641329160393 0.7007454248577222 0.8310659023525558 0.637184155166309
Ni 6.1401583133196596 3.8720973348539522 8.067884822449466 0.18297255647291072 0.8007659658174339 0.5677494574132546
Ni 2.5443440554306473 0.916206920990874 7.061756416874903 0.9399266673117167 0.6330598485852904 0.07796458960093669
Ni 9.019839658570802 7.081381653250503 8.535158565176115 -0.6608902405339973 2.494442892318678 0.015592969342250563
Ni 4.793518784460012 -0.10122086310297294 6.978965832543624 0.38576574721617435 0.6486954982400183 1.5028959297275084
Ni 5.7334935231793445 6.559614329204567 7.896685873224892 -0.5734560208797285 0.2888372149182251 -0.8568157576231502
Ni 4.062781862096393 7.75437770625512 -0.09268505526516685 0.08115352885187958 0.8703086499032624 0.40025185664749136
Ni 8.420113374437245 0.3063290465628353 9.188385098998467 -0.6180919144215484 -2.179276809697937 -0.37448477498571636
Ni 7.510354785036487 1.916639855261372 2.407176425893156 0.4354600291175081 1.5647947241148341 -0.23494586421640828
Ni 0.8382211390994477 1.7840846510881823 2.2266786347570755 -0.5467659131830518 -0.4783835679539116 0.37807609188140046
Ni 3.7673073220656295 0.7427660389242983 5.022953419079261 1.5782763035410368 -0.15687971604060078 0.23361300433759766
Ni 2.415867615215061 6.299812788231577 9.787830216636989 0.6487152957343603 -1.0709490559695813 -0.9500732688274155
Ni 3.0149927209875216 5.539248170259631 7.087597837504257 -0.8062992369308372 0.3445476211066517 0.38859241803169203
Ni 6.290906099589463 6.431702071758627 12.836267877187074 -1.2598210086460626 0.8151389467096543 -0.39535956155219654
Ni 7.355472741421901 8.394900878862579 7.084417141529155 0.2036830495473847 1.014375273339595 0.13166747844103133
Ni 8.898364634037543 2.6332444616902553 11.893666451474637 -1.0875704665763464 1.8039757094585123 -1.2026599860540386
Ni 4.276264922571245 7.257240197218479 5.659774257872142 -1.9718780018618618 -1.881496526653811 0.11390861179571349
P 5.315452588667482 6.997142691513871 1.525788830687295 0.2885636495418643 -0.15546483797094518 0.7212767120418546
Ni 1.8211912293147268 6.616911251466145 0.14221475310135628 -0.28468256931990327 1.032208187755958 0.05873196662356982
P 7.606441584935682 5.600623856478811 7.767735889438718 0.9276627623426992 0.29340040880887536 1.3348715099239978
Ni 1.6027785062788713 0.08515275284550135 9.413554141923278 0.71534903370351 -0.3521246621229613 0.9376964924296173
P 1.8271660173342552 7.8631909896138685 6.043092980026553 1.1808372337519921 1.2643754607859643 -0.34304121176445435
P -0.07608328360099743 8.82541857659169 1.5833197500648066 0.8575750043866779 1.172549025601271 -1.9671723688560765
P 4.398415116648507 2.9119230032017254 4.370377082776679 0.2704152607676117 -0.07461418507146504 -0.016013601819436937
Ni 0.3496730815082189 0.46071164969281625 11.39907608890948 -0.9582655748302206 4.4003129627208475 -1.6333783867215033
