# total energy = -340858.89387308806 ev
CRYSTAL
PRIMVEC
9.32502785066980 0.00000000000000 0.00000000000000

0.00000000000000 9.32502785066980 0.00000000000000

0.00000000000000 0.00000000000000 13.64812084771399

PRIMCOORD
 96 1
Ni 7.580091413484272 5.29172023145841 11.509801793726819 -1.2203399198323048 1.0546382346246996 1.6638037930908958
Ni 4.594422617029995 3.3517507434062916 9.554257644005759 -0.12723592503223893 -2.297390974934566 -3.1109191255136746
Ni 3.674592535790664 9.054891207671337 4.3942441072019465 0.6148692937191926 0.5429701935860455 -0.5950383750361946
Ni 3.1624620012090596 3.942463288456199 7.662983451867425 0.9852063650851226 0.5500075600488011 -0.4645109237368774
Ni 8.2033483060522 6.766482725533708 2.5630902352120937 -0.2363723122502897 0.5446380682067716 -1.0905056379452702
Ni 8.361696605537457 4.96243484476603 5.044605125986462 0.649122815585424 -0.805992761434012 -1.7991885724825145
Ni 1.740236714559705 3.432309659798325 1.0199361212036504 -1.395065662915391 -1.3045083242511082 -0.6404571694906259
Ni 8.709165796716986 4.535572365687233 1.8297215476979425 -0.06395773379888339 -0.1036527383956602 -0.008406221785824234
Ni 5.160013536803812 8.945154278848388 11.540045656851518 2.8326571150081343 1.9688849806718092 2.133731002747338
Ni 8.43160634001958 0.5141699181925474 1.441023610477888 1.54732716345769 -1.3560874818799806 -2.14269592525011
Ni 6.53179042228626 1.422560987655271 9.867427517408556 0.17850243651669903 -1.7973288935659562 0.8763335159411038
Ni 8.594281452469984 2.179781231639794 5.660776862323964 0.08810784868252568 -0.20851440949775701 -0.5379879098801058
Ni 8.774627492870717 9.190234663223366 9.759252530765915 1.104499638231517 4.215644763713069 -1.7487175603161562
Ni 0.5294834790791082 7.528617259243732 0.633141422186584 -1.6249287132922532 1.4697312700500815 0.21539622421925486
Ni 6.04585389119409 4.681592978232996 7.69919160286391 -0.09050514527010865 -1.3973364612274386 0.8751916890271766
Ni 5.677366087033008 2.3124204290886063 7.3758537189930165 -1.8059474884729028 -0.9544950520441948 0.7773380738117966
Ni 5.348761427380401 5.446422445018294 4.4989529809585 0.3197645006247009 0.37976582087899763 -0.4690316944253664
Ni 4.089332478544696 5.957685752001281 6.7447237053335485 -0.3825567533605734 -1.5920679580084902 -1.5558223454128948
Ni 5.56110163865057 6.583236601442974 0.30105852711156406 0.3843619248901123 0.28226444679671386 0.10079187190809738
Ni 4.121317324386191 6.637797339932358 12.007166146562064 0.2532698593365767 -1.2535344043064025 0.9508669683733044
Ni 1.1085966218718035 4.4576990573425315 3.739189801854159 -3.2499913810592096 -2.6702785806364915 -1.887094589566879
Ni 0.5112222768600412 9.093524798435569 12.554183475680754 -0.010135288661788996 1.8220130265761973 -1.4188506811501305
Ni 3.379371476170871 5.017004908283355 1.4905245888058738 2.5198209660721504 0.07106529137794212 0.02191556912616871
Ni 0.9043570623749596 6.743766957466687 3.796552711240152 0.6885995335238075 -1.0072090946084589 0.9287835062107037
P 5.231797601902304 3.745481398206712 13.404119674985461 0.023076936424121546 1.0599300791512583 1.765362625072005
P 2.2402260627606605 5.973622224754376 13.510807319671333 1.156619755965524 -0.5879313316777681 -2.9222569748551543
P 6.003648814728024 6.654414539725228 9.937169401387722 -0.3433366315176861 0.2584028096877679 1.0460852028483663
P 1.8891014606278174 6.324951977501946 6.75864503954835 -0.32157558569151073 -0.1313381201260706 -0.5099813973648508
P 1.4952682305200338 1.9074158155061547 11.552370546282626 -1.662318466794621 2.1053946176964904 1.1057759338407793
P 4.023432506077686 0.18898288128073035 6.532877720544313 0.038426679407314465 0.8738804264149208 0.2411620203294492
P 7.764997392548705 6.242500080437661 0.23592693694698513 0.5401368379023085 -0.4966327439720866 0.12072692026912756
P 7.230981017386928 4.079298748478967 3.1020955003229074 -0.8442844579253589 -1.1395471167539537 3.536838819240915
Ni 0.6407646325292726 8.804700707984075 3.159144156267251 0.7804735341169848 1.4735737837246234 -0.3431396850155316
Ni 5.053335217145881 -0.08815228664530736 8.633691818061795 0.49593777478759105 -0.1319922087703017 -1.4526712292440014
Ni 3.1766360436810923 0.8723470389580208 12.26691759739839 0.990052123213198 1.1524599681608798 -0.244184866316173
Ni 2.024239765565119 2.878263124616861 9.536720063955 -1.3232784057697597 1.700865988050516 1.0768505090556808
Ni 0.03531108330845159 5.27887034295416 7.259994909326061 -0.6631065314590258 0.6704637431550453 -2.0280416935376233
Ni 5.103354667027449 7.746636412530657 5.770984705057989 -1.0962194005005959 -1.0237577429957594 -0.9818929844411733
Ni 6.467531654737065 2.875521566401875 5.36257832128225 0.7467175207124623 0.9618039270007823 -0.8679501769734148
Ni 1.3059048880992647 5.786627439430907 1.5875626945772339 -1.4127219425445732 -0.7733814031568939 3.9987066489279908
Ni 5.969612462739262 1.2689311523087319 13.459680988973036 -0.02765658537500398 -0.743485644038726 -0.9159148777781517
Ni 4.0551096259970905 2.323078936026457 1.0363882680019447 0.011570221336102653 1.0519259778998593 -0.9040973163179333
Ni 0.10271238527414417 7.628851984593653 7.884259837414536 -0.05047075505604211 1.583839142340795 -0.15606493344878927
Ni 3.2297141027276783 1.5718453599807791 8.145921986476202 -0.42201984445220214 -0.7134734139473519 -3.169713055723431
Ni -0.006792350353045168 2.168805673751911 2.8237005211218884 1.1028340776036363 0.6278500222495769 2.743205350703205
Ni 7.9564308911726265 5.75919320722517 9.20385573153843 -0.567848444884964 -0.7759095688953863 -0.9828350366394687
Ni 4.87321297741576 3.142357240965834 3.7606718687244363 -1.217531503849232 0.4598487423745178 -1.3024776669743245
Ni 5.674316802895932 4.764511126694387 1.9641558130256136 -0.11216000453572297 0.15456880851923702 -1.2666686276955152
Ni 2.8041757776166634 5.113649497875557 4.580241114535608 3.3604408306617284 1.083877076885159 2.344648108149317
Ni 7.049450698437545 7.502246080223397 4.438301134217319 0.21196765815368013 -1.0393890217751132 0.3491542666407277
Ni 8.989466811629375 3.8287072725901936 10.679299885156297 1.3838420262854296 -1.1302212113673373 -0.6344189337163461
Ni 6.067842307081625 7.009586203984954 7.767090861321712 0.6257484025255416 1.135416896635664 0.7130360692996172
Ni 3.935432217387835 5.986015186889462 9.019974573044838 0.5022246362375673 -0.7008300141517285 -0.07651063076322952
Ni 2.927107620977721 2.033294367696924 5.413799767265559 0.8079164608192859 -0.7375523092734265 -0.42178407429231224
Ni 0.6575627378642199 6.56572419896766 12.121155288126623 -0.189011563578139 0.6217865896643162 -1.8825113410715706
Ni 9.450542818227836 4.613436349003991 13.278530198660897 -0.5061098302245864 -0.1856922693969189 -0.9685787838307707
P 1.2607997279431973 7.755103537902109 10.229443752177804 -0.2554385848531214 1.6625508945204013 1.1578379446433416
P 1.5673786715965006 0.08913327958481909 0.9566378315324936 -0.2503668267571688 -0.03943840850128047 0.5155640336589509
P 0.880169804898671 1.0557796636075973 4.807154479473734 0.5862410884595387 -0.563475512628249 -2.193203447081358
P 6.832121597218339 5.839668198365724 6.062413275813719 -0.40138545603130227 1.4761117196551288 0.5249974111577088
P 7.743344677667086 0.6999142172689772 11.933411703059402 -0.4535382267754576 1.2656059907589559 -1.2371132826359017
P 3.956096479307588 1.1986577417368642 9.974538518363003 1.608384435780327 -0.46911474105747597 3.0563428329296913
P 0.21057311847513654 3.6278741458006083 8.46146694449586 2.260103808448333 0.08041742201680344 1.4372402394009118
P 6.926061928707324 3.400231563677409 9.708713676827971 -0.2763473099813305 2.7278548363890636 0.16622593314219114
Ni 7.357204595611557 3.211008096675772 12.93910104657307 0.5804504499196907 -0.10358100461746032 -0.021439400820698562
Ni 7.9239331687943135 2.505299307043557 7.945212882558247 -0.9210370294960655 -0.8023348529664504 -0.6310034802768938
Ni 5.227013862567993 7.622501640565065 3.12765819942066 1.2213411074033096 -1.4335910726840988 0.41252964557357985
Ni 2.6683847207234126 1.1735920666284274 2.7834928656410263 -2.299834551379052 -0.4268234364884327 -0.29013459357341
Ni 4.889280000560044 4.833870684527926 10.987842679694213 1.4876742276817476 2.2045443260154745 1.5804686832066652
Ni 7.869577580919657 0.4118566441143263 3.676381076149964 2.0100833092869896 0.285683756890908 0.6059041141061049
Ni 8.001312250658081 7.609437276418146 10.661571142032725 -1.8616782063763035 -3.406095138165734 2.3261037694882263
Ni 1.0042309091435202 6.061855639142779 9.179644228989494 1.9340457615054367 -2.623121977555347 1.1404899402831972
Ni 6.920560162221468 2.200277643056589 1.7404763677778177 -0.42257160319061415 1.7446457042396275 0.9044156188893004
Ni 3.0658360616727416 7.886334656131659 7.661085808681202 -0.17747708057597822 1.1016565123557673 0.9274131082257383
Ni 1.919734177417704 8.23635890496733 5.487377035237321 -1.2263228768886172 -0.40479268194063833 0.6158913072258039
Ni 1.8051948592045606 0.5336601590943868 10.074251042148163 0.9661403495926072 -1.798456065191864 -0.8731921420986446
Ni 8.659314197338377 8.20093312381519 5.7489571240530974 1.4888859886016617 0.91685538731455 0.18055469106003744
Ni 3.976648840892036 7.918105026330484 10.214267269201992 -2.7974078048875373 -0.23061124139679637 -2.561128566571686
Ni 1.3178875490048978 3.219307371544265 6.562590057076311 -1.4503649497083277 0.6515818186488779 -0.017530295574279486
Ni 6.301984433680487 8.793799750319728 1.3356647822737684 -0.1171083496799338 -0.5050703332164785 1.0108626322006462
Ni 5.110758739213498 2.667303017482126 11.67836939133385 0.7400658197238996 -2.627792386447823 -1.0286981177201704
Ni 5.043142961605136 1.0997844704664936 2.745155810765354 -1.8767471848942838 0.7307247448286318 -2.9236389428043457
Ni 3.618782243557035 8.453576105851232 1.9395750393701674 -2.073951825806177 0.7608953548747412 -1.3980134326898053
Ni 2.7772077968080326 8.042277098407846 12.992014985127874 -2.2087110557986542 0.15829613677215318 1.0295087865469237
Ni 3.1002267647233053 3.6188754938364562 12.469018927988103 -1.1769553821990826 0.6963241558615749 0.1108716247416026
Ni 0.9211542352071125 0.832492802036165 6.838991345303303 0.4568071273347165 -0.7728265590946883 2.0534861017526573
Ni 6.475989455080573 0.012486212414507796 6.34052104415412 0.9243565807876015 2.072716667847495 0.7303647903860518
Ni 7.468396228793477 8.277016026795003 12.976292055514655 -0.21859981875821707 -1.1901595395941826 0.6728214447539445
P 2.691743915718441 5.066334306097207 10.48293064924261 -0.15675270354443324 -1.1756238078718528 0.6450386182137213
P 8.214752815225424 0.3358763164418771 7.671008570914419 0.05734588490932059 -1.00359618044622 -0.5275602867888785
P 4.541325907927525 8.897382160700873 0.07600457274509877 1.6524878538574441 0.4625108625877131 -0.8541006726848323
P 2.867548667511357 3.2243895117727237 2.767620735580732 0.2857192381145337 1.2821091306203016 1.4937163201107693
P 3.325733915447758 6.662592589230473 3.119127663859202 -1.2010342775251575 -0.8768173975560576 0.368227738332411
P 5.987721667002872 0.2372212508253523 4.1059142432313855 -0.29022998150069373 -2.744485502967209 4.378430046604827
P 4.403184943992858 3.8310758296874936 5.764898259320163 -0.10350104330914434 -0.2024877436877029 1.4249465096352234
P 8.952362525447652 2.5918542164023783 0.8655257810183551 -0.02018033160261686 0.30122941793499086 -2.9982806386796366
