# total energy = -340864.93429036485 ev
CRYSTAL
PRIMVEC
9.31695759061921 0.00000000000000 0.00000000000000

0.00000000000000 9.31695759061921 0.00000000000000

0.00000000000000 0.00000000000000 13.63630920637659

PRIMCOORD
 96 1
Ni 6.847879880866677 8.3904978445628 1.956019751481207 1.1934605789429575 -1.671239937653967 -0.1010860061097485
Ni 8.566308831842855 8.676425952068767 12.603140594727249 -0.021117498704905566 -2.8644606326719764 0.5966612553515982
Ni 5.35904871259015 4.966217835182152 10.028373313031048 -0.0774619389329053 -0.8929544123272364 -0.9952442089370989
Ni 6.606300490872798 2.4218312883732214 7.990699746365824 -0.24556786270662867 0.1269343346314201 1.7825319377624396
Ni 0.11315444835804221 5.411251625241456 5.857013069678427 1.3690435278200164 -1.6502671920570418 0.5834578692874468
Ni 5.818710125862474 4.085718770375501 1.056340798046325 -0.6678293908559918 -0.8399189818678116 1.3007961655068436
Ni 4.421315578103511 2.1671056714025445 0.5023852534032942 1.8245111104077028 1.0406455198900335 -0.3970264077316582
Ni 2.3804174124612008 4.432095297885335 3.696843873105241 -0.09121862639736547 0.21138530328764882 0.27489232270235886
Ni 8.349559133481264 9.045917851038157 5.686763374306558 1.0662845606143765 -2.5878922078187756 1.335529198112655
Ni 4.285828382712597 7.532555133768073 7.766341820541974 -0.8524201996586159 -0.13921829420509574 -0.9285965870108782
Ni 0.13839874459732712 7.550807053433235 1.4373354126964752 -0.5746094177578814 0.9447456859669149 0.6384229126694166
Ni 2.025329529725778 3.917761978234667 6.4029150362925815 0.3225392351563607 -0.7711057197488397 -1.2523069596572045
Ni 3.844036893849555 2.502106193853081 7.455543026790889 0.5763963344549751 -0.5010452712174855 -0.5945817471147502
Ni 6.807099558061972 7.1091273680597205 4.009851717470214 -0.7670024962137436 1.0276701906762884 0.27288094869928486
Ni 5.081859911182153 4.562840161928843 12.409327382241973 -2.339249305731249 0.2903577653278096 0.9844525176382335
Ni 8.425324631550232 3.19844627749505 2.5084128423581085 0.09065324081219872 1.2902605560828426 0.7387051919309472
Ni 6.4906584148727955 1.8560776804979315 3.1596150621910857 -1.7865138052283231 1.6956551332735377 -1.886414532780719
Ni 5.887487905836049 4.022372776601411 6.510233342497353 -0.7000604829755556 0.8783811424987518 0.4628499910946867
Ni 1.923010702894323 6.85361912666236 4.96108046483842 -0.023025514360895828 -0.7069705798318275 0.18424422409648267
Ni 4.678882867099648 6.29377246981704 3.1311554839321745 -0.0855863678122526 -1.0950228090893335 0.44886061879413014
Ni 8.563718717668829 2.2836328583612957 6.71927791703909 1.1050699089126903 1.5479478277608245 0.6345824558774039
Ni 6.35656876310096 0.03778585267689387 4.328737630297032 -1.4730497929003534 -0.2932291733383337 1.2847272849694389
Ni 3.4431095804083633 6.006605206968826 10.974337979434058 0.006734747620672272 -0.323803703691081 0.3664616475709237
Ni 4.833208950475738 2.0044409110992873 9.764210549848608 -0.7481236570313695 0.4684868776654899 -0.5457192170860924
P 4.677410787820885 5.383347337647192 8.019990397230213 -0.48016328556215365 -0.2701828330418315 0.6258124229942578
P 1.9794714651050878 8.899818641099706 2.018174106396097 0.07562719971701169 -0.6976816983307339 0.7206519339736621
P 1.814337711074792 2.50351305442962 8.207162482437628 -0.8763692542750454 -0.47737183885994555 -0.002029885945835214
P 8.418989100477077 8.79709918509745 3.458099633266597 0.487001905750542 -0.8008171307703434 -0.6121385250515909
P 5.18741172225241 6.917719793990752 5.512396515432885 1.6252372456716075 2.5283981662182002 -1.3228246060617928
P 6.816444466394875 5.285957181312353 3.0189699991500265 -0.7119585199647224 -1.853687217751027 -0.013350710275293137
P 1.5968426561163616 5.7670382797864175 9.507329920617313 2.1441663391480494 0.9669962698349992 0.5461732739043755
P 8.397653267892482 7.643445561463208 9.724638636426532 -0.5015219537435879 3.268591255548584 2.2670349883505283
Ni 4.196161984112531 1.5805845653477504 4.5419133437767645 1.2253828815728507 0.4743621054993443 -0.6937443109495407
Ni 8.314629859961768 1.5081172702198087 4.474045830547082 0.5650104612155367 1.7451792081455946 -0.7986874860218504
Ni 7.58084492428596 5.488349448227277 1.1049706575115206 2.3064661977629566 0.8789179888388283 -0.6412989486656311
Ni 3.8989044563345705 8.396982446955324 4.10811580441485 -0.17582694656706493 0.10166578987261846 0.45719922056681267
Ni 5.528999333627536 7.207402635353309 9.744956125560693 1.2479569102186248 -0.31475650588714826 0.8084160261635238
Ni 1.8335492773583888 2.1637702006316775 4.317228392746049 0.8069430411624231 -0.5998085427313283 1.6562378078181799
Ni 0.4897244399101906 1.1579766918959236 0.354242834693753 1.3565713634949346 -0.7917172253516043 -0.9894139754085671
Ni 2.238352445103158 6.675003735186688 2.622576317209125 0.2542738751210588 0.8943448649168597 -0.3595932025858646
Ni 3.0935000686597283 1.9477192740796279 2.417553873203096 -0.3312593886381779 0.024633482277964025 -0.732818651243183
Ni 0.4981590814992014 1.1966886501443934 2.6654753161403537 0.45152865254459656 -0.692237130276395 -0.3924159055428403
Ni 3.75492019573966 5.6450234048834185 5.934998798710235 -0.4609124077523417 -1.4872785349052255 -0.33761541276319273
Ni 1.3381573322249627 9.070570520478697 4.592354419772286 0.0698051937185959 -0.7419707500560964 -1.7495935351632064
Ni 5.191278259598526 0.38961186860538743 7.905772884025926 0.010408339817517558 0.9605325164875262 -1.4644067725133747
Ni 0.517171264893143 0.2703911492447992 10.294227103992572 -0.5413840800458483 -0.04458421436827805 0.3390290052812677
Ni 7.333358583262108 5.614687391391959 12.120238031069652 -0.7660079935109582 0.5757862116748019 0.16755262237341467
Ni 2.7419526297593038 8.178611597995605 10.051336818083998 -1.03141243132754 -2.43531831824238 1.250900052007349
Ni 5.4168324827603085 1.4865112458688576 11.880470789301844 -0.0029122885507885327 0.29760621936010684 1.0700748808947442
Ni 6.120141650582748 9.169218466070706 13.358865101831094 -0.10923434624849575 -0.43025071700242673 -0.4670339472690473
Ni 6.867743634172511 -0.025141809707219177 10.280249804410296 -0.054890995610924816 0.28211223748956576 1.4820041738801637
Ni 1.6252407424560333 2.487655592831811 10.845884155230092 -0.42250398317747234 -0.6741054536726906 -1.5438960262889538
Ni 2.204569157351304 6.246498227662351 7.454165980478224 -1.1383052739270525 0.00021134467985770052 0.9787636947835724
Ni 1.3459928934492618 6.8797997771264265 11.704275943374416 0.4325356563818616 0.1873215774702258 0.9852798986355353
Ni 7.8395302481773586 4.003431402084169 9.609493154259175 0.5741412198722112 1.326391497477445 -2.3207152514828033
Ni 5.477849237169269 6.314167289698124 0.41571332493104035 -0.24788391243431498 -0.03735632916127115 0.6058899730387178
P 8.139629447980779 1.9944065479143047 9.956618765148836 0.14587410895871653 -1.8065390993103145 0.43604186976290715
P 5.44416843594948 0.5106056049707131 1.6991791851669915 -1.977854274049955 1.7347464428480446 0.4986813989709992
P 5.633787154186029 7.399201521635619 12.292218817137687 1.089975476473413 -0.5827317897546995 -2.1566937821910988
P 7.933920344209909 4.374488549906927 7.361588964367491 -1.5873517834797437 -1.0125533896395078 -0.5463658495311557
P 6.785549435455784 1.1939680985659207 6.257374843801764 -0.8855159537713201 -1.069834225638848 -0.519797355014008
P 2.911129943327466 6.081858272377463 13.241169568406793 0.19129393185441249 -1.5189031037890421 0.7722092372256636
P 4.114163441502476 3.5623480019881266 5.476818781674135 -1.464407800954639 -0.7642619573541289 -1.5407801063677915
P 9.063061052765516 6.344289013167992 13.152697603753168 -0.11033040752615193 0.1613662910570447 0.437121475980331
Ni 6.569349437584366 3.5194806807122636 11.22970460307802 0.843287127009096 -2.7984509014400705 0.3172851858462729
Ni 0.7560971854022666 8.051770539128055 8.404193772029767 0.08029735149917139 0.07855748598992922 0.374576049147942
Ni 3.0260825644753893 0.779315043393888 11.579722197563425 0.5384674206196856 0.38189623695843905 -0.8121760074265884
Ni 8.232035032074238 1.4273485659945417 12.12083804313011 -0.8895140191871197 2.5261633633504106 -0.9415690880111462
Ni 6.524227412603057 7.9789119317867705 6.840231590487336 -0.5457048189083893 -0.5817910231079851 -0.6251087120590137
Ni 8.871010608631773 6.2470945129398245 3.8553933332981853 1.1957714864643212 0.12588403899003484 -1.9718818585166038
Ni 0.9586869718153536 5.313581960182801 1.0557081766347556 0.4482314698505635 -0.41731986787337166 -0.30238075793061475
Ni 1.0134799986406846 0.8322008890270501 6.500183140484688 1.714808309163221 0.5057218507575484 1.6731466677583764
Ni 7.229353387130299 5.889146324264022 5.903172072025091 -0.6885072309203175 0.3166652928740869 0.3341606214453729
Ni 4.822186989799939 3.778082151986518 3.2735735639779713 0.26889265347549823 -0.22061504941603294 0.6182721487531545
Ni 7.631072641955635 0.10814192524428125 8.136130930454353 1.9832019115151136 0.6405954948407031 0.33217907223896986
Ni 8.956624130736511 3.4419542776832586 0.12442796688527409 -0.6296428524839415 -0.027449611570520466 0.2718957019678801
Ni 7.946656625058443 6.310990207204085 8.339980369516102 -0.6872713016306874 -0.678878963801934 -1.9215381159567295
Ni 0.5330166144462531 4.3736686576504 8.150722217533277 0.8938841232303574 -0.5926451922136697 1.2612659686227052
Ni 3.31049200791529 4.426644877770929 1.3845623022485856 0.20898903514133038 0.7374103843789236 -0.4487564891160981
Ni 7.503094914277902 1.4206496735804262 0.9564331998056532 0.0892807859447043 -0.035193260071681325 0.10763820540596947
Ni 3.0942640591714907 0.4275113881632996 0.3530586494005207 -1.9092351302196602 0.9903560276068621 1.0536714998360563
Ni 9.107232748085853 5.736264369294313 10.514739921472467 -1.300395073413683 0.7366326256726347 -0.23212073606278733
Ni 2.9980292055617572 3.9765147119807205 9.36768084032878 0.2961028953417029 0.9384220577417322 -0.48309537160728416
Ni 2.4466237121756715 0.41099894445601615 8.585269771970763 0.6215071107506845 2.172414535360465 -1.7460559543235927
Ni 4.215708960864707 7.8746738117184485 1.4542848217086575 -0.5720604260837825 1.659743506978593 1.0653268246867975
Ni 0.1066707776612648 3.8205488440915785 11.59706757726768 -1.204952638742957 -0.04518688094928347 0.08113758801227963
Ni 2.136983947932676 3.1546938452604376 13.172334023296964 0.0724670568214752 -0.2547227897330194 0.22940308002130816
Ni 3.6057557067966997 8.070413771006558 12.755689934315617 0.1674250956566149 -2.2302661562616106 -1.8313029365185558
P 1.294665774799245 3.167989143556603 1.702098187939373 0.22072200730754246 0.09682285995802035 0.0019743501175514384
P 1.3688287561850017 8.882107104967254 12.459100432387576 0.6745312283561996 2.0399790684051577 -0.23586760469972923
P 0.3468488972530826 7.472935922978191 6.442146880767349 0.5109679296478362 -0.03573499150776427 -1.0062747557196474
P 4.567107328445762 9.051470757684626 9.772201704262496 0.09463382272650153 1.7047591524573351 1.0420246596257474
P 0.2022115179401898 3.239282502044519 4.889025910925979 -0.6586790918152914 2.0226344064791233 0.1288086688359975
P 3.5315461406236404 0.4481894435511826 6.134457155720841 -1.0714905302953481 -1.2724857485979246 1.1696429076980694
P 3.5700344918930575 3.1956325563419723 11.391077101381502 1.135643153713857 -0.308891562465939 0.2954197532317493
P 6.8370163084677085 2.9875848962485114 13.227260282613981 -0.18570795312620275 -0.6655840464652408 0.11136039145256306
