# total energy = -340872.51690887666 ev
CRYSTAL
PRIMVEC
9.22278400901157 0.00000000000000 0.00000000000000
0.00000000000000 9.22278400901157 0.00000000000000
0.00000000000000 0.00000000000000 13.49847665048190
PRIMCOORD
 96 1
Ni 0.5206519820725244 0.33122983235104836 6.485491240111062 -3.2428280305415504 -2.3740170482297374 -1.9569715170636748
Ni 9.145072847964693 2.2894454610881887 10.683044944322214 0.9910353130620739 1.2460926033163766 -1.0489735801397546
Ni 6.086447199093994 1.6806494875207603 3.128919864161356 1.1695930282967406 0.21214455005117658 -1.4018271500089405
Ni 6.922769254587016 1.731171898416115 10.430137760756603 -1.259987616130914 0.201378312673608 0.06291206614318842
Ni 7.6544680480871765 4.0793111570468445 4.162269177083834 0.22164400490117953 -0.20179920226111053 -0.18612087229390525
Ni 8.33311738786881 1.5960673352167625 4.078268060173484 -0.048650414017851695 -0.5659933939540962 0.4294104804893185
Ni 7.713023503869324 6.498585748871417 4.122880511064871 0.3194837361594885 -0.5018477125141229 -0.7234305251600638
Ni 0.6193828073510683 8.73955625711806 10.387630871458391 -0.611174875586741 1.895966181024896 -0.9171582632669495
Ni 7.876884707662273 2.553383094349099 1.480593467817111 0.4435608038477715 -0.5686997371416658 0.4836162771077606
Ni 1.920202079816479 1.7127632214998811 7.253122922455579 1.19173434028047 1.81535566916068 2.3560013283786074
Ni 1.005652370213489 1.4584541747622919 12.573952695236372 0.3280421672524608 -1.2482636428257663 -0.23877320838229843
Ni 9.15127055883028 8.591189330489076 3.3169807309605694 0.1862391430393244 1.0313473824175594 -0.33997799945809837
Ni 3.130996835124049 2.390434946174741 5.4143607924253825 -0.6887954515846976 -0.12368111780144506 -0.7019790401545072
Ni 1.8424540104758726 6.22994449575716 9.533271817245389 1.017192431073416 0.08205110096548449 0.2373976681910105
Ni 0.48145607223970793 6.30070169480593 5.5143975639220315 -0.1515253937072229 -1.2486217974961333 0.2502133318984401
Ni 3.9241562613746 4.978661718574708 4.009844225483335 1.8507412477488254 -2.364061993899554 -0.8156716792846727
Ni 5.785406305695806 2.2094285868771446 8.169602038476844 0.6065895702089037 -1.0380263370996317 -1.2454290015904488
Ni 2.065092016867597 8.733902690510018 8.332393399322756 -1.0546708876348483 0.28097760966449026 0.851392786835366
Ni 3.6651620403517167 4.854430817742209 10.82396908424208 0.5361110045723669 0.19656906421042275 0.05848282672724122
Ni 4.811194406227528 3.731649090396371 6.482643244403781 0.2547289603806065 -0.3945473500635463 -0.7180782597092149
Ni 4.01073053502825 4.362487517786343 1.4415026977221927 0.08581185355949737 -0.5382180236130407 0.23431337283873194
Ni 5.643024965899805 1.6720354072403183 0.567366305443474 -1.9307822602628169 0.9420696817966485 1.450307099887199
Ni 2.164744198270355 3.5999016205825436 9.03123694700809 -0.8611740345918458 0.5506325952273097 -0.2744758039902305
Ni 8.850893705881974 1.021294211921872 8.52084623444308 0.5955330552844259 -1.8327124152715728 0.34523976207766993
P 1.809657790478815 8.000506904749045 12.274273084760445 -0.6148451253494767 0.07166410130420561 0.919448601963023
P 2.113769870957718 3.878780163965848 6.795173882141771 0.022828053638109073 0.8204739857693224 0.20459707672122185
P 0.621080721890286 6.6770742881298695 3.344935911622291 -0.24191792465886724 -2.147773339773017 -1.5636786082325198
P 8.12778132431018 1.214797443574928 12.386971816446623 -0.4731140920248562 0.5943182090407183 -0.3810701415127179
P 0.28782003249667515 3.131199736372625 3.0335664223931955 0.2727559930856464 1.377934145441427 -0.9562549721580951
P 7.705885069033069 0.24283313657382707 1.8608193403071833 -0.12479903345597217 1.8914245844008006 0.5200686063975237
P 7.348308509554464 0.2934265629061834 6.096047194986833 0.44570716076681305 3.416050449606233 -0.8002777133271056
P 4.834777064982442 2.846289492236206 4.27813962419661 0.06611823178531194 1.546379711942756 0.30229668285724065
Ni 6.122646626396708 5.544396513523952 2.6740613787747174 -0.9145768756930184 -0.13110697795187096 -0.5460696584469756
Ni 0.7167403600881155 1.1699101537195624 1.2868836458018689 -1.5195391947111443 1.4603937946992396 2.474617887172951
Ni 2.9980965173069514 2.196802595545319 0.1743816335315993 0.5346285064895696 0.11584439536584566 0.8939692267449959
Ni 3.677013317825344 6.7872496661064865 1.8757888410600585 0.48213095081148577 0.38737140114039736 1.0261149303740262
Ni 8.710864176012647 8.553560371662305 13.360495696226549 1.9547359428649367 0.7444886313819437 -0.696806237704316
Ni 0.21205209488648738 6.973688245195497 8.019404389218664 -0.9822871345557986 0.42854864670965553 0.6194039483647527
Ni 4.342372625825268 0.5015506740759254 4.142601590148028 0.7403820654127378 0.08630936202120619 -0.6311500331570873
Ni 8.012431964494882 7.637922373544228 6.148731426457923 0.05496350072007308 -0.26499383264172427 0.026023934867587438
Ni 5.057009268877016 7.572053250029328 11.799868753187146 0.5430995200750582 -2.3545224298402356 -1.9854930215421354
Ni 7.29188351688236 8.648075462362488 11.277517934297002 1.1393866799166894 -0.22758273898311773 0.39811629836172724
Ni 2.5895548532997346 2.913505142218927 2.8835716743835924 -0.0930101710801495 -1.1478569221712298 -0.2527124441712099
Ni 1.6416924477942214 4.497536744281539 4.436976255252102 -0.40426354891004573 -0.47925388637400684 0.205165290519866
Ni 9.042515489593693 4.5909082097624765 7.345276980445061 0.5042192980700929 -0.13682434005162242 -0.4979563478795166
Ni 5.423255245340219 8.621725968399723 6.088622853845768 -0.5425665303897236 -0.20178711807625246 -0.7085682633362507
Ni 6.819022157076639 4.750250249382601 8.270894953157857 -1.533174526106392 -1.1063582887068109 -0.7105117602158667
Ni 6.586691004673412 6.573271853915336 10.003099803384904 -0.40440058870854223 0.0022499723764412864 0.027082200928772716
Ni 4.089732902996416 7.904221039515838 7.916788927308298 0.3305484786140823 -1.0595151031010268 0.1491178127069948
Ni 5.144044681731973 4.715286675139393 12.92628979110971 0.33478822772704275 1.6972237633122382 0.2819212045246823
Ni 8.729503422529536 4.987884502600877 9.605948277650004 0.7807147035935136 -0.21758834677456718 1.3673625405731675
Ni 6.936179182561067 3.139306563531628 12.67830941877088 3.041923315070252 -0.47644547039093427 1.6928292337889683
Ni 0.8114380619120156 3.484524592415167 0.6607866516797495 0.3939500827991796 0.7002268333500908 -0.6716575063528304
Ni 7.3266165215249135 2.9508481947408867 6.282568779132079 -0.46831512797431607 -0.4912133727287282 0.6928009731996649
Ni 1.9216223885565091 5.219394827225775 2.037986254614686 -1.2486824755307397 0.5414843530691383 0.42695044898460016
Ni 1.7834189699243634 8.584207682981265 0.9709627126558589 1.0851250903596474 -2.509989838914342 -0.9778951761356901
P 1.3755874602871618 1.1309438912089975 4.58549996920953 -0.9272038204284097 0.3440213162895365 0.11985505918713553
P 7.978067871213375 8.149786886996619 9.330039470723127 -0.14392187032835213 -0.1427864711723283 -1.1486933020295957
P 4.547551902055455 7.13411857333071 4.224131923217766 2.1804317492379868 1.2319898453664073 -0.5769696904599418
P 2.754366003847378 4.274207029087852 12.918568476323001 0.20989354923347078 -0.8711712550138738 0.5273466281161756
P 4.107929455880048 0.9494856154941187 7.177855782018012 0.7529933264188451 -0.1845722968598628 -0.5115603118161963
P 5.023419889453707 3.5574307001420347 9.57411860541889 -1.684790422644892 0.1395057435385275 0.03955179415069317
P 1.8593132596757098 7.33921484450466 6.6590419008019035 1.0331080738624077 0.3748976941534189 -0.04668557698199701
P 3.537998294198896 0.7064486553933134 1.6798581726513149 0.32106290772115026 -0.17592953358320024 0.4166554948164953
Ni 2.288910539614671 8.99930674643109 3.265942766438152 0.22257885801062313 -0.4272690086662835 -0.4843253873596433
Ni 3.7201298331476855 1.6800592293430854 9.152804307813831 1.9005016070014047 -0.12584598666324778 0.42861960915690694
Ni 6.374898992296463 6.979369480155618 7.6327539253759635 0.04710800923139629 0.1559392065042024 0.7892211984026278
Ni 0.35506519538827996 6.501149682830692 0.3524643702929003 0.8205259220531803 -0.9036435166099663 -0.6135613735410466
Ni 7.076503841519231 6.409272308361994 12.471782693794468 0.9080861257623521 -0.21802697697388257 0.6142463154232131
Ni 5.353106750037177 8.53383283663033 2.168692472111958 -1.216849390180543 0.571277525171171 -0.8139261573484757
Ni 2.7575663099044587 9.143938445529475 5.76941123135922 0.6884010443597564 -1.370500571981517 0.39664074225746526
Ni 7.428371497685638 7.431590249310771 1.4573363733383202 1.0176850544391185 -2.408228146893807 1.296442002303206
Ni 2.6059621860822895 2.555670344787589 11.261117979741666 0.21714791680303894 -0.38003090161492614 -0.15852599339477214
Ni 4.731029967472065 6.035076292068232 6.179251463357322 0.403504302146518 0.8582756299981282 -0.47553478565120677
Ni 2.901155834407887 9.144731604955727 10.780423709462521 1.8216127058139855 -0.03528607689580374 0.5061604809568638
Ni 1.2967695479995198 4.495018924242395 11.285064016187214 -1.4668081828660158 0.8069551253472812 0.578899303382487
Ni 0.3822272166237509 2.913431359946718 5.662921277879461 0.7089762974079467 -0.7467146924989849 -0.24057786569120504
Ni 6.478083499981243 8.994990483506843 13.429445229606191 -0.7479699050623247 -1.3232964034918888 -0.15339844236021968
Ni 6.866657836571803 8.67530112080774 3.8842271402117032 -0.23215261774198728 0.5202825221805427 1.655708674787587
Ni 3.8814363257653843 8.743706509929837 13.198189453820413 -1.258875871123974 1.7923270694759907 2.146623799549606
Ni 5.790801634351115 8.904487303858044 9.49536801945464 -0.906282239784394 0.02950880809239434 -0.662975148087484
Ni 4.964218838789726 2.6857023767725483 11.965846585914102 -2.406175892350469 -1.2374431551714948 -2.457571987434258
Ni 3.219009863085782 6.354083168749398 13.109410012506107 -0.6305684496220043 0.26576799180358746 -0.46318552005723457
Ni 2.5459495304240067 6.675220508540609 4.252330585377779 -1.4626892756016359 1.943229227776918 1.012515851533353
Ni 8.555995186645216 5.1678117961674115 1.9248014822103294 -0.21116598818799115 -0.6816899508881679 1.4110327277676087
Ni 6.569121601103559 4.342557081505792 10.721759424828864 0.5967373600051722 0.43055025052071655 0.6080461001497721
Ni 3.9287492078196324 5.0937067265171425 8.301185342735005 0.26408957565990004 0.7633898391618208 0.33146841932519044
Ni 0.23650261761826455 6.817048481295039 11.334806179553954 -0.9574651904161122 -2.252782335086256 0.95794418693506
P 1.7271599873647314 1.4195063578197793 9.468776888550389 -2.6731404755653188 -0.18425579406070847 1.3522359693443744
P 5.2041126740944135 0.500431950373551 11.755121649648979 -0.11901713666687244 0.8818068803508491 -1.2987063728573502
P 5.592760792957184 6.656378360775146 0.71231895742597 -1.1132565584885405 0.11049932900384841 -0.7804884465153203
P 6.107392141617424 3.6910965090333043 1.3418929411259553 -0.4602554908946332 0.6809471591848724 0.05669359603730236
P 8.431598275700244 4.621896764090405 12.171711114997432 1.222772183422881 1.1736805681025528 -0.45460600591833966
P 4.125886216378999 6.854151741432317 9.905424986877357 0.14090210966542185 0.3320736570093571 -0.4803342639223792
P 7.315392393365065 5.457268872828732 6.126026776742299 -0.035342384055035904 -0.5738113473366183 -0.5265395588338481
P 7.8473164620743745 2.7707364454938284 8.597517082609432 0.06484682127205606 2.452691776523821 0.0640531217261671
