# total energy = -340859.9437901842 ev
CRYSTAL
PRIMVEC
9.30937055470432 0.00000000000000 0.00000000000000

0.00000000000000 9.30937055470432 0.00000000000000

0.00000000000000 0.00000000000000 13.62520481240428

PRIMCOORD
 96 1
Ni 4.438791708771088 8.390880210752327 8.90200003487483 0.5151518858221966 0.23617459441718677 -2.8365579927244373
Ni 8.74919788695097 5.259561681224443 4.578409925984826 -1.5040094745066614 1.1651799868307093 0.5099875680124378
Ni 0.13182627398229452 3.447771965927481 11.002680001960089 1.3788234900249159 -0.8917066559630642 -0.40591085470548155
Ni 0.6761833441253737 2.5732217592470654 1.7145682338832722 -0.4492514264746456 0.24863081790266855 -1.1797722828225876
Ni 8.49487519024869 7.64754558333977 4.00061918210052 1.7918940957036302 0.4917872429543272 -0.7198407509262764
Ni 4.423654672099252 0.33601056225457554 0.9435233338031944 2.8717090867042736 0.6027370292320329 0.7496758320098379
Ni 5.270044032572836 5.191863937880287 2.82782932269114 -1.1874796787691742 -1.7756753198519226 0.40700614465218937
Ni 1.6247830777423151 3.498610439030126 13.1984496045809 1.1562916832021441 -1.0319891297666162 -0.24421212000968262
Ni 5.740902690521686 4.157211174814726 11.793772631728235 -0.4408200078778408 -1.052857231464877 -0.5567075977767961
Ni 6.461615547262309 0.4947437102175648 12.854236555849353 2.9573491905725975 0.6536500140318163 2.0146935543654916
Ni 2.2232266604067377 3.5645766394339606 3.3726332426252696 -0.16257188132937161 -1.6522250871143611 0.23979702166112252
Ni 7.152119496253789 1.9536272864729176 3.6941332888525444 -2.8090816416810394 -1.2264681442172296 -0.30989146448536303
Ni 2.9323493506919887 4.71965542118764 10.935276434728374 -0.8965341592586946 -0.6294798445435159 0.9954290712543952
Ni 3.053799400151264 1.1425762969749118 7.670037022822647 0.4320484323327979 -0.247569980738322 0.1915736678783604
Ni 6.574426500761274 6.671728042762528 3.681203503961084 -0.48911303855627386 0.2928674191235408 1.3309482636101917
Ni 7.756735191657096 8.791546214023656 8.691476996129083 0.5379233751907575 -1.9561991576740247 2.200671216213313
Ni 7.543234085241412 9.033561922730753 1.363474629306612 0.03593605177497682 -1.5807250221918454 0.7199507941415795
Ni 1.087827888200575 4.129329609727302 5.520796585632035 0.3559252668159741 -1.2511157675625808 0.4569557370974388
Ni 4.026498301561799 7.731301991049803 5.095173090593471 2.3415638127970384 -1.2176762569572124 -1.2178037836740123
Ni 0.7054091823342078 1.4865854704892918 6.966090342617064 0.3797444807227589 -0.23917404336514292 -0.27614882081727926
Ni 8.412133503939167 2.3270540712314576 5.403892301859635 2.125663909468488 0.1737564371912814 1.7287097497356616
Ni 2.4328457592626704 0.048898400259833635 5.387174534051956 0.04066945269490415 1.7012984476022444 -0.1661498284886171
Ni 5.8264930442491565 0.8197580438640385 8.212755643731874 1.334098379203399 1.4993724899552825 0.626464968976592
Ni 4.544462374983891 2.7819192304089566 5.432737386809011 -0.41455078976866666 -0.14623406340129652 -0.554424201059258
P 0.04544090000158016 7.787744705281874 2.081890864308649 -0.8577287563557229 1.8389167443100716 -2.1549482602549017
P 7.628135545541013 4.72064221447621 0.709731523125557 0.3583433893391635 -0.4170409031803721 -0.6253552808521811
P 3.4185033046136715 8.117640872895574 6.990533957124593 -1.6983046550812428 -0.2973660783248427 2.2943732711541647
P 3.147554071936053 5.352217847272899 3.1658432615089254 -0.06413873946143792 1.1275732322215288 -1.069600512361487
P 6.430894624127586 1.8091272352919527 6.1159325489056195 0.33609126280918245 -0.6588351577771814 0.1723472155485806
P 9.32184520355287 3.265922719711209 3.594656146931114 -0.4040637741944138 0.10907699473502505 1.069270639825894
P 2.2087505890508297 2.2796135184149264 9.441368213288241 -1.8074664962205904 0.5593198385886624 0.011181470538116226
P 0.48427904667340016 8.641749130944612 5.370824486384831 -2.0618187899880684 1.322361036161813 0.8043300290196084
Ni 4.801056558124012 0.35507429146526875 6.29363167768751 0.3640854340292633 0.26984704696896755 -1.740531682071254
Ni 9.086513622970239 1.1841053994306705 13.45423573434887 -0.21947553649495105 0.8789547556140346 0.3943892272191272
Ni 8.083382388915034 5.461528477408636 12.076864076540586 0.08848914328134437 -0.08895965515985971 -0.8512727163177339
Ni 2.223198732294797 7.574169123901014 9.296354284847569 1.0302047841726838 -1.7422808035518766 0.23558169802819426
Ni 0.4870197253918434 5.269801988936018 0.029328241285949793 -2.4695343020024567 1.5550574422224122 0.41376094687751974
Ni 1.8377070031778928 5.789851361383013 7.142168709969332 0.5792309756902927 0.8662339656132565 1.06055691410198
Ni 7.583329544617549 7.6624219576334935 11.576586876410513 0.9517051480038835 1.1198174995355101 -0.12723438237034215
Ni 8.304647510450222 1.7949490637967453 8.741700119831968 -0.0614665919459135 0.8278047151027808 -0.604500806000675
Ni 3.3554136997397244 5.421926414676783 5.209079757017574 0.5066991270691531 -1.104243556356653 0.8644604186526015
Ni 3.4371034271661496 7.406954208341648 2.8967866238838194 -1.0335287063395941 0.5269810172466408 -0.43458174027761287
Ni 5.420557937191691 2.6321221473299135 0.14802457890787624 2.108457058671898 0.13494846318514822 1.4378765874333301
Ni 7.428821919991182 4.118540049147562 2.9595168870507957 -0.44065468594457013 0.5005994419293185 -1.831325562226375
Ni 6.706675420170938 4.000022451442055 5.316036978253777 -0.7561555261969105 1.245380150630384 0.26647453095230883
Ni 2.372856174814137 5.3133791529340915 1.1450293161403662 1.5187838046023585 -0.26894741797283356 0.4940976362550587
Ni 4.236843531328189 6.818890573948503 10.588173757348034 0.34162067726784395 -1.5382102887580864 -0.18885215518213927
Ni 7.875792732860122 0.9531585324227215 10.902848173017011 0.8171451785064057 0.17154554558289167 0.7712054785514976
Ni 5.698181988623126 6.293330054078551 12.440479715574373 2.1443000365124365 -0.8954422117460966 -0.27351703962138696
Ni 4.147799401090724 1.680825489036569 9.889350954746497 -0.06744672078874836 -0.5536996641884078 -2.7100553463137973
Ni 0.1024840686403744 4.134189101204977 8.330559212708764 0.735409809009127 -1.6802930489951706 0.12061687705382453
Ni 4.788861282576591 5.032487512405599 0.6597709236749136 0.6517869926811485 -0.9399379801656265 -0.533707280226881
Ni 3.3715189109588373 2.331708756554901 1.17621477687037 -0.12232666065607964 3.193802492572467 1.0505041578516683
Ni 7.938752006545013 0.14822566131384898 6.653760026476974 0.742363871729457 2.4940693110293433 -0.524721788898819
Ni 4.935874863832216 8.285293328875346 12.614268908684572 -2.172690414729671 0.6577686641858801 1.058567394475777
Ni 2.20393764442639 8.012863906264872 12.175973498321465 -0.025594817749968822 1.137468379848054 -0.7254506409138861
P 6.211286570567545 6.387950497333501 5.978549511584199 -2.8142963531127596 -0.352923760985489 -3.2677139951499528
P 3.3362084680951987 7.945073069214248 0.6870241062436725 -1.2823659838261139 -1.6645908077685654 -1.278155288178876
P 5.350048763912175 2.8743798996738286 2.4414327227473587 1.6003667076821728 1.5281652458172585 -1.012216060904747
P 2.455346508116194 2.384874572319267 5.882204972885446 0.04267311338849425 -1.2901461419921652 -1.8449593509597257
P 4.639371408728895 4.483076384938325 6.70846468120927 0.72506651810159 0.806083007154973 0.7229540997442775
P 2.0714559907505543 1.177756408649494 2.4717756854338186 0.3221944502224322 -0.6909940018979132 0.964644481773371
P 6.40134668169437 2.1857378248117274 9.949900963307973 -0.2776410890920896 1.1362206234838819 -0.39002272272031535
P 3.715062615940873 8.94307484004302 10.783082188707759 -1.4795685678554777 0.6981997756177329 1.3295405846293875
Ni 6.257945136249737 3.4180005985987396 7.715680867104329 1.1891161859313328 -0.35450087566462174 -0.5898540026217777
Ni 4.805748480930042 1.5610325075524396 11.862621013284347 -0.2087301250529889 -0.021907341596052593 1.8288863566572633
Ni 2.2193911997002207 0.6449373724861654 0.31663031444188816 -1.9554594512945225 -1.9018768900823761 -0.46522389064350195
Ni 4.279405973925752 1.3770979623112651 3.39358863595141 -2.3984828945815857 0.29758230810070685 0.5553433704394178
Ni 6.681549428794993 8.914960540689423 4.788851042268879 0.6060465532212401 0.27543456835907404 1.022609231213613
Ni 5.8762888678393495 9.026319232367474 10.655441407768304 0.5517060307971466 0.18377602621081252 -1.424152038758386
Ni 4.949717897984136 3.990405871563822 9.4870390547448 0.6931038491520644 0.2312493892014275 0.8829631054424792
Ni 9.301485609948132 0.7635527185834641 3.4774111401930368 0.460837074429716 -0.43812472043386486 -0.2685540391891569
Ni 1.6364477191628632 6.931617743111646 4.907948613765687 -0.472373871424722 -0.39405138426373426 -0.25560596366892113
Ni 2.2149040830484217 1.7023394446015228 11.76663116160724 -0.133294472521493 -0.46907180363468254 -1.5472454023771611
Ni 3.4676195441466424 6.2223461028960445 12.806602368123366 -1.0457445316794958 -0.4091990385384501 0.7046193059908317
Ni 6.479275423379453 6.344987751798121 8.02647234427649 -1.3777991625254595 -0.5387787812125173 0.700015231559917
Ni 2.186184674602778 3.563924983488678 7.5526691323920305 0.9774547461641616 -0.5546807971547544 1.9694256836666275
Ni 0.12303543528044003 7.95591848601787 13.346841903629329 -0.011475347629451205 0.3114477532288894 0.8090549452991034
Ni 7.794233336622754 3.1960465836356824 12.594608448815412 -0.605686341668344 -0.8082848999022982 1.6688025318570678
Ni 7.999439793792062 7.264483599961703 6.2686164678222625 1.947488517273904 -1.0010204492992438 0.40840045389655466
Ni 7.626580880642982 4.482946053749268 9.739732611583875 -2.0788464348943165 -0.7512084666042805 1.3318676901006676
Ni 0.7706073596596743 7.849167932810028 7.453191059533537 -0.016453003349700696 1.3572660755691142 -0.7632170610293824
Ni 8.640315487864992 6.230398708505601 8.625586201627488 1.386675896189799 1.5066538541080439 -0.20567385472516836
Ni 0.7328569307494867 6.033151763239379 2.7946525875797676 0.9714532771650882 -1.4024848381975974 -0.08813613081729982
Ni 7.561852826535184 1.8535794801308336 1.4670665130539657 -0.683881559222848 2.579673162343093 -0.9344463609234358
Ni 5.324001144842188 7.379026096400989 1.5931544909695197 1.1993404347625023 0.2733499179159034 -0.6284783998621951
Ni 1.281611747586155 0.31360569991871484 9.056237687752438 -1.6222084861476125 1.2723294255257185 0.9124942821323769
Ni 7.481950498272961 6.878107480633345 0.41451183023444205 -0.29098254339600205 -0.8957939386585604 0.2609332894191055
P 3.269171690066972 5.039692965286288 8.880541004596692 -1.20904146410035 1.6136497979443243 -1.1408547798217836
P 6.441190788063041 6.4877190225561785 10.125202929148292 -0.33089737731306884 -0.10416978724139479 1.6235259194074556
P 8.250308713984348 4.915757313864294 6.764342316643074 0.05308762385359889 0.04193494967088907 -0.7225638062843943
P 3.777900867807354 3.359742557090527 12.635633914319175 -1.0672464103070136 0.6682579937529781 -0.07813839617463962
P 5.356258114133649 8.97553661548871 3.3161160534280243 -0.5343870799027248 -2.7754978921883233 -2.2307310117131713
P 0.1589416778654795 7.799362799849188 9.918114117234182 -0.6383030992621007 0.7552070462407123 0.023058681591676417
P 0.5792094919708912 5.439940046878506 10.405296756612346 -0.31475033523956114 -0.41851671639495025 0.36970072333351167
P 0.42631983596295236 0.22355988139964492 11.780924769298467 1.2096040214720394 -0.8172865891802763 -0.7812803462889963
