# total energy = -340890.2281261054 ev
CRYSTAL
PRIMVEC
9.07851865386042 0.00000000000000 0.00000000000000

0.00000000000000 9.07851865386042 0.00000000000000

0.00000000000000 0.00000000000000 13.28732972065276

PRIMCOORD
 96 1
Ni 6.384341160531062 1.7673061523861426 11.431023420041022 0.07196132082965026 0.3066513602815106 0.5612954742577947
Ni 4.605024127934887 0.26293841289426734 5.863180625195371 -0.0977793103340187 0.43244361088868744 0.3004912542173857
Ni 2.425035752035926 1.5884865699998876 4.852958473011224 0.531480190668575 -0.5168547274459163 -0.22939433827055974
Ni 3.5245260705218344 4.516790004910466 5.209722468583245 -0.36971769261437615 -0.20220800766375502 -0.2677845080129839
Ni 5.215817786023167 4.669699494991783 2.8536662093091105 0.1708451770817574 -0.06914364887519706 -0.19068509462581998
Ni 7.513481921016946 6.382280336791321 2.7828846305898804 -1.3088018094201395 -0.7087459265646955 -0.6105159018465033
Ni 5.08415202964667 4.728383039721678 11.601698663321894 0.3188877544467024 -1.0212959117188283 -0.28975638429838485
Ni 5.800646880694444 7.829114779869712 12.788111258883358 -1.6282420939362023 1.3034048067742843 -1.200695920349132
Ni 1.9718633352224677 6.366447400218156 0.3114267811495848 -0.17012989618228763 1.026449945115942 -0.1495988661084714
Ni 2.635739092016765 1.5391811350636155 0.34185616005206987 0.5410536932896229 -0.5196960535494534 1.1246573441263146
Ni 0.6202834336616335 -0.06813155911733396 4.67411074721707 -0.3805371518273833 0.19435894393298142 0.3251787296617367
Ni 8.66706205378205 2.4582631303947466 1.4553882233761173 -0.29107844554391804 0.8058786044536508 -0.3671944119718902
Ni 7.082370304589262 0.7219374229947996 4.825253557563789 -0.34315639718608 0.26404381002362914 0.39275272005696876
Ni 0.6439502240014175 7.46292365050321 2.0873729597608883 0.580203109795575 0.4567942718189101 1.3708376436059617
Ni 7.399764396065418 3.8425556583054004 3.899645015155566 0.36164879956331264 -0.37761689285679484 -1.2280781690168268
Ni 7.663531677714921 3.868710870614625 12.745512125693987 0.787777523977566 -0.19710822454334442 -0.3336633700939802
Ni 8.19864680410945 8.821215300922153 6.974599209371349 -1.8976204287988672 1.4012111136914966 0.03336109195894899
Ni 6.775298488849165 0.818882384690064 0.5184978058076468 0.625854846196419 -0.33571022532067996 -0.407439375534866
Ni 1.843947007059685 6.452493600241354 9.224569346494073 -0.41513160197280113 -0.051430290755834 0.006694124190723955
Ni 0.08138528853428545 5.2791132182411165 1.439722331546614 0.3854340749083685 -2.177302459580386 -0.42515761875023544
Ni 6.440246678545712 1.9761120819634317 6.974000934990517 2.286877219887436 0.13627335264415885 -0.7928492820735183
Ni 3.5733957365615976 4.545587066154777 0.6276188767528703 0.8536430163221232 -0.8466334177735096 -0.6667227880553743
Ni 5.936325342326295 5.716561640705538 5.113669017422089 0.39322271771485184 -0.32653755768247633 -1.0302924587904838
Ni 5.463062163680031 2.7741774233265075 9.364498370570624 -0.31907544497747625 -0.03196009784636432 -0.08882467224389218
P 0.20643462049878522 5.656352904837861 12.44282705017875 0.5539904559559491 -0.26563120911540705 -0.42006940559405076
P 3.894012702168186 6.1880000370976695 12.643199943756718 1.1813236864701075 1.691403042865403 -0.1790624227852271
P 2.501186366700895 8.595323599194234 1.5122978255564736 -0.24013049374114126 -0.1699990270313782 -1.4078301616699107
P 6.392502748821931 7.920099694053345 5.865253251009393 -0.9040890887878171 -0.402046743764385 1.552232056958475
P 4.585641490558908 0.9792362600867447 12.517156513997056 1.1855662637965454 1.1942033706462531 0.04076689750471689
P 4.247857046133595 5.915989460489203 7.955084673628086 -0.24400231799172173 0.6281667821590472 -0.13408585807453682
P 4.339404828475221 1.2794174801507907 3.8588933605170213 0.7092570618731591 -0.5153938266296737 -0.8517239449225397
P 0.39310984509648483 5.952321692235651 3.6704650739627405 -0.34212615614935277 -0.6728859794432928 -1.7036862311081302
Ni 1.2231942139824363 1.0337073721503853 2.580718729573149 1.199159686210264 -0.14658424765186367 -0.8535319446655559
Ni 1.8942238434944252 6.420791413020315 4.992541605526171 0.7075421360645815 0.25537533571535376 -1.0772354031989253
Ni 6.034981604792225 5.440293238837429 9.267208425165624 -0.7365575494603251 1.159025022972907 -0.1769741727976307
Ni 8.787470446998727 2.256247932788058 10.441808052224218 -1.0762319016350754 0.6301141356934051 -0.06451412052298568
Ni 2.072634892540203 5.434010903912756 7.124387504731419 0.7826761981952586 -1.2922917275802581 -0.39645793682269787
Ni 0.5116898246515595 0.2658653273158203 9.440315803600138 -0.8038379198745381 -0.2541093245187365 -0.30415173378810845
Ni 1.6299935573923818 1.25531401306263 11.565371878686651 -0.360159873722612 -1.85920789045894 -1.5279369318565363
Ni 4.339413906993898 6.957558829814107 1.6871582659475695 -1.8733774970911026 0.8772637410648568 0.30333412298281953
Ni 5.617623944160612 7.953808233902063 8.173302303518104 0.3890624156895751 -1.3617804184996998 -1.700232468231575
Ni 5.301800436415624 2.925661585975492 4.84707196150088 0.010903277176065092 -0.2181907562452565 0.3088342268654423
Ni 0.6469987905732459 7.267526693012254 6.800800955665494 0.5391526196121683 0.16706077033866068 0.46467496011856746
Ni 5.145068889971174 3.9556195299121635 7.108655339715572 0.3999656928656402 2.2310680833376155 0.5325158310219409
Ni 8.097040023073404 7.433799762586516 8.998458852466033 0.21147657744987453 -0.3677346007460764 1.0199825922240433
Ni 4.689908277567394 0.04968673272071751 10.08940174561729 -1.8135199015035222 0.8886506427455598 1.2307726851298544
Ni 8.10934141588111 7.353037260433493 4.853874495545762 0.6094738337352341 -0.49773009080132347 -0.12678701042027843
Ni 7.334217491215505 6.160001885496959 7.05177206523938 -0.44840861885837613 -0.14595972669398735 -0.3952361486004548
Ni 2.39871712639051 5.3404930830181625 2.6286587553003593 -0.25304514492028035 0.17843584494482173 0.5915925825794393
Ni 2.452897725856478 5.344460395680131 11.256294618170747 -0.8232808590904982 -1.0824161760689164 0.4063962789823323
Ni 1.0370845810983311 3.3469684022317208 3.546149286307364 0.07260358239933946 0.9044089340210811 0.37196715077018516
Ni 3.9142941128932147 2.722765772057108 2.166179948990828 -0.14101215288072488 0.055216754381459746 1.205444747888027
Ni 1.0150237807125566 3.459414934568429 8.136576064061064 -0.50342585563452 -0.573930646523302 -0.3246498537414602
Ni 3.4149937426805304 2.502711557838677 7.000389465229748 -0.36794028899897924 -0.3934908837745739 -0.377093416253157
Ni 4.053504118290526 6.889061406394079 5.906855562847998 0.3288556642926917 0.814276598709359 1.1743626817712418
Ni 0.7637185816513473 7.464630412014538 11.117070087143553 0.904872761031377 -0.7852429304811702 0.7716546502737743
P 0.004696317711753549 5.664505414610051 8.178723087020305 1.1865042022297823 -0.8334809395519517 0.48027975653536
P 8.394470451978238 1.6691038158540756 8.08898102204359 0.22080788215312938 -0.021503678399730705 1.1608811023450394
P 1.8329438424228295 3.30521629483494 10.188578207203426 0.33779976085985697 -0.53850033074015 1.441069383339015
P 4.05355858940259 6.319865520885067 3.805398189211188 -0.2236345529686471 -1.141793746696285 0.04771376113619525
P 6.985665923638946 3.9353381191871346 10.574136540464156 0.07738249184522157 -0.7579270162750367 0.18005923948085764
P 6.279157443136172 7.5971041565533115 10.334738726500058 0.21446908441929513 0.5714143078593514 -0.2925231484102446
P 2.397627704149237 8.463303780589325 5.812302790824195 -0.4380779263563294 0.6166137872141252 1.7638094216522722
P 7.090259537319813 4.367657178598896 1.5885936965202794 -0.06469923995059824 -1.3621100339249768 0.7935177688954528
Ni 5.498731663563038 2.8787165658953113 0.25030020704363504 -0.5055542148314325 0.374710003622645 0.3450325311628703
Ni 1.278064780867877 0.9784827430365309 7.1838218429559255 1.4087855836046448 -0.5522071388032812 -0.14297956101974085
Ni 6.8374227921577475 0.49804208752401435 9.385093898041886 1.770161332012229 1.3781228644134653 -0.7824915929882781
Ni 3.04736820736302 1.7776738207155889 9.23935825341935 -0.37821416012116155 -1.3657969958582608 -0.0643004618502828
Ni 6.209352713026617 1.9406059954166153 2.7431425072282485 1.5425958194202916 0.9983238763036871 0.23812786148881568
Ni 4.201638307547596 6.744032070524636 10.439070878843019 -0.2431368846676329 0.5221604559295459 -0.46540746740921785
Ni 7.9099045175787674 7.056296798948133 0.15753227179178414 1.0412535857876775 0.7647211563787346 1.7974433076566334
Ni 7.566282585643968 3.9380889103463486 8.275894103830634 1.0429420292336942 -0.9403809812403161 0.012238708158036987
Ni 3.27788087509767 8.423766831749798 12.526842385573842 -0.7727807934584175 -1.0625191800346734 -0.24471477067771402
Ni 0.19607149142867758 4.690316810907871 10.342525371969556 -1.0776292962032346 0.9589680002138838 0.03292966084848522
Ni 8.761859945810139 2.203819487426804 5.968150089549478 -0.047636885151672796 1.4961436986053396 -1.0607196649320894
Ni 3.609510083859791 2.816129258134188 11.530293390369534 0.672928402645454 -0.18565498840108027 0.024664335515899458
Ni 1.3561672770484603 3.343691056989225 12.475380802451715 -1.2479219432156314 1.4656915527630694 1.1928864516070423
Ni 3.2344764773016252 8.01984537876055 8.050726867893163 -0.3400021678278144 0.6477254210172652 -0.9974808115771016
Ni 5.555935409748538 8.081679169471458 3.8512129337160483 -0.5074969403801003 -0.14322433004069526 -0.6762852349328289
Ni 2.920650243665637 8.347752394864989 3.66818001081167 0.8924031678094565 0.18588613057527983 -0.4062805793400745
Ni 3.419596551649908 4.223081768663317 8.965837919154854 0.2599372440544233 0.1497004246833422 0.6384337113026941
Ni 7.16338700526525 6.0870196738503575 11.502283436694544 0.7068078290017181 -1.2114991816122231 -0.6909559495711262
Ni 0.6133910222818475 8.668160554541998 0.12895037144012417 0.6378107330067144 1.3164639539510876 -0.6300346886057214
Ni 4.774265873116618 0.5287846753208654 1.7366543497760643 -1.8897387120579456 -1.6731320124703573 -0.5238977503356268
Ni 5.933692571909886 5.7660123319406456 0.5228446005503253 -0.12036902270907658 -1.3477391099152853 -0.16926369152725043
Ni 7.963476856293358 8.628959510893534 11.530864429194336 -1.1249015989266369 1.084048569466017 0.01915034767620573
Ni -0.08365219464800062 4.817189109422768 5.4015788037900645 1.1217735948206164 0.225557738133289 1.6017273354751254
Ni 7.955660251712226 -0.07074163323705007 2.581342423806278 0.10916826889725069 -0.06011624856560615 0.10876023482555462
P 8.6085600794257 1.8000977618484544 3.660845475572301 -1.367893216265657 -0.36079545042408184 0.08329294379238558
P 2.004082998008111 3.3833278695342006 1.4965919882447904 -1.849290374234912 -0.39579382087613774 -0.033281130650633005
P 4.948355547272014 1.055740936980128 7.943046557862022 -2.073720426521661 -0.8874067430361297 2.3399424751435314
P 8.540380404159377 1.3911468095119952 12.690874876738551 0.756436290662123 0.7706524342615051 -0.8339658496081701
P 6.286275001779154 7.904983960455686 1.7493969585914853 0.6048962416668808 0.42472310231597815 -1.3749676066139354
P 1.6892853628736546 3.287277141928648 5.917339436216514 -0.1592585006854225 1.2667167073246315 0.17285757952609587
P 7.0840044379511715 4.0354469446414285 6.080242559657773 -0.9380523331071392 -0.11342190196728208 -0.10736412580897639
P 2.3674507080659803 8.535759438152644 9.97324391484531 1.2227906953656424 0.12135066989605553 1.2322081320248004
