# total energy = -340887.655247039 ev
CRYSTAL
PRIMVEC
9.07485300662793 0.00000000000000 0.00000000000000
0.00000000000000 9.07485300662793 0.00000000000000
0.00000000000000 0.00000000000000 13.28196467540016
PRIMCOORD
 96 1
Ni 6.3918364581539215 2.0514522094167034 11.127524028934742 0.46375296252493037 -0.040742214914368545 0.39549968667448665
Ni 4.747082863776739 0.3129472154922208 5.836281213289868 0.35379073697147456 0.1263452948971695 -0.07507672653018038
Ni 3.048025348648117 1.8799919355735066 4.796436452180265 -0.5782017630948301 -1.4033824103112025 -0.6183760213208706
Ni 3.450948824811869 4.2663878968309294 4.854504621983793 1.001956845070584 0.9275349785155832 -1.1559942065663833
Ni 3.929483976727792 2.880921004276961 2.7073952938757717 -0.2921613941954517 0.23917275781356226 -0.16191110781692114
Ni 5.894117066854887 4.463212384995695 2.5888141888525342 -3.7524625860899437 0.18210352360439605 1.2982271192280868
Ni 5.090003411463132 4.665744955739449 11.146012227087633 -0.9687644174790155 0.40440033159822614 0.9191236145234364
Ni 5.760008888234438 7.917056087935857 12.1889787376522 0.22946812893128868 -0.03874035399299135 0.3850088144454918
Ni 2.072542167943833 6.498983248313053 0.0897974860661162 -0.5809235329013672 0.15929038236462245 0.4843233304771143
Ni 2.7720046177698134 1.6530207855209933 0.5075465496850197 0.6002643993218243 -0.5716181963400414 -1.5913997282968722
Ni 8.189973219065333 8.809894581761238 6.7939903867776135 -1.2734267723549553 1.0095392854035323 0.8503954559191031
Ni 8.759737868861306 2.219799808658004 1.3329253082680923 1.1421048501788007 1.014383500869711 -1.0614516580021074
Ni 7.206912536050311 0.6836958001078067 4.767096544730152 -0.15602122469504742 1.3411352314455225 -0.42718390515164495
Ni 0.9540030034952838 7.489993502614547 2.5313830737342924 0.47736798220520366 -0.06202452133191254 -0.24371563998923834
Ni 7.85749782725877 4.035124341277842 3.6425788670812267 1.1479651656143197 -0.3108258033741743 -0.003002020051117411
Ni 7.446615704955477 3.7726432911751315 12.50668299112201 0.3786844148893607 0.28654121979519687 -0.15760759534556082
Ni 8.439050711188452 7.481599263527803 9.029039578528986 -1.1029649467545455 -0.03570465249046109 -0.5357497645782064
Ni 6.772653592247068 0.8753666792159648 0.1892596906483224 0.005804265386602907 -0.14938083656039436 -0.13395087515856932
Ni 1.9044395897353343 6.461740051327106 8.980853016229844 0.3518107304269683 0.3905055758940049 -0.6602253532564887
Ni 0.3642273952018184 5.089159450127925 1.210684315003034 -0.22541941278321176 -0.7196332629011606 -0.002556190762950436
Ni 6.30184114029095 2.125838780004863 6.790909474161451 1.6387473643429005 -0.36141457206531946 0.512469196783711
Ni 3.765619354901466 4.382074123725873 0.04495682209268531 -2.4777533474781395 -0.1340192665026595 0.7230003796011807
Ni 6.3703199815326546 5.876575375876857 4.604525089465837 -0.9409139709256505 -0.032604930519214814 0.5098620981781671
Ni 5.182276517445858 3.1410244428761827 9.184637916696808 0.5245839777693739 -0.44664664186194697 0.21739217160336108
P 0.4171383260075111 5.700160232259214 12.148508522915714 -1.5621439167555484 -0.3021280184898603 0.3987819569701842
P 3.9651572241331907 6.2166827191125575 12.298288972782442 1.4672403853074278 1.1591895735752296 0.5338998558536611
P 2.388773572760911 8.440602511062867 1.1142558338010429 0.7120857895712058 0.6484684698308767 1.0359211178311707
P 6.437419445108213 7.914433455399567 5.70796460589662 -0.08143969263373071 -0.3116655256666503 0.3000490244736445
P 4.742309491063627 1.3297563695771828 12.509910916357853 -0.5439819226800116 -0.40877789184063146 0.27051424823932124
P 4.044280868022194 6.216192677046952 8.121363699939467 0.050403649263532545 -0.3663716589602787 -0.27951310930382184
P 5.1402236483345325 1.2319839026360055 3.7566842545719425 -0.15843009124685617 0.08652662023833485 0.021823266522678544
P 0.3726769908922704 5.615745949032294 3.4378501818953207 0.07878888527444496 1.5643712634241702 -1.1918307566490185
Ni 0.6934485446986441 0.3765918825052668 4.876924953970508 -0.16336172422051864 -0.7356988010044555 -1.6456026967018371
Ni 2.112580419674339 6.424750950227027 4.8347277946954215 0.2501518825328853 1.425295922554842 -1.6526022679481216
Ni 6.030711755215625 5.86583982469889 9.213114805620274 0.5483227161472104 -0.29991404155767704 -0.050925840315589714
Ni 8.74380242687609 2.407476844931485 9.927458199505113 0.028332271285789915 0.7074408346000268 1.0137312119976927
Ni 2.542138589589006 5.262988260621543 6.775820715967363 -0.48426290955282403 0.7678447896093809 1.4166086791934893
Ni 0.9783871336856442 0.26170787262142375 9.062324324607216 -2.8364780314161218 -1.232851422035754 -0.5291065482300757
Ni 1.3663461771423235 1.0385261849590042 11.377038928975677 0.2248730533614385 0.8814111875743273 0.056077559719858255
Ni 4.246513968614744 7.003436180587617 1.2086597152838419 0.154404772137547 0.8329042411128752 0.718220184603718
Ni 5.335968228984356 8.151314345000973 7.994334814196391 1.095575339158694 -0.027090685569204957 0.160673121644762
Ni 5.661174663484451 3.2876922181410153 4.764466652311407 -1.155659963155416 -1.1785227266862026 -1.0090240363300107
Ni 0.9597020112212035 7.599572353395567 6.571185501768045 1.0548182118459897 -0.4548903699279779 0.28575574777942403
Ni 5.4301742786703 4.448275176847822 7.192914575194847 -1.4382193154847294 1.1739381926393138 -1.2256145379676828
Ni 0.7679866653330182 7.560287314469602 10.963889908376311 0.9753274154085138 -0.6977747722651725 0.9004208959076105
Ni 4.634327814422355 0.6748369285440441 10.332704838053951 -0.6476827407047878 -1.3038658055711028 0.32356304843518463
Ni 8.31559641006837 7.2962816890516775 4.507500390417361 0.6422428006361391 1.673525391254034 0.33870813160673924
Ni 6.999833463920117 6.325063689288767 7.1796063031724575 0.3462779735341972 0.45675467683022636 -1.766019027709081
Ni 2.4419794362912737 5.326666504590936 2.6907928501901504 1.3749496088918063 -0.0029143454333175616 -1.3842693436308353
Ni 2.34606731422878 5.389745808257923 11.122609088513789 -0.0624639228621763 0.15222884753215074 -0.010743611669749239
Ni 1.1404095603394195 3.654933372046302 3.7959320866003345 1.9687767372287193 -1.1796447561057877 -0.4527810368944589
Ni 1.7229516032533776 0.9136017576421076 2.5605632637704305 -0.41716071658768794 0.7164054999924824 0.4936304668106531
Ni 0.7405842390126564 3.6715040537461894 8.012956412689364 1.4138280311245586 0.27872352352299096 -0.7286979442065903
Ni 3.954203876481622 2.5990197686114023 6.861370263312933 -1.077192465776132 0.7523603208205365 -0.11806737115909344
Ni 4.2963621365104085 6.8409237118682364 5.859458388022351 0.4984895946751673 0.2232298613310607 0.18225187625680225
Ni 0.5718836279870588 0.2533345056967324 0.2385597374187548 0.15081911166881767 -0.31785365675523325 -0.31144569634636043
P -0.005732584682266716 5.913319455944132 7.527899163874367 1.1030847601618614 -0.1518228703429837 2.872089095751512
P 8.937532390145094 1.6769057987926823 7.863945510362696 -3.778717406021415 0.2754661929279579 0.286741508731461
P 1.647630322799343 3.50010730387446 10.47154101512218 -1.0298540857014844 -1.4227705850298271 -1.4142576624628094
P 4.486952200618316 6.042881133178138 3.3091615055263355 -0.4916990541158951 0.5918790034716065 0.7623994502240935
P 6.890908002559903 4.0606882023668796 10.336184136719744 1.6722928043985135 0.2777225930623023 -1.1293046130903388
P 6.431929159002828 7.9339353146400144 10.03344885338354 0.39501091996352616 -0.0621744166462155 0.15304054480016868
P 2.6770907295446627 8.752868205089774 5.56835706631772 -0.24068585202397905 -1.1243174442883928 -0.2184293546186238
P 7.383790497174359 4.081351642799873 1.3278688001392986 1.125979662482164 0.029567172134155533 -0.8775496477363919
Ni 5.341422215677473 2.9258596766635123 0.6116795811406827 0.7398328777774871 -0.6408065824102447 -0.11398111690486176
Ni 1.548315130836818 1.1024040756958657 6.92926740647306 2.2595980724565083 1.0594264000419626 -0.9883603373330719
Ni 6.993916659720595 0.8412842535531674 8.9453503760621 -0.07400946160793061 -0.13084523965005207 -0.3412278127047994
Ni 2.7114481232553826 1.8069484432392264 9.136238095350597 0.6075956428759149 0.13380792182280182 0.1925152058560233
Ni 6.79080329838057 2.087570124622373 2.4377051804968337 -1.0451346660096388 -0.5702025469394373 1.3522897054004452
Ni 4.306407998855302 7.021540512455785 10.26274861073298 -1.178743841558073 1.2258973593154243 0.04881522173049012
Ni 8.429358768113161 7.260835312972946 0.04149839558894644 -0.35493950586393713 0.18511608517847472 0.400713112554626
Ni 7.520512233478032 4.011402675361355 8.13698333703796 0.06630592231608581 -0.33259919049552394 0.17681759261510838
Ni 3.375627544357834 8.413795395103683 12.409605657925745 -0.38959514826459357 1.0286824339908862 -0.5046103628609245
Ni 9.192553911026934 5.238195762043178 9.837034548577389 -0.9658595851273948 -0.9485396057917084 0.9542888495706596
Ni 8.927413928975666 2.5497160918997435 5.473484014931369 -0.39606455803902113 0.48512242933964195 2.4879778534196246
Ni 3.4611126602466302 3.0120435562384484 11.41301981390004 0.21827765953210795 -1.5360186804234064 0.09388948836130927
Ni 0.8246455104552791 3.2442781210696774 12.766438862848775 1.5843155677565812 0.6127121381668739 -1.2108137255094245
Ni 2.940878558488986 8.297755248939136 7.876165707502384 0.5723951837153819 0.5545548130998514 -0.3517297406773878
Ni 6.261657690911376 8.133600231814675 3.380924536092897 -2.13235880499016 -0.17363173868795903 -0.41757774952044857
Ni 3.5124854034575086 8.523174599117235 3.51516520756812 0.07670757726538402 -0.7030843574035439 0.0674354079348387
Ni 3.0752136084361035 4.155502267208297 8.867969103961913 0.23740692416239115 0.8703767841370365 0.33213690614712477
Ni 7.202801627611073 6.045131696738693 11.55716840995354 1.030701521303444 -0.08368118036973976 -1.0865070583088385
Ni 8.183784169273808 8.894308864988158 2.1483308033308055 0.005352265450848847 0.7808522576126423 0.3346995246679784
Ni 4.761030912940335 0.5700986043888288 1.6235211606569049 0.03250774281971821 -0.3989778750310741 -0.31286597373265473
Ni 5.7896473583504475 5.399038457798276 0.34182158298000975 1.4626846476159454 0.9994430775097949 -0.6799940512429836
Ni 8.094914133191114 9.004014763712114 11.078181330354894 -0.8166124459313872 0.5974858081354226 0.6034319984165285
Ni 0.10620300544018897 5.342347850690282 5.49675466065044 -0.4036128026999242 -2.0389184883511273 1.390958839835869
Ni 7.487289196400655 6.294309012245546 2.460085583130055 0.7798189312521214 -0.12872973596894605 -1.6230811185605534
P 8.868790378164453 1.9299217771467716 3.4294831673677755 -0.4052935328364568 -2.008058051326845 0.29018652985726795
P 2.1982379577714037 3.4531630889601566 1.4005302411594684 -0.929601888346941 0.7730975533678879 0.58406799206762
P 4.737064225991046 1.2419753158624989 8.23344993262283 0.7289722809138993 -1.0520028538843818 -0.6278127412537382
P 8.33785702464111 1.773680031896517 12.285206664601414 0.9799338038322737 -0.7829873016777741 -0.4399471183545843
P 6.484427183993984 7.9564409502455575 1.081163474607828 -0.2917183931207621 -0.839604021730554 0.42686740235249065
P 1.9552769166152746 3.35580806526005 6.096554351641438 -0.6213207057714913 -0.9813905908834583 -0.48130742646892594
P 7.274547415956808 4.1457740247207395 5.7328542054027976 -0.6473117305186142 0.006789769228323791 2.2490308384636237
P 2.5211121550333435 8.654406049315524 10.158578372379745 2.139839172527605 -0.8317071354809805 1.1974756136396216
