# total energy = -340876.5031225947 ev
CRYSTAL
PRIMVEC
9.17211623076904 0.00000000000000 0.00000000000000

0.00000000000000 9.17211623076904 0.00000000000000

0.00000000000000 0.00000000000000 13.42431923544564

PRIMCOORD
 96 1
Ni 4.221695860739807 7.708338315842357 11.805319993130825 -0.35269596124539904 -0.37300587644734473 0.9849795937862973
Ni 1.2457843612911037 1.3480534587811885 12.563766881561664 0.3685640386259072 -0.37836765497989033 1.3426359843607651
Ni 1.6185024819733542 0.6328209966126386 3.5271731201159082 -0.2580073740215621 0.34966231662539776 0.9843026223239307
Ni 6.3018859921536015 3.953961783992221 0.7053128183178301 -0.6044079891765527 0.45910877888469964 0.05316758516191489
Ni 4.619022769634245 5.663726823815471 0.16758373813823693 0.9529804151718814 0.5088357137961816 -0.29756353904762944
Ni 4.764529223677537 3.1891081722791546 10.353586765362335 0.09942095970249974 -0.48346432491092867 -0.3176788217402658
Ni 4.1290574854348865 0.12904617401139024 3.7276783355295855 -0.7534944344249798 0.3244922451176734 0.2709423369156753
Ni 4.442221054547351 7.461158951872823 2.2904040320017556 0.9057772751235174 -0.11817021528554487 0.13822096328883293
Ni 3.7587332871243775 6.8680807354776325 4.604353803928785 -1.0204986126285134 -0.782658971804078 0.1316962747964377
Ni 8.061061222844932 6.350278078104965 10.82131700506524 -0.3557884841277937 0.35462608838857634 -1.1771471864949148
Ni 2.873789155820487 4.300007390279748 4.57847192596488 -0.770784331853679 1.4800614483314962 1.150365033305064
Ni 2.4286296600730632 4.413072068733585 13.38312029151476 0.40856526160919315 -0.18158493209676468 0.09791583591188299
Ni 0.4256256395209999 1.5638550126598183 1.615562818677787 1.7147427460326081 -1.0710465007793941 -0.017880994045478882
Ni 4.670212351077489 0.7557053428487965 5.974103903975694 -0.1982629069730779 0.4033266389180731 0.5865506492801575
Ni 3.0553236829526633 3.1243530307293788 6.8505913439893735 -0.334076803482315 -0.18174202649991927 0.4556128499162992
Ni 0.7049780360704411 6.883535751555731 8.6446573053401 0.6047471176835263 0.025660123770265487 0.7190025712956972
Ni 6.227977078469736 1.848740947013364 13.19446820208193 -0.138523067910284 -0.3203586825652741 -1.2039823044098878
Ni 1.057471640163845 1.6376905494127494 9.105003991367711 -0.7950732863080308 1.442251576572574 -0.8431585718510318
Ni 0.0718103334591366 0.0707482023838584 5.200648681533821 -0.9354303221032598 -0.3306335821287209 1.5763029818647496
Ni 7.936155342161526 1.0934263363217942 9.019558389717655 -3.7654993646692443 0.6893816631054708 1.7316570052894438
Ni 7.780605420696562 0.03484120123101674 0.9445252820111406 -0.06557264369448708 2.400492983033079 -0.518923694159803
Ni 8.504294574155322 1.2496641665142703 11.230020089889448 -0.21466834491429482 1.119343645222885 0.37592819230046226
Ni 1.710829005321802 1.0313311085183974 6.806626638608277 1.4822332591718343 1.2052817399476017 -1.0751456105494324
Ni 5.666781138565624 5.784881308904847 11.16418722466657 0.8729386313269418 -1.1304922056405369 0.03428308955258612
P 8.765424727118795 1.662693738628711 3.882447709891733 -0.8913592999259746 0.5150032760594743 -1.1509998386755853
P 5.535225473516271 4.024871415624135 3.04424651801645 -0.5293682865318947 -1.5988860093715882 -1.5459719349813763
P 6.327421164118839 1.496201482338126 10.745415907706498 0.11966068378814229 0.717520587433532 -0.33529524927044835
P 1.3977571573730068 8.1136816544414 6.550731929666988 1.803867208905106 -2.5775509737937674 0.09137443524893941
P 2.824323932254207 6.2873757040612865 9.284823332739293 -0.2212819935760705 0.1951001929743801 -0.17809183134184167
P 4.713917485565403 3.8128120852231704 12.42334820046705 -0.17776170169593258 0.22507539918023173 0.6164746905330996
P 1.9353715860980145 7.7659667229751115 2.757717857621606 0.5951962407702974 -0.991441804471873 1.069508981088945
P 3.1379185908359113 1.9996956381785496 9.143747010901176 1.6693200949234348 0.5225782601932548 -0.035474024536893745
Ni 7.550715496078491 2.5245516530373058 2.193452927581155 -1.0040726058620062 -0.730347049774239 1.1359899955303145
Ni 5.923765494931292 5.820588357920892 4.122259112783797 -1.6022839793095438 -0.9255457159996964 0.25278237817719695
Ni -0.06309957454556407 4.8148657982986665 4.995484948217433 0.3129919577875578 -0.882280734663474 -0.025929832491884377
Ni 7.614259918267846 5.621122343291575 13.0476730656891 0.5721815250426792 0.7609753161830571 0.671520980774966
Ni 1.7564052515485493 5.507965943674071 6.909282799409042 0.43416239335200707 0.36117931612606186 -0.8232826588627112
Ni 6.357157165380082 1.1146414414782575 4.18155501067204 1.2657990806063684 0.8296919048231646 0.5665299831838566
Ni 7.0739397152146255 3.431187839548734 4.632101290361699 1.4977814913190786 -0.1401300073860877 -0.2171003513945551
Ni 1.569211528618043 7.222867368662742 11.281167479597405 0.1649054145585547 1.1187324940014476 -0.11887983975805978
Ni 7.618387370632917 4.463683806845718 6.936010346501966 0.36067306591360465 -0.9847690204373879 -0.28790416158099447
Ni 0.8007468546913581 5.089433101739536 11.146695998755039 0.379746794715604 0.13686933435694493 1.1929144766315003
Ni 4.842712343588343 3.2355924580262174 5.1851698179531684 0.2154872412711644 -1.1843925552034185 -0.9916755177492341
Ni 4.819864601718586 7.177208573388693 9.339647823898707 0.008205418628927803 0.3872600723735137 -0.46394785214455586
Ni 3.33518329753719 5.41972101210886 11.298081779389465 -0.318355021871684 -0.08038116946222931 -0.5726085852777687
Ni 5.397946407854019 1.4631451749520932 8.274750438324283 -1.5077825683958483 0.0582236595285836 0.5707908153427396
Ni 2.1635554970718562 4.229207824044235 9.009799257903355 -0.6578146869324671 -0.6354260348246218 0.11789716412981632
Ni 2.173956677031834 0.3693042589705186 10.557663602889253 -0.20220157990585177 -0.897412705208906 1.6315477612706675
Ni 5.457198279583701 9.046568437994678 0.6832346170112487 -0.9647894919916675 -1.4045525193599036 -0.1778750873453453
Ni 8.572645185320894 8.386442050958005 12.208613363721883 0.4533808752619869 -1.4543272767901858 0.45668474282423926
Ni 3.253248782032353 2.6997849362254738 2.838183000084477 -1.7815001540638156 0.7204323617636883 0.26577261978927774
Ni 0.22431602950195195 6.268205980854624 2.258708866684559 1.2926082303794124 -0.42742610306943807 -0.2588910621780961
Ni 3.6686172438203344 7.15492950273368 7.147376264905599 -0.3265020764588506 -0.5492441995202154 -0.9290953810241676
Ni 3.151649249037046 9.092915141996238 8.320809137871924 0.4118943259824261 0.34717528853748597 0.2403950602564376
Ni 6.106217233700151 6.155012892771653 6.8056470565803 -1.142483059453826 0.673332322952092 -0.5566718594428542
Ni 1.2545895930032545 6.678117033404345 4.664937466954928 0.4324788350019971 1.4213315385904555 -0.29620342547530926
P 6.378106279161908 8.631979606097877 2.8907254686918273 -0.7304838324624193 -0.23581952507061324 -2.064331271997277
P 2.51700300126741 2.3039072217169934 0.7536141003171608 -0.3283877235173377 0.5545172749936966 -0.2321474755356647
P -0.10774393374944204 8.554135854492644 9.830763291490465 0.0441304146603111 -0.7716723908855871 1.7457494788267676
P 5.373777881227439 8.669044128336212 7.570229173648909 -1.0933335943123688 -3.536822621290999 1.262914817080038
P 0.4917024830392349 3.1639582292013237 10.610501413643613 -2.4162985826067676 -1.587714051915169 -0.5382779303166988
P 3.127581615690501 1.7622295454414825 4.860475981355971 0.0238472389312428 -0.30349610248198056 0.4364727866527386
P 2.569146482812803 8.636510631583088 12.869438666025708 -0.11894823110215 0.9073510473685407 -0.8161856428066138
P 4.3742098116873525 5.091386762525669 6.0706917925881685 -1.100480232659479 1.640392356145491 0.6857435521322512
Ni 6.745926489704273 3.1118239197722977 8.869837348203808 0.8282263760212316 0.2688605146859821 0.14044676729555813
Ni 2.422291727663588 3.066183468730982 11.157609900019922 1.6713628363850765 -0.6356242668783569 0.8413120055605963
Ni 7.571004217481905 4.841446591529722 2.5749322538169954 0.1729822780294182 0.6189208380807469 0.27072970668423696
Ni 4.427646561640468 4.665598776544977 8.347362414753878 0.9537028951602027 0.836906677404049 -0.17469617539673138
Ni 5.064118060567102 1.7687509201782943 2.1664566374786824 2.1821631301067965 -0.12404672867097992 -1.3863948746142705
Ni 4.029347408411145 1.5317709496086687 12.435846126228483 -1.2101359827161093 0.26650024198392164 1.1349857226355164
Ni 4.526797139565833 0.3388986932144978 10.488810359746779 0.3177446419811947 0.9288711808285035 -1.5055554788375425
Ni 7.822026698209139 3.589094994919972 11.818636988883815 -0.2644850113261058 -0.06592437060695099 -0.3735427227874212
Ni 2.7419124666982952 6.8662830006697355 0.79151511956815 -0.9405681575504576 -0.06360420711420658 -0.2867543642472674
Ni -0.04829577872951052 9.14867243739016 7.735039263797819 1.2239826587912146 -3.817438990961328 -0.8678514466120215
Ni 2.849143679142832 0.26404138269830235 1.7079223616451555 1.504394882870538 0.4167565391707339 -2.645949516972824
Ni 5.799180638320725 7.992719783795729 4.8234655746042 0.8727141740209616 -0.019850716177340005 1.2152997863052362
Ni 3.624159995790339 5.259750130555086 2.4897278788273858 0.23031762141577752 -0.9042384698814877 -0.32988770510163185
Ni 0.42632088594160517 3.9084130541145745 1.3259587476651469 -1.0754646844517477 0.6578717654226477 -1.156509198529589
Ni 7.309965785682102 7.1418225484454885 1.5027320291913047 -1.4915486230354893 -1.096681427738679 -0.27956993068368624
Ni 8.579139043708606 2.017883944933961 7.00161482602731 -1.0431124933732874 1.4037297663482922 -1.580509820857246
Ni 1.2115540230101174 2.611952749896769 4.995162089721321 -1.453686043661761 0.7406718287390148 0.5548247789317864
Ni 0.7794556209690501 8.25983015663037 0.8644563749753159 -0.08849171438450566 0.09242138845621503 -0.6454484520576304
Ni 8.615332214892092 8.355908075572849 3.1759654467371328 -0.27400374944981837 0.06305399103769141 -0.0466233562854939
Ni 7.109811862325273 -0.01535504000969966 6.539603400879121 -0.04280166854655854 0.7581743563991523 -0.16706051322834456
Ni 8.819420976170289 4.572639377167218 9.017867051459612 0.29772320455394535 -0.10602638083415933 0.33890584943984214
Ni 7.2300858242434325 7.216777083395171 8.528402564813883 0.7485028947476593 0.49147562525117944 0.4722085494914512
Ni 6.631917083264654 8.383699588164324 10.691799384272592 0.4873492617876316 0.7686690852828891 -1.2443504238142893
Ni 8.57312213537197 6.944135924391335 6.475945244446816 -0.11987974177748388 -0.2405848076697405 -0.749398152868419
P 7.8509830695792004 6.47030439288122 4.328765643936287 1.5638261895539778 0.8753539256366538 0.12542946795111945
P 6.321275846153068 2.368974215223241 6.501088767043191 1.364883740015372 -0.23136611728494993 0.2914240018087949
P 6.649298243779786 5.1406777158809795 9.175871431264339 -0.4745701077450924 2.2522999961331984 0.020159762777326572
P 0.6578984799711715 3.686833066924846 7.144785142031972 0.6127090528430802 0.6849169424658978 -0.22944961698852742
P 0.6969019876094529 6.123378263422477 13.239895860023534 -0.15418751392041832 -0.3006606899157145 -0.047763640537524195
P 8.235056270323579 2.3202794494317738 0.15456208453225725 0.8552579262177271 -0.005019564701778452 -0.8437272998703083
P 6.302243704691907 7.460828755683618 12.502444863167991 0.7179340208218667 -0.6490816779348434 2.3025046420120474
P 1.4359131614589935 4.511571426396905 3.0228076132206363 0.2371421005367787 0.530590331864454 1.2765041257286984
