# total energy = -381163.55484096054 ev
CRYSTAL
PRIMVEC
9.37020615476354 0.00000000000000 0.00000000000000
0.00000000000000 9.37020615476354 0.00000000000000
0.00000000000000 0.00000000000000 13.71424386245429
PRIMCOORD
 96 1
Ni 7.810909950446045 4.8835920304985905 3.5794177233164914 -0.06860834519701732 0.8304359820780408 -0.1746136429852541
Ni 7.244490372962494 8.00133127509361 2.995697934648175 2.0716465747117674 -0.14010609612668773 -0.42879187306871314
Ni 1.75761637490243 0.5798452085215898 0.8432220194192043 -1.383328834094437 -1.9384786004658097 1.1974576159174926
Ni 1.2963117673970508 8.847264095084634 3.0018832075740614 0.9450084527099983 0.06826973091067597 0.06866619501814625
Ni 8.690659843591929 6.415086596209256 1.2803271331230481 0.03413499401049605 -0.7504749308723656 0.2667347265922309
Ni 1.8203873843411686 1.8380783331126778 7.421284607144803 -0.6338877438032244 -1.3781146368833492 -0.23721949074193338
Ni 3.5268518051420803 6.5279788370986305 0.7681488666318883 1.9821405601301345 -1.0891270124301886 -1.2296426852904694
Ni 2.027600117992201 1.8169110379459197 4.038598105140461 0.5109648443240427 -0.560756313924873 -1.2950461503969437
Ni 7.026764268272461 2.2105252779060764 3.261699340223173 -0.5242844442510842 0.07572978673314698 -0.2903343682890419
Ni 0.043342824490196885 8.38354197445264 10.882101760127215 0.21848669021912048 -0.35437592005098323 -1.273976217100522
Ni 5.918821750427129 0.5271677848967651 1.2851068751613672 0.07895574986961242 0.2545762368528261 1.3525745836307157
Ni 0.1481345223642277 8.097769434392536 7.728579573175924 1.0156353709989412 0.5037115051957389 -0.7295129839087178
Ni 5.656334172071049 9.469811206011691 3.869254121682849 0.0017334377513389503 0.4959035791155459 -0.13949443068461784
Ni 8.05397309193595 3.949138875208602 1.462884980964973 0.5357207111124838 0.00656016971602096 -0.6633656986576834
Ni 2.0543145750618894 7.560519307928957 4.835299863242975 1.4759831644970645 0.23467152750909906 1.3298185208811226
Ni 7.620441774768892 5.955674770299133 12.548326768637676 1.6477698795564846 -0.7775661306622028 -0.4133940504564042
Ni 4.135446679458555 5.7895035385650555 6.96554683897478 -0.46148910619141814 0.20180871534280725 -0.527295463163266
Ni 0.9012376493550079 4.558661399910871 9.459427143814347 -0.2777735009048958 -0.7452414503875682 0.21595801025999578
Ni 6.607569366158587 1.4222473349230467 8.189364134252905 -0.675501819799585 0.3720100881929787 -1.9215707689668775
Ni 0.8339970516938067 5.145582987941065 13.430564451454554 -0.8742833182802943 0.44358985731349415 0.6782582994987996
Ni 8.46760209173506 0.6653099196709837 11.99827600387073 -0.12732231409845815 1.5816418775791599 0.8448711836667643
Ni 2.034365406664356 8.623662871284573 12.129151543956228 1.3003997013993733 0.5556878982630301 0.002122188549325378
Ni 2.0652402351612427 6.27016699149519 11.730670419042722 -0.23939670089891027 0.5068001714233916 0.9111071719768631
Ni 8.929234656447537 5.786608144936667 5.588938028991623 -0.17389347698977795 -0.14673260030426988 -0.2996024238545292
P 3.2306970769258134 2.9734099628537307 9.79645471024106 -0.09965672986238965 -0.3751517191457539 0.9517005200181934
Ni 9.152760918600263 1.3027303584502732 2.5474891269325526 1.1145271976708484 -0.7424636305321148 1.7212630636496293
P 1.3928529989610638 -0.2371083756295804 6.029110948112729 0.9746033927582958 2.1978360607573633 2.2844590973642465
Ni 8.445685180094932 3.084596826266191 11.194909218299374 0.8859579264047451 0.9763031490582219 0.28230404178539764
P 8.638392834986275 1.46475058896307 9.101855400914365 0.8949645007787296 0.1948785638818773 1.0672132430762329
P 7.411711067759288 7.172836408314333 4.979614152654796 -0.40055627526178755 -1.1241109847045416 -1.493739202928905
P 4.161805068703394 5.20953464332536 4.729000499236881 0.11972033338148415 -0.3125615551183585 0.026434025821812538
Ni 3.653180921316595 0.10326341728894971 5.341916912522329 -0.19393651168358214 0.19296154936482252 0.06617788137865377
Ni 7.0501804128593255 8.067972179576117 6.783641157464686 1.438808098108664 -0.8438329722102371 1.0434091986780998
Ni 4.949136620888796 2.928742191246854 11.611890877775627 -0.7282780830603522 -0.9475057652105552 0.053440893427959574
Ni 1.284880116178173 2.2544809138632527 10.448333376750455 -0.8915300211758839 -0.6642576143443334 -0.8278142281844776
Ni 6.60246260393376 1.8953302912662369 10.308558015084882 0.24258281193637576 -0.9563655295940304 1.5669045713689853
Ni 1.569593822969645 4.744285179128876 1.9241633518937846 -0.5201794209437751 0.174327479203403 1.4375533997659564
Ni 1.9648759595830478 3.478707687139955 12.315719839930676 0.4802527599521664 0.43645427470997733 -0.7125313617490567
Ni 3.483533343187268 7.5715948913229845 10.16470942490714 0.5183714212007587 2.8841000041694587 0.7165759641320756
Ni 3.0347660711989852 3.15872452527647 5.606163278529052 -0.4123776933767479 1.1948710861372391 1.3633333648091166
Ni 8.989100902051971 5.8125167642974835 7.899294417759211 -0.5208612775021481 -0.09303999587682041 0.29709405561037866
Ni 1.08030041038985 2.6640807251180036 0.8656749068377899 -0.7959762577382744 1.681349772394459 -0.3762462377615133
Ni 7.556443268355012 3.343439394520515 5.283741052065343 2.1871112181406915 -0.552646540333545 -0.094638707822508
Ni 3.6888158144193746 8.945154636300712 1.0395699993093441 0.5619865867875483 -0.2492987905039707 -1.2193672715063901
Ni 5.666753841050878 5.860810805594283 13.576991722300685 -1.7611179908630379 0.6798318146335065 -0.7078761223652326
Ni 4.106324079468169 4.886047024448875 12.22617908920734 -0.7658370151507327 0.9108053244657281 -0.6147471663190317
Ni 1.336772316547144 7.006206036490316 9.486306516508176 -0.249547416179667 -0.12335407347932949 -0.5257823689528494
Ni 5.457086113449562 6.406578449236518 10.779751937915183 0.05556333908760109 0.5884720346725866 0.32313110310408866
Ni 7.671190810015976 8.735027768609458 9.145713586730002 -0.40978756405206845 0.4511887527066746 0.28357545229865355
Ni 6.081619708031046 5.639842609656929 8.463580399355434 1.4815881693886677 -0.870441575936701 0.42626833531591096
Ni 5.223580581995112 7.29084478163445 4.8902664281733506 -0.4664600770434483 -0.3319319892251703 0.40959395998402365
Ni 7.96952879621093 1.7889690839010897 0.8373469003091745 -1.5768058896430974 -0.4943254359951486 -2.7149687244550145
Ni 4.728515122570375 0.33361306339051666 9.246431119071273 -0.5428056429837232 0.6859512972676831 0.8607829698010143
Ni 4.4911771768958255 2.2609557261519777 4.29446469599551 0.6719812082408362 0.11742099582434617 -2.3565597719852382
Ni 8.036788134283965 6.5321392085258285 10.33874319642627 0.010898134969742521 -0.5334925931129134 -1.554385355856052
Ni 0.29610225506313076 1.7446386397072289 5.367164932365989 -0.15003004010861906 0.5371175914600105 -0.3280007724915641
P 0.4517507455522912 3.9960180154119174 4.119017897424081 -0.366572205006859 -0.26631666521820585 0.08977700885483247
Ni 5.425358596214218 4.069264915065988 2.6188722926297094 -0.5354538306043424 0.5324435830231088 3.5197175861795964
P 3.840809924600861 0.5440013598268583 2.915140400337573 -0.7768199965247976 0.10023548518399511 0.5766889259947294
Ni 8.536285701107497 0.7656198480548595 7.011146009049817 0.26638557078292835 -0.05038179488666162 1.2486595927126043
P 9.05994902899126 8.57015899549786 1.5021489548194507 -0.2828177481970226 1.073215226295939 0.3650238866831326
P 1.632055615613119 1.4134580817727949 12.724445410973361 -0.5436980728910056 0.07055672717263978 -1.9238454239336675
P 5.437202536493449 9.269354390826898 6.9779445584237125 -2.562659401393916 0.8126807149771487 0.09333335874752313
Ni 3.7880744056993505 2.078461595710289 13.536520865924082 -0.7506572220865008 -1.2452734498491909 0.3497425350440299
Ni 6.054361779018165 4.146297377910572 6.635471965338565 -1.0721970694440697 0.18409458589249586 0.38025870135501605
Ni 5.148272237039276 7.707462877121119 2.249355411226592 0.03877712076819773 -1.2646752514145705 -0.20802641411774495
Ni 3.3754011669037864 1.07497813342893 11.331941920693007 0.20593019371034857 0.3447630795515675 -1.07061841210304
Ni 1.619190322888923 7.256259351594387 1.1269902724336394 -1.6059187478486536 0.6848886603311237 0.522274612909907
Ni 0.7322206860839028 6.408068311977338 3.3556974979012817 -1.1495517933751491 -0.18849965693872694 -0.2690860004332269
Ni 5.005048639596207 3.4893522410617948 8.70117977377507 0.9031658056425994 0.010729984822994424 0.7521975699904271
Ni 1.7084321640435052 0.22369398883864175 9.361685588872351 -0.03184414109379032 -1.0443736194738982 0.08185903955933643
Ni 6.898514259884939 8.322560674344071 11.468316834631258 -0.4377881630300525 -0.038805917123604136 0.4246328565950171
Ni 5.216805923117039 7.632969740080073 8.439348109833189 -0.14903913695025944 0.2954475211458912 0.07276221946439082
Ni 5.471872298386765 3.7197843449754324 0.5722937595729887 0.597210442986849 -1.6853457809277297 -2.180211919917697
Ni -0.12188107942566109 8.310950989212769 4.873630564588108 -0.4656681772697722 -1.0740744889724407 -0.42296703885682
Ni 3.2267334798228746 2.443356154534495 2.137432986649638 0.33376004357284456 0.4527285863899687 -0.31731012554693744
Ni 1.9125714701537242 5.250669847301485 5.162068928231633 1.102073802398844 0.09165571393478408 0.48334579705519337
Ni 0.6367448469326655 3.7804470580828204 6.618617775955454 -0.4139458091948161 0.3224687869297414 0.24319704848160698
Ni 9.500920289656506 7.980679341252294 13.160956453622061 -1.5956392202995167 -0.47131457692227213 0.4864126089059752
Ni 6.409970463778513 4.320611318586621 10.53496655257771 1.1048199976854134 0.6621385111188015 0.00652931647808553
Ni 3.0285723650877734 8.373056714031392 7.568150403627853 -0.5571850516338469 -0.22754365821506617 -0.11425211117806129
Ni 6.904951591349995 7.732462586507976 13.989351059198025 0.2254420384910311 1.9758143608017908 0.34027007677722043
Ni 3.1912110291911002 6.643035595554859 3.1783860283523477 0.7342528125865483 -1.1623700281857399 -0.45595223553358893
Ni 5.6072155526535425 0.7487956433306835 12.765766145026646 0.37099655932679976 -0.6169020078785054 -1.1918451548267215
Ni 2.7713976934866964 3.9410711279139683 7.92369255992619 -0.23353715679433973 0.17568347901066517 -0.5467605138664132
Ni 7.975788093763561 3.611736500545205 8.655141141042522 -0.25906769696527643 -0.2260328779974946 -0.19247458242607499
Ni 7.695112945722364 0.5057503052320205 4.8842732444687655 -0.9652399492655247 0.8261584377486094 -0.9013768320629768
Ni 3.2004687926372073 4.153756061820594 0.5020115930710924 -0.3817774519923877 1.103379665694461 0.2779527067952374
P 4.8184222483450725 7.808764173291026 12.52536976414075 0.41428210948831234 0.27696977405667783 0.15462151613404337
Ni 4.234002505294748 1.759846483910703 7.312695164812567 -1.329741902006916 -0.07839087850507791 0.3795801872307527
P 9.543742130697712 5.272043286998419 11.334163596515952 -0.6081846826101655 -0.2082650124911123 0.575674368687286
Ni 3.1264816467156855 5.446019900261452 9.943443256421624 1.280078473343518 -2.663616081014651 -1.0954493551037907
P 6.839847400637895 3.212603209299869 12.721606238580476 0.9160789141598418 -0.6936252688731731 -0.42459017628253976
P 1.8591050751906788 5.959591516372487 7.49471047773189 -0.37393635868141406 -0.06431460291766988 0.3130006995383061
P 6.677255587564154 5.6314562753611135 1.66939401215163 0.020078258807113808 0.8119836889101242 0.9963996626977808
Ni 5.938902101707502 1.8060134884643178 5.87861044875443 1.4036248653393115 -0.4774271175779132 -0.3174111699011759
