# total energy = -340894.3217363527 ev
CRYSTAL
PRIMVEC
9.07276866163277 0.00000000000000 0.00000000000000
0.00000000000000 9.07276866163277 0.00000000000000
0.00000000000000 0.00000000000000 13.27891402581535
PRIMCOORD
 96 1
Ni 6.382093933911183 2.0840331016232745 11.503376964927613 1.7630704866037186 0.3158595091433399 -0.26371213771582325
Ni 4.3538946504844835 0.34048195415977267 6.1053790268448145 0.9724300392560608 -0.9027788546168258 -0.5813387660619149
Ni 2.5355122145738687 1.5130837712510852 4.9091617002663614 1.0812272979671378 -0.3712958357347735 -0.02643042627738674
Ni 3.278835076294243 4.083272107558349 4.626639313994983 0.9149735969108049 0.9489170437357851 0.6082034516632429
Ni 4.8636481563952 4.571187459358056 2.4851882887709857 -0.005880627150493098 -0.9517627407146962 -0.295229234487498
Ni 7.100357808654153 6.110101402920752 2.438619581907258 0.6422152898323134 -1.4545270515058177 0.4627672015728933
Ni 5.06790339673636 4.567748880044358 11.472357168955222 1.837272009617797 2.547670641294567 -0.09894530561766185
Ni 5.83092323916924 7.762034825403618 12.567509296570574 -0.523696432958098 0.6198256092832035 -0.44980292810274153
Ni 1.939340587388797 6.475824706707545 0.32054273052463894 0.02732799839099164 1.6162211582159263 -0.573642940079554
Ni 2.884069840098083 1.7201969337131278 0.4070334339480949 0.1288608622301716 -0.4884772047444878 0.0031925387953686954
Ni 0.48176492194019227 0.07467977321086232 4.667405078038019 -0.05800408731860979 -0.7148561532274914 0.9037566451490628
Ni 8.695141861487974 2.429487840273386 1.424229611597501 0.478700327863382 -0.15813158616983086 0.08524672508464673
Ni 6.778401540775756 0.8615029314416841 4.925388346974937 -0.0686289140223076 -0.8721742423570916 -0.11966402622225197
Ni 0.8287692894736272 7.545277309879671 2.2881957997243285 -0.26165216986300105 -0.1584527169546755 0.5202742946504265
Ni 7.807525687353183 3.945356951496253 3.837579718294961 -0.06274700132023388 -0.3029955086964782 -0.6746494991016188
Ni 7.743499159076741 4.0411200244674665 12.759190586856706 -0.3329180072875234 -0.9128331535290344 -1.390235074295967
Ni 7.8338548619398685 8.820981162493254 7.130072940496439 -0.22045512679940096 0.34272368052403557 -0.5317157037181487
Ni 6.934507597956496 0.7531123790804816 0.45249617031488343 -0.5047569157411178 0.029187163086917475 -0.5397835683279478
Ni 1.8222474353502862 6.512052271877992 9.528683427265046 0.43695872515022166 0.09332744521025217 -1.106450591310301
Ni 9.257671662564354 4.974771426670087 1.1114794820558063 -0.22424004776312995 -0.03267666429741469 1.1761447133723293
Ni 6.459883852211059 1.9445574293554901 7.237645129126518 -0.06456862791000492 0.4104442237994609 -0.9918369830277627
Ni 3.2111703677940713 4.520162208539476 0.40459285918454624 0.8709321424198743 -1.2849746250935548 0.1460096060953163
Ni 5.794677528461518 5.418212066607655 4.4864541512197285 1.073655399157151 0.2931785226060563 1.8501357529543427
Ni 5.331467325662342 2.6466082665428416 9.3444780983364 -0.22977820397253976 0.5553873363034757 -0.08131782234388577
P 0.2584514237986235 5.654385307016338 12.230318035595705 1.4011352661482386 -0.18117201292906215 0.7364991854185637
P 4.0100730101891635 6.30605505995839 12.557271584439762 -0.05366766472678499 -1.4017556733410568 0.4629240388657318
P 2.472910110973549 8.660411303142753 1.2923360520802656 -0.2013708564744403 -0.1332672188279834 0.4207515192627399
P 6.248397615265631 7.911290942262872 5.720516717616735 -0.3944043967277788 -0.2707646736872305 1.1194729717118979
P 4.86377517515613 1.1191713753068717 12.631886033716432 -0.33026385749412795 -0.1861409268985633 1.691846815271041
P 4.035921328038048 6.159030844184016 8.26721293409033 0.03530176062508759 -1.2719720421862997 -0.3668506554792263
P 4.78875245129076 1.0147075172120776 3.9021551490739865 -0.14959140990930364 0.36262633298523356 0.5016235123184587
P -0.06979045819199099 5.781367776869971 3.376030739433353 2.0013814106376175 -0.4786694746254466 0.6603868185350176
Ni 1.420713913750382 1.0440669965237637 2.6640152804511854 -0.6930819947751935 0.631801550698157 -0.9049439805889447
Ni 1.691399966056981 6.616425402286408 4.750664061272717 0.35664363303923735 -0.08470859319298961 -0.6258368484742899
Ni 6.1579239664102134 5.742418381108208 9.068860996275198 -0.8733854890563733 -0.9869341464095067 0.8544099763951349
Ni 8.798516987346241 2.177609637352796 10.21643830290993 -0.01762619772219545 0.5652439173825814 -0.27662627467433004
Ni 2.3820463330667088 5.342136901580309 6.944327962729972 -0.6404453424160841 -0.578605683401468 0.5139905185242438
Ni 0.6235078790905448 -0.027612064072059773 9.388072751640681 0.34270336880906144 -0.29569768948348435 -0.8579221033134515
Ni 1.703040328219185 1.039966105099511 11.494453896972407 -0.2920847753212453 0.6954641218541249 0.34869455339548977
Ni 4.166297013362192 6.933083173280372 1.8273109475270022 -0.3820507602584324 0.29687114096629513 -1.6289604601594658
Ni 5.692962719263956 7.800775547486714 7.936381683930508 -0.7104958193762667 0.8488057428344801 0.2711881343778942
Ni 5.641148137573894 3.003721512892432 4.825929028060713 -1.3008365318264759 -0.32185506460514246 0.06357541075880019
Ni 0.5605519375133539 7.444496995851795 6.8702578795715645 0.8240154232636776 -0.77751650837119 0.3274981218235328
Ni 4.752524886120315 4.473201558070599 6.903653833650176 1.1462191294574904 0.581912636287514 0.13205108703269516
Ni 8.083120107492793 7.159385241411209 9.21677434337607 1.1259331255149447 0.1948644228144902 -0.6344099348552816
Ni 4.731666591022179 0.316378329719922 10.606465739323468 -0.03242803862171834 -0.36174393038028024 -0.6360065899184401
Ni 8.00132909822368 7.214003308610328 4.6694772983948765 0.41810945365420255 0.26160948955052366 0.08185878244902031
Ni 7.047245821048897 6.144450904983187 6.845452930116018 0.5830002129247379 0.334964605403907 -0.43669210175239626
Ni 2.2786439889025285 5.3320479828551575 2.529367228375536 -0.5216675754535274 -0.2566650010610548 0.7493708991749094
Ni 2.333008018579792 5.128400618012726 11.429878466193383 -0.035581753759351624 -0.16834657902961975 -0.1397901075481657
Ni 1.1608063105854032 3.2066158379379317 4.099267398666662 -1.2733370408546265 0.3451708565129475 -1.141453332637731
Ni 3.453295344429104 2.380875945912442 2.7817598572778848 0.735231888670366 0.9457766983345907 -0.19391465730671117
Ni 1.1136460592064956 3.474099202915413 8.321961649157831 0.11008126762982332 -1.1246606865604243 -0.2362357866724254
Ni 3.7639106515103418 2.3546284262434964 7.134654688658491 0.2957516826498713 1.2820507665785403 -0.08913089063040135
Ni 3.981012932242522 6.890105468243457 6.070880731376719 1.06314035855844 0.22137018241450263 -0.9688904015339185
Ni 0.9310928814467813 7.667478430661222 11.477177530932446 0.5457518700962407 -0.9984413757181578 0.9557577208067025
P 0.4480713810502638 5.528482496630595 8.080564308567546 -1.2454148605230615 1.08662250084078 -0.16653060886680354
P 8.807381082305302 1.532091221547124 8.030077980206046 -1.4146379286203636 0.15618526107673747 0.5218082147964498
P 1.9113510961414077 3.0353038205203617 10.53093584769125 -0.18358550746656124 0.8201790802367229 -0.27685767395884575
P 3.977166078340126 6.174200513346296 3.8244731967209 -2.0893496484184855 -0.22884206531151557 0.24056989527140502
P 6.831341145776896 3.933081495529408 10.261294071054856 0.9319107389857757 0.6111424796869088 0.32814809670270584
P 6.370126952078021 7.72274066443362 10.408212135436168 0.6471896031184531 0.5811243360582637 -0.9410687513359599
P 2.331238828695435 8.438945020695826 5.85386282739287 -0.5180960560521851 0.4420533660643096 -0.08768824464660382
P 7.006726836312806 3.8332266039025793 1.4793376083030578 -0.8180363228621073 1.630802655574527 0.7765652002015142
Ni 5.251799344254457 3.0717400593694753 0.41101456482632975 -0.22512219325776714 -0.490626904097639 0.11468199962662828
Ni 1.669489229796869 1.2007809292032303 7.109331684113729 -1.1045808850914136 -1.2231809888255256 0.056561955555444514
Ni 6.975843131869982 0.6668076674140991 9.293633395613712 -0.34024153753213016 -0.5887623122194957 0.09563295341497723
Ni 2.8005368592505255 1.48495818847413 9.194704833664797 0.45004666868243137 -0.4470418204178365 0.8899030270954221
Ni 6.3948956104590176 2.1101898936058427 2.619491575638402 0.05858592796400877 -0.43081918791138707 0.1621682181330497
Ni 4.37610478810964 6.828147531216416 10.359797120154663 -0.9789806958903849 0.41005547300147444 0.44381560017105504
Ni 8.291240347273623 7.276768722046127 0.24624582815028875 -0.44243414644249607 -0.2414322432717003 0.44341630785010727
Ni 7.608659671582835 4.05104563335714 8.044817600134898 1.1529844732057821 -0.6018060327773312 1.1918991479931087
Ni 3.400664213561647 8.390813983072682 12.54861344132878 -0.3066467322958203 0.597846533908951 0.21616755516764058
Ni -0.015123398042227915 4.654257729005089 10.163016933894127 -0.25275641003526794 0.41066071068564114 0.5711240303124422
Ni 8.561617925446539 2.3553542477345144 5.92919402539192 0.4456441687393615 0.46683751498752507 0.1745046282112156
Ni 3.9356127979793336 2.810426177065649 11.488876866090795 -2.3765125609580813 -2.4033721043530867 0.0292943780887431
Ni 1.1353209034820266 3.2607167573247007 12.665255676765995 -0.22899813127340565 -0.012079556872353391 -0.09356347248045822
Ni 3.10553612254501 8.164856680150079 8.080750300324619 -0.10970511523732719 0.6728003617080219 0.249357411656048
Ni 5.650302561129361 7.744959874827415 3.5929424920241413 -0.14770370596828755 1.0636892890833745 0.6550006145224397
Ni 3.075423603436393 8.583265551416156 3.553902368576 0.4142327443076157 -1.0122913942273728 0.427388050742651
Ni 3.412703777543911 4.048586913056316 9.236029480255917 0.10778167296236922 1.2215786773354125 -0.400597155802052
Ni 7.4133320355812 6.133672455841568 11.544594552848809 -1.0855256682321757 -0.35604765132645133 -1.1395275763699277
Ni 0.48198176111063395 9.235171196342788 13.600661752423152 0.5042246973867316 0.6446542382911091 0.08482352150429909
Ni 4.642717167297899 0.37914283587885694 1.777674737586859 0.2719280978677123 -0.18140829730958435 -1.07826050202933
Ni 5.8379999987066675 5.582910035688322 0.46072789329989355 -0.060536623932476386 -0.05536253593070466 -0.8073469614690612
Ni 8.113477591354629 8.854677425213774 11.29484482145063 -1.0748720451730713 0.6763099175231772 0.7327173497786285
Ni 0.10681189061823793 5.001009873570395 5.7952364110096015 -0.4152326463270397 -0.25104996886712244 0.2394419523145489
Ni 7.845059731207462 8.963759322545172 2.629556905165097 0.20778138798647444 -0.39019498663212154 -0.08920596684271088
P 8.465773197557587 1.7083932617154443 3.689718993252189 0.09118571627690102 0.5247369584074705 -0.12768818207830912
P 1.713102028638425 3.258103799957035 1.7206551085293331 0.2823557209589395 0.21103383348550106 -0.3647876023026104
P 4.865843766405532 0.822338511063206 8.333036777833906 0.02296149389217981 -0.3961728014821112 -0.6574120521774097
P 8.5620171272666 1.751352821215084 12.319738336012284 -0.594801319324724 -0.7104860491842538 1.5605534323399768
P 6.336476053200689 7.750321881092312 1.391616637452326 0.10310097965724824 1.1848844072381723 -0.12683149050496867
P 1.8625486736390717 3.2369823945684058 6.217785186605075 0.411634130342504 0.41640712625111514 -0.842880892709613
P 6.998452471315199 4.118592395865021 6.037085575478048 -0.5084256228419567 -0.27269840037483356 -0.8543469843676834
P 2.6302047008458307 8.517669434165388 10.368135901809598 -0.33373099010712204 -0.3923503424122275 -0.9361612867320136
