# total energy = -340869.1158678052 ev
CRYSTAL
PRIMVEC
9.27881194864676 0.00000000000000 0.00000000000000
0.00000000000000 9.27881194864676 0.00000000000000
0.00000000000000 0.00000000000000 13.58047920352714
PRIMCOORD
 96 1
Ni 2.333723214875634 4.754490962510267 12.48761688614087 -1.75201268612766 2.3801781827351265 1.125255896942262
Ni 1.6485386421162864 0.5326399801774054 8.515259232780434 2.101210404411814 0.06265109917231791 -0.22572280295624353
Ni 7.246557099412582 2.1008714347256445 5.851040518366392 0.25344263746901513 -0.3206805846810671 -0.5833313710119115
Ni 6.997161197963233 7.420859577600172 0.0711888992893704 -0.003026702641465755 -1.013117489673094 -0.5894374839096493
Ni 8.652343469272083 3.6380828938078777 2.1911153017662013 -0.7876096309411339 -1.4504564809808698 -0.06058136112748277
Ni 0.532000670049797 7.754145215823223 12.193966620067199 -0.06240478748946672 0.05955549096612969 -0.5190756463566351
Ni 2.559291127824279 7.8952759421066 5.974351286738708 0.5820982699357589 2.698164508413482 2.7323820348354557
Ni 0.5116884233103531 8.286702614576308 7.323286377180835 -1.2848383566260067 -0.41432196158731227 0.6604384977085593
Ni 0.4868369818767721 6.344851455133011 6.040583444806475 0.8198425228329107 -1.333544563582458 -0.06693018616364603
Ni 6.38359977288182 4.825176950204334 0.3090057715915122 -0.4615243303047278 -0.7353923255076302 -0.09240004829997635
Ni -0.09126639209226133 1.7091292826574074 8.843539879960932 0.4266051498300395 1.9730565955509956 0.02144222903417597
Ni 2.9495765064522477 3.097629226279832 5.017008959496102 0.5825996350522095 -0.8634502322205324 0.7138976459689641
Ni 6.648444895847397 4.890277093242084 9.783472372770564 -0.18482246519745588 0.8986005548694201 -0.4127690152778956
Ni 1.93932732265506 6.311995182827327 8.019978532237134 0.9609243526093063 0.7439705540949445 0.07400971871824673
Ni 2.4505063392019055 8.846660344342858 10.388251402557618 -0.021207487315550572 -1.5597828727225396 1.2882954619366715
Ni 0.8269379073092344 0.37610828219875253 1.7935738923720528 0.20120090655547926 -0.7608323628472897 3.149762066522801
Ni 6.009821400306325 8.786477971517481 7.345586145391016 0.1013505726250448 -0.35202413198935506 0.48264182900963326
Ni 8.838606335768633 0.5747648575116528 0.027019899732885825 0.5439281866239407 -1.2686090392513378 -0.8240043675200842
Ni 0.3890095420162678 5.785227762588434 10.357505132037394 -0.4452698161190783 0.2667558096381535 -0.024873880423544256
Ni 6.283657691829995 7.314218194485455 4.1824884072480915 0.5696546448557672 0.3498916590273845 0.27693249306083917
Ni 3.5782067217693085 1.5489305982864343 1.2729703867597228 2.562932452549644 -0.6779893621081291 -0.9857846061860958
Ni 0.741938424653646 4.286319238292379 8.14046483032144 -0.526915454116028 -0.3498595202378684 0.18952012778344135
Ni 7.491480613612188 6.866970190699455 6.2524660383471415 -0.8148031606367903 0.9164949186513378 -0.19946309792876615
Ni 1.5751432413995532 2.2792101960120683 0.8661687232675592 -2.0689677423280237 1.2523707230156043 -1.8453804976575443
P 2.6595115732277477 5.896174514341907 2.628923042506789 -0.4115603396817751 0.5958277037067092 1.798024376971084
P 8.103102767043817 0.31752093710829427 6.7243335132736854 -1.1214195539153073 -0.4899980122643884 0.37815733874129714
P 1.8202152165867032 0.6735146112572701 6.259092965678607 -1.5313107334247755 1.1399399813169981 -0.41041671299563515
P 4.968395409125039 2.3960304355852253 5.712614565699819 -0.028874002721872852 -0.5063070338370571 1.0741331101245177
P 3.9296324369078106 7.739558923797092 7.9647603236827385 0.1534974298319292 0.08568278418080083 0.14783406089856474
P 0.21491583709241122 8.015659245380798 9.555809304135215 -0.13055110544840096 -0.4761539072924445 0.409188754125805
P 2.2373627551482924 4.77907981357213 6.313809190518873 -0.6414516721934114 -0.7080758970808645 0.79944261902032
P 2.6092760865677738 6.900642998436626 12.360870173788099 1.2297704691175853 0.7412351574416526 -3.3686053687503916
Ni 1.3961827997277918 4.605417573393321 1.2903217646788492 0.2734494196082452 -0.8941630879233569 0.4171537746091526
Ni 7.498885105365913 2.477953064273978 13.36325927617604 0.3213315880015047 2.0422079577356764 -0.7923108930715451
Ni 6.817180087002112 2.5936876828757245 10.458122710582542 -0.84889341745228 -1.4430223933003279 0.012195513624927384
Ni 1.1463044000689269 7.674412386700734 3.1561172880848707 -0.5255311721739916 -1.2654980044261819 -0.8529961267667439
Ni 4.93231938915201 6.787766253845089 6.0328829589588375 -0.14889875471765324 0.9761437406622221 1.146067948591607
Ni 5.6681941103456825 0.37128330010359434 5.151415330924937 -0.3086902450884103 -0.7953751338191658 -0.04314799614238376
Ni 3.7611199372344113 0.6810285929893068 7.042347155284388 1.0670787743808976 0.019736302086662785 0.39696804368989697
Ni 2.1837405022099863 6.645865386188832 0.7709272882338252 -0.8621402551598571 0.9895332745952506 -0.21845840808434633
Ni 0.13619347056638903 8.733727926880992 4.979785150513128 0.618805138438489 0.44882282357765924 1.125781430428429
Ni 2.1484902964801673 -0.3381004136253161 13.550031549436095 0.629530238165477 0.8745399143757906 -1.2255512888299152
Ni 2.6909110720931615 6.261202967464066 4.749283693372185 -0.09983516442178289 -3.4028036118986553 -1.9875532465052737
Ni 0.459287261994591 1.8943714798645959 3.916392500462462 -0.18138078650575862 -0.42041187653513395 -0.6068741913288581
Ni 2.951877651759169 2.819997900762086 12.024889040759964 0.734014214213181 -3.3575545102528688 -0.6905260611225591
Ni 5.245442169504333 1.7579543899357195 12.24873666201545 -0.03903680218748761 -0.7648396842344699 0.051517194042685475
Ni 3.8632054237938926 4.395326718396068 2.0412411511976947 1.1129457121163413 -2.389454208720414 -1.3979314144989603
Ni 0.3017831445475293 2.6124401613647907 6.185636324804513 1.0604378720256125 -0.2973894753636104 0.6315367270725447
Ni 2.4967055427630447 0.17681796404527664 4.077824338911217 -0.13396527333627253 1.855327067347295 0.5907927123859632
Ni 2.5130455302045323 2.815256427972421 7.784628895971729 0.4220938922232472 -0.3525689487492315 -0.6053600686771767
Ni 7.401457582290602 2.9939477841042597 8.050915018397648 -0.08266405195913507 -0.13195827020857273 0.8679540336281568
Ni 5.100219487251794 2.7063695724211105 8.131542324970086 0.07803118117281399 0.7110627476233303 -1.1643569767087818
Ni 7.77995887003232 4.486760129099316 11.882457425073238 -0.37112794269834154 0.6513617322182718 -0.6986944558659645
Ni 7.817241135529137 0.3624656453246928 3.7314676386161474 -0.7632710541957693 0.7024546942393451 -1.1828990013770273
Ni 4.922344666551442 5.454799998375591 3.9284660902744233 -1.086395986652271 0.5106966782643204 -0.43166636640303074
Ni 5.874861083817718 2.6357485364090936 1.802509388059817 0.014114070803878918 0.7586443540570353 -0.6589575422876586
P 4.467645776953113 8.919916562883769 0.44117316575196064 -0.015689385710798785 0.01746704643651185 1.810695030460217
P 6.274833541882889 6.315530410093204 11.70117171318408 0.1502174735290768 -0.8546136077655089 -0.14852980141400873
P 8.80759654699552 6.729922141573519 4.2013243950426515 -1.5607709476674216 0.22708625896267343 0.18484329113306233
P 4.627436193608341 3.530791993872658 -0.09302751055699406 -0.43935422196559176 -0.45962171396537616 0.7198268669692054
P -0.007229122212187963 4.158113896736993 13.314450870758824 0.9334626568539278 -0.9654204407074469 0.14425868484248058
P 2.4245627816287088 2.3552129428225315 2.8597362677215745 -0.28397345906802063 0.08762833794294586 1.3333393895501877
P 7.748540813543462 1.595333935705446 1.7376356480280708 1.0808704288483515 -1.3209261034874993 1.5113833983732294
P 3.5035772390936217 3.270280075981002 9.646200704282142 0.184256822501973 1.1376061909774988 0.5259443484520103
Ni 4.893283428239836 6.812670584505483 1.7126747166161764 1.0483562582707302 0.11346946737576585 0.21659230140988506
Ni 4.348580064943363 6.950785696979385 10.402293956216875 -2.018877253429536 -0.5348637624288273 0.22981625629932678
Ni 8.457117270652606 6.035532987586486 8.266274382690346 -0.20491049419658258 1.3396555615762027 0.976909415183653
Ni 7.444548383925054 8.53567169068647 11.576706660633613 0.14288880107814744 -0.7998596519530805 -0.19378738770022755
Ni 1.337011817380054 4.131121833439272 3.7815657988626437 -0.9428299570014408 1.4135112712150881 -0.4213881244054743
Ni 5.73525208265666 9.095323219666211 2.7587930028850045 -1.19640449206263 0.5765526575271812 -1.5513493972432055
Ni 4.877555842371964 3.9899354342855666 11.31858218099789 0.41120707010741436 1.1880070120275539 -0.6210905920385562
Ni 4.629403301693291 1.8136179814527464 3.5748440804014523 -1.2121980074514607 0.5313416082081817 0.3514680023755689
Ni 3.1017026246255526 8.330331587290603 2.1149427527012357 1.5210448327223933 1.0565344232061482 -0.0876789886752232
Ni 8.513383984931528 1.2103374797587088 11.478764163507762 1.2063235509485546 0.9425180821879768 -1.2784856749351012
Ni 6.361813122959837 7.447499046052477 9.558334996685796 0.9049614640904414 -0.09058716346095366 -0.4878621968683081
Ni 0.6648324271295017 3.280496047686327 11.332760205308277 1.0096400726474548 0.017949385389569087 1.2138563689904902
Ni 4.328129563909269 5.399823038925952 8.619407399185596 0.7175280436326997 0.13055161966903323 -0.6521893703258896
Ni 7.643179906446306 7.496667469364485 2.3387077925324014 1.1794179848069621 0.006900069553942955 0.47734818471086177
Ni 4.4123811743401085 5.779001679923335 13.234067596934661 -0.6332933047523351 0.5927112695649147 -1.216269349307357
Ni 5.105972350519097 8.176071342421363 12.164252153410402 -0.362749231716343 0.6372152655145606 0.26823136574241546
Ni 4.098339791627361 1.2804481811260457 9.573409354208477 -0.48993604867820134 -1.7104754861158218 0.7154868448329549
Ni 4.497569944754814 4.513705798338431 6.4247076924513955 0.03139136982708787 -0.9391285968904536 -0.8461307671054783
Ni 2.6493048803341437 5.17147148246087 10.063120911956556 -0.9472658812856072 -0.4748038210224533 1.2984811442204218
Ni 6.544151052098208 0.4400689871571071 0.292432885975816 -1.4969062878029766 -0.6916581178444734 0.33047108840892764
Ni 7.605433700363416 0.2436523169937668 9.15144982388814 -0.24824412398721118 -1.2762123055198924 0.1766872376848312
Ni 8.035580854146767 4.512777917166284 6.535144109560189 -0.24825826505459822 0.17117890627209228 -2.07693019170821
Ni 8.368875771181541 5.601655751491108 1.0600365038510149 1.5545825594685225 1.5113391753988552 -0.40789163258093625
Ni 6.190498422146557 3.7212024892086983 4.464012194282989 0.014862518934129241 -0.12457457614999191 -0.7007053156484061
P 6.636762871890081 5.384262471669067 2.4034998790209987 -1.1030055701844939 0.248293746278224 0.6156943607236494
P 4.104426692116637 7.935323293496412 4.1528156952440405 1.140377840185365 0.49726343557755 -0.028112956186132226
P 8.617891241350309 3.593971422884066 9.823737776235832 -0.929878024826463 1.6445863396221805 -1.134319292696111
P 8.283798346507492 3.7342299408656254 4.288728945696442 1.6744458461857745 -0.8390520058818259 1.90202472851415
P 6.26816207625516 5.459866229575507 7.660177761638845 0.8960145393097988 0.256639547139758 -0.9124282047811318
P 0.1739099844517717 7.630328752212088 0.859918515691985 -0.8801891422417679 0.8044678401490533 -0.045930958204159614
P 1.5791795244983877 1.2236804110141655 11.375756363063168 -0.7907384063781028 -0.27402560382668933 0.7677015791632972
P 5.811403290454667 0.33444456180706156 10.5622309780973 0.5131333127302711 0.29607769853072236 -0.7552440701262348
