# total energy = -340861.3465918534 ev
CRYSTAL
PRIMVEC
9.34044701559266 0.00000000000000 0.00000000000000

0.00000000000000 9.34044701559266 0.00000000000000

0.00000000000000 0.00000000000000 13.67068835417492

PRIMCOORD
 96 1
Ni 2.7537506162696532 5.384552927261654 11.698527978012127 0.15688871490166528 1.3852263082274658 0.04779166556198221
Ni 6.649613743071116 5.405484869229839 12.710118014706712 -1.9493934476061008 -2.1795565457218853 1.5084086320156216
Ni 6.722730763029595 6.808896387597424 10.933529481137654 1.2728732138443304 -0.9081807423586875 -1.5944320873652926
Ni 3.7753713591131155 8.170238532192274 0.4186976841804774 -2.4305211539640528 2.920896861282834 -0.4209965453940104
Ni 8.933960189947134 3.1658137808695854 3.444015261791318 -0.3292212751622266 -0.11401736945943589 0.6467540582429313
Ni 0.11074594517625252 6.354399571787558 1.842015563423831 -1.2875768386030921 -0.7672074131356981 -0.20877023426230495
Ni 0.47963289302119366 3.917383516937428 5.814171462200365 -3.073714234328603 -1.8558243186986876 -0.576882015842142
Ni 4.462389265220169 3.005821262363097 4.43643963506577 -1.9040795541606497 0.46465027752821914 0.14711903710941115
Ni 1.4342443342698519 3.5617366528675434 12.755846041611505 -0.750505526999985 0.31825012086270354 -1.2178696039149413
Ni 5.1200314651737475 6.727148794511501 1.1939482558002787 1.5439484767934442 -2.2235023551752158 1.9679436998044624
Ni 8.437337957681883 3.3610104445247075 1.137303114316094 -0.7682880477943865 -0.0021872374593059104 -0.6045270312529202
Ni 2.1936693863552064 8.401900301355559 11.725649834278533 -0.3513780137649239 -1.3681827224816179 -0.7670965985894467
Ni 3.3818303011276014 5.033277392438138 0.4019072964598129 0.7016280845729916 1.0247550739120221 -0.1618843683440438
Ni 4.938042193728805 1.4193836829216226 2.5280928865071477 -0.743043671405301 -0.4766179914130566 -0.16965218521492073
Ni 6.305941332193205 0.6390089420185788 12.106870842529093 -1.1799563738089358 -1.850838178338006 -1.635085342110281
Ni 6.036544156715118 0.96372865167041 7.595748728569606 0.9754143186953653 0.005480049277964756 -0.4229981492050715
Ni 7.961666348279033 6.919786175659135 6.1626373905339085 0.20010510238813925 -0.8118718459226082 -0.5848748042396313
Ni 3.058734895227786 7.371312729288778 8.90711014069156 0.4956876064499979 0.49811549916520026 0.4568253821671616
Ni 2.340062213872994 4.608062878310671 5.0135195446713805 1.9908792255547132 0.25894685511669596 -0.7049815744262569
Ni 3.7345816265941223 3.1626473693001005 9.180346239930879 1.1365070443760492 -0.1021617556724305 -0.09705117391874253
Ni 8.799803348140333 4.170827208755693 9.042545689707392 0.2589653670594573 -0.8482300728366682 -0.05584127533933609
Ni 8.924087337354376 0.5724498499743623 4.5748407760382745 -0.43338360620445365 -0.23829704007682834 -0.39798337232828873
Ni 6.376433686514442 4.130252306520175 3.738933340901564 1.747649524062958 -1.4382956772486197 -1.2485138111633594
Ni 1.0052469390637977 8.492231765333388 0.24181576921398373 0.9670919148725989 -1.7269081777505484 -3.79208791379105
P 8.35920511762661 7.778070519931579 3.551235188184442 2.7726771349100767 -1.3153146708379928 1.3703367927101433
P 0.3327991963999258 5.613412562292653 7.02628315144613 0.6072344028817541 -0.30202131770866697 0.8651721000076454
P 6.972970681489945 7.797638756622051 8.103437522567969 -0.6134654713931306 0.5833046315390341 1.8708143643496167
P 1.2705903604971753 6.066891269367789 13.491889152452345 1.0640387020029933 0.7398354488806483 -0.21076206788135313
P 5.109813016038006 3.7843381883364344 13.113211547949193 0.044882719445303344 0.7397274625478744 0.0897258439019229
P 7.569582400042309 4.834111038762274 5.408629797770976 0.11215074856434233 -0.9402462554346646 0.22097911762367103
P 4.16246750859437 6.9930246214300125 10.816836473287976 -0.21065356732794688 -0.1927211512192423 -1.1903749980390983
P 3.4102065794405627 8.277541588564656 6.500125491381861 0.14270805252590907 1.0783147523060332 0.16019721044960797
Ni 3.716535882782193 3.011070593637582 11.681849675656753 0.9865996458882236 -0.19372645255530507 0.03995879978112473
Ni 5.249396657614338 4.967361857199636 10.777806481004058 -0.5270157271393182 -1.1927584106696105 1.053043122223438
Ni 4.107900616591631 5.231612446321422 3.3288400765966295 -0.1476800518192037 -1.0083437224335345 -1.5942814207200415
Ni 6.7066184917689435 9.061419931177769 5.535507629146806 -0.5732346488975418 -0.07558426229421822 -0.3117652844693082
Ni 6.637900822398156 3.964618157960681 7.418221388707975 -0.4660672124804038 0.8769444100522252 -1.9222279429349025
Ni 2.4207169746473256 0.549117413099518 2.3191227995471233 0.9591734313564706 0.5207635755820192 -0.8807162183898316
Ni 5.197659921085209 7.3026511026006355 12.58488036584298 0.32940279504541337 0.5441644710044627 0.10092762615501329
Ni 9.002556433505523 7.0352060805680425 8.447719864642007 2.49151466292829 0.5708448085091266 1.1310809882644715
Ni 9.16487472334181 1.754023881446461 12.711484522118557 -0.512540930561911 0.10541420117145715 1.3141921271977755
Ni 2.5195108837046627 1.3352075735877167 10.456640811476678 -0.11539625208483353 -0.8142678569586105 -1.3635771053888064
Ni 1.6036240021195023 5.299797710207075 9.169368412445287 -0.2752967572296291 1.855201340402708 1.8772809459105668
Ni 3.8825623301202064 0.49902179312719913 8.076123253091145 -1.0600491212276257 -0.5819018376542366 0.8842643407524061
Ni 4.229279726755202 0.11987062795569023 4.622578867160629 -1.3372932319916129 -0.1660888933436946 -0.1852220146287197
Ni 8.801998353210625 5.071582566026502 12.942231861510006 0.7581149639161265 -1.5881835353524196 1.3176770004225822
Ni 2.050088033416813 2.1718127401233667 4.184542721288528 -0.9944217130358034 -0.6893166141954904 0.5631911486186107
Ni 1.6117128293147047 8.797627023964257 4.169874483150715 0.803199772069907 -1.3414635613192187 0.8959839431821796
Ni 6.6019120796924815 2.635042873978862 9.160961076003716 0.5521842559851459 1.0370079231374463 2.314796057784891
Ni 6.574273696701022 6.405940158927426 3.9514303806894278 1.1852119657809201 1.428501059755701 -1.0942910731296316
Ni 7.182654378608992 5.770612287113962 8.68806451343654 -1.8502550521410264 -0.30925897310768674 1.0761717378211013
Ni 6.031023952474513 8.56785202511671 9.899328090084932 -0.7710638107673107 1.064604344698476 -1.8661334139341796
Ni 1.6118996382568571 2.294518193776221 8.603169189675347 -2.492461343112275 -0.09483514010403023 0.47032264532264806
Ni 2.6081890885444436 2.007243402534143 6.696244991211217 2.246091039109009 0.03146181805370711 -2.038145357630529
Ni 8.448341004374665 8.925040062959352 10.19651496379762 0.5859860350259392 0.027644758300462067 -0.7204948395705075
Ni 6.7617925128336775 8.844637494256927 3.138530334868216 -2.149504206421195 3.789508068879016 -0.06464601811515963
P 4.612060589672734 0.8508400079276686 13.477672057909832 -0.9982968797204936 -0.33474606163519766 0.27507821346091976
P 4.5955560196335625 3.3537062148865457 7.008894041065865 -0.79806322217429 0.5762891194531494 -0.16042269619685273
P 2.3864842359978846 6.422790325509579 3.9254975633398206 -0.9176843109737486 0.7961822031014933 0.10078492992956192
P 7.3769823806831045 4.231026390364328 10.770534008886065 0.9420660822522227 1.9861998178011728 -1.1458985128932782
P 0.6590124435442659 1.6676901288306942 6.082486079858677 -0.5635894124982939 -0.4572169611786254 -0.5053500692404265
P 1.0146807906424977 1.230715991794729 0.7836504357036874 0.0685353258672368 0.9634044387186828 0.35481892112567276
P 4.747104773954759 8.470150948370966 2.5783332834096346 -1.4163029750276124 -0.6579314150159895 -0.33977899607341483
P 1.9324077403078606 3.7102497618787624 10.600662099473842 -1.005029570458637 -1.2846537514190264 -1.1642705876425625
Ni 7.744071292459829 7.401080734220774 12.871595664303312 0.6376402688671212 -0.16583126880693377 1.2706466385066566
Ni 5.572043722052987 7.214720133529465 6.777914124541436 -1.049761880369005 0.13829166862576828 -0.023366699750398467
Ni 0.2110324576813879 8.874059902645943 2.103563961197381 -1.7043012389843097 1.010081016839615 2.9920187169303243
Ni 7.824707372339945 2.2363645700841546 6.268516028722378 0.18348523444327108 -0.27488743760635237 -0.6271008027883781
Ni 2.189877164829511 7.142929457060268 1.9317641835021453 1.4210638867513656 0.17898297569754337 -0.2107551259028177
Ni 4.672007579209464 5.4473861149546385 8.69064808110651 -0.02816463535967408 0.060788334931966274 -1.06815452394358
Ni 0.1343492550172179 2.1389343663045306 10.489150237634764 -0.43996177364260364 0.27088474420486247 -0.5198873436246529
Ni 7.405367999443174 7.468920401563446 1.459865180686064 -0.15620942944645355 -0.7217906755637956 -0.48933698164162176
Ni 1.422372625996062 7.311645953165277 6.239233727039978 -0.5518782947089528 0.13226140327128835 -0.5842243151398261
Ni 2.15167473615933 4.225235313157602 7.419875581890735 1.1763961672615029 -0.41682955850051434 -1.1526432878162793
Ni 5.26090408845093 5.220161058167474 5.429600969617013 -0.011196125826135557 -2.5908345782765507 2.6868269719134763
Ni 4.362091544178505 7.077621050883763 4.7432368948074926 -1.204520179191229 2.292777130311639 -1.1593929478352871
Ni 1.2729815149567267 4.3427007759830785 1.2323001316241822 0.10327221512778988 -0.25832696214450995 1.841948074937228
Ni 4.303769792438502 9.327716078216124 11.280163747793392 -2.0752836572437228 -1.1606263060217559 1.3677983425590057
Ni 3.0632743525220913 2.696540377735457 0.5473959686975829 1.6274116276151072 -1.0190204854210905 0.6468170502703828
Ni 1.4093800640693575 9.067948903705997 7.921835879677992 0.5480645773898174 1.2635989876312559 -1.052085386295859
Ni 2.282954720256982 1.2894954254430058 12.635010545469598 0.004811048235398165 -1.7335328821559177 0.8062097625408244
Ni 0.14242500558646945 6.048966951368259 4.326499770474905 0.1842527087369149 -0.23782010044040974 0.35022307422487425
Ni 0.03313897229313854 6.4367916557239075 11.266192307009808 0.9097061778642784 1.2308215360899188 -1.6716024631997082
Ni 7.236698205573703 0.6364309786168747 0.45416990016110037 0.49469387507816087 -0.39667776614298783 1.9110832391719927
Ni 8.325728955192886 9.010635920253618 7.249579616179828 1.805960343988709 2.854347969718007 -0.3594934437832067
Ni 5.479442529428005 3.699695056647147 1.6109814723061777 -0.9770860499708334 0.16842114102129702 -0.5958914670651092
Ni 3.459570842404354 6.14369776593378 6.8563290460993604 -0.6369746102586643 -0.796135409023958 -0.638599547456597
Ni 6.941259863559562 2.669490442911779 12.038558548562774 0.2637519898148232 1.9646226058510294 0.8814880635588496
P 2.9564289780579824 3.161507834752971 2.566972497592632 0.7455270999487871 1.0296635669572332 0.9184376442000054
P 8.391149446734683 1.7383412707527606 8.364356374206464 0.819635034807795 -0.19242958812075248 0.35151222534994303
P 8.245653302139226 9.2365346335515 12.283878853531538 1.9665892426590972 0.8065915713602753 -0.4300002915545175
P 1.2004342622718127 8.143225959157025 9.733981627296354 -0.844280858380933 -0.7520898407679693 2.0137754134265964
P 7.0460783610013165 5.248350527538284 1.5637767207136684 0.5337589594004227 0.5175262995916441 -0.033802293261425656
P 5.674900725602141 1.5394084282545888 5.1169117558398005 2.3720902635206698 -0.19207708987734018 1.3816617308046593
P 6.928052471349382 2.021020562017888 2.1381366921215395 1.6522333146444772 0.8324666393548243 0.5951368482872719
P 5.230818508317274 1.3360295329331875 10.0428291151782 -0.873708676723747 0.41760268922111304 -1.10100216660122
