# total energy = -340859.3845955655 ev
CRYSTAL
PRIMVEC
9.37883920957777 0.00000000000000 0.00000000000000
0.00000000000000 9.37883920957777 0.00000000000000
0.00000000000000 0.00000000000000 13.72687921081584
PRIMCOORD
 96 1
Ni 8.879021830680186 4.402989716608627 9.131943793328123 -0.11318998846213409 -0.3106823358177746 -0.07254830368137183
Ni 1.8097970298962645 0.8626290258462207 7.490949919859321 0.25531542901169574 -1.5460971477053307 -0.6237503982589063
Ni 3.0824398186658604 2.7391743144101715 7.799942333071252 2.9079310451507854 1.123782397720529 2.140532084829572
Ni 2.410764890994401 7.068164991986629 1.1504974801719465 -0.4844112622052302 -0.22511653683081229 -1.099628683292461
Ni 8.644635267378167 4.002738387110928 13.127110643783704 -0.2415389440528937 -2.4198893852818197 -0.7735670368051387
Ni 0.09002466108467437 4.3989661947144825 1.6013504592628345 0.271931440301822 -1.3165063771532486 0.6653719304544347
Ni 9.235295784509718 2.6007989250716896 5.055046926923485 -0.927248814733732 -1.3212945425705116 1.670414356428878
Ni 6.157742340918098 4.720679127145593 12.05744281102506 2.100690013131969 -0.6254843502308776 -1.0224953313435678
Ni 4.361844750292515 0.037480653952377325 7.863689363286429 1.7470111191480104 -0.5369941785082688 -1.0715422094688902
Ni 7.104845630979635 5.580512321111523 7.943429189617912 1.5255123815754439 0.016343217244713788 -0.2580667665045878
Ni 6.449986961481139 7.993734467901415 12.033819391568251 0.8179237085436429 -1.6376921836055085 0.493700143706324
Ni 0.010546504358894052 6.671571409665425 9.460070913692578 0.8818220498595007 0.35548303707223294 -0.7250544339167319
Ni 7.3619383632926665 8.12317182375477 2.0078987412074536 0.3301257892543669 -0.185804369494751 -0.899735954025444
Ni 5.63505964823587 7.207403234505208 7.318718797808758 -3.833736956790404 1.77531819362282 1.0975144651629356
Ni 7.519446584015891 0.3092090643908459 3.650594873939162 1.9751211913895084 2.0463086101676113 0.9567792200926812
Ni 4.087260483404706 6.411308629799432 4.466327829447151 -1.0574083411706694 1.007579333463684 -0.5231768130092022
Ni 3.9437736268580452 3.5270624350661186 5.327580041740783 1.7690385312616952 1.1148971794157574 -0.9477397355982323
Ni 1.8210516365931724 8.119992397362894 4.8528494766585135 1.1378008234868082 -0.3355451604977253 -0.10106569439477432
Ni 6.891486424523005 5.77139045069108 2.2238371283654583 1.593132908937895 -0.1937079406125438 -1.2586416436259809
Ni 3.302533031462807 4.907102308240957 2.5593632147492404 -1.6404527770697814 1.5140190362238637 1.1327144101028361
Ni 1.1823339488658247 2.376944797870193 2.0871030358369422 -0.6385486396140035 -1.4352959711903475 -0.528091219591684
Ni 8.500763878436027 5.955262587601812 0.35333087417829023 -1.4295577831549897 2.7904205749364266 -0.03256764952337617
Ni 8.420293440553136 5.668898499037906 11.287763706120817 -2.2099796380984325 -5.769999523441501 -0.8623444007508632
Ni 4.676908085933536 3.534649915747617 1.5023380568467877 -0.10873041002888369 0.0452357319093479 -1.0128824908441523
P 2.586111663332225 7.180092055587378 12.613725194117015 1.6834930439897071 1.4411169487474986 0.6256399019721354
P 2.8243341717501074 8.552975874670766 9.039081095588044 -0.9160789141598418 -1.8699551016731153 -0.5886679527334765
P 3.760595524026956 8.178947778776863 5.952317632182789 0.7448516711483172 0.26522908858098193 0.33184457171768655
P 4.867495471506755 1.3732495938010378 4.227576354514513 1.255232875054748 0.4555588567499122 -0.9988509524517508
P 9.45377583701344 5.982948920076206 7.3241547728433645 -1.7477618812711062 -1.0011955414245273 0.9938393581697723
P 2.237453326700934 2.624949435275471 5.936312643575894 -3.553799358354654 -0.2454007410011451 -1.5651469652479304
P 7.832334029028844 3.3409675133327474 6.891003414318929 -0.3218123842926651 -0.4725029408034185 -0.025877124877078016
P 9.590613096770014 0.13467074796741635 4.908484749096894 -1.4044589312048328 0.6833765945619714 0.4454806465783037
Ni 4.244102806565031 6.307494261859372 9.453687675927648 0.4428383238594502 -1.4015278736009669 -1.1496680072380394
Ni 3.3344961144820258 8.371757949172721 2.9097828973285975 -0.20892732866545952 1.6527174533697473 0.5499070299151948
Ni 1.5364789062618578 3.598923098825875 4.072970884435199 1.9632609496168123 1.2674970371340817 -2.0460098479802697
Ni 7.555761448291247 7.931083823955296 7.090920868843885 1.990466563497327 0.179512108728136 -1.3066593091558398
Ni 8.21327432920243 1.0816239766063276 1.4097370287124131 -0.013121110762990306 0.47174009449546495 -0.5271059728602793
Ni 7.958995248563627 2.846637050687813 11.069369001051212 -0.11522655927618863 0.1193783766610331 1.081507548211718
Ni 1.6977761779063751 7.8758049473956495 10.74843451224997 0.10878517452621911 0.06344839826263265 0.8327214356781079
Ni 3.6735880354209445 3.3754722616976838 10.355090697612502 -0.2922295284292258 0.6958086496777371 0.016617039731390736
Ni 1.2107424519366028 2.6233925480157323 9.65874004475807 0.2673368789526041 -1.7673218056809048 2.4295929857228287
Ni 5.571480499237255 1.8670079472722128 10.095048320460988 -0.5198981422579305 -0.5945478085530213 0.8778908331258944
Ni 1.527850374460895 3.592798717014974 12.018870460223082 -0.32250169705020587 -1.5274651344264403 -0.19325491223552524
Ni 7.731577162574776 2.1027544422167757 8.963885316710437 0.8368503702448169 -1.0880561479635134 -1.9566956376944686
Ni 8.562148379128747 0.9285209965210504 6.771332243426817 0.004440552269856869 -0.23827801391343478 -0.017597144256472918
Ni 4.578946113475867 8.3221532701561 10.486114015126226 0.06303007977829145 0.8055325339681417 -0.40618442008184236
Ni 5.429044072648972 5.441199047881633 6.115736397189673 0.8609295226812077 -1.6904386220696048 -1.4804003197281534
Ni 8.32747107182039 8.657287321073275 9.008181572901684 0.8059382540469927 0.37592819230046226 0.43738989915036935
Ni 2.7191411144896755 1.3417179373718675 3.563730881568536 0.9739449332386904 0.36836812056501717 0.7854321636738408
Ni 5.612972482593189 2.431032561887749 6.9920876022510985 0.6207650903783374 0.9909252698467709 1.2074437805959268
Ni 4.269041139237596 8.999296060914475 12.696663204518202 -0.7116582151154841 2.2662045220294327 0.9400847901561359
Ni 2.289243275184538 1.2120742470624033 11.536247602194607 -1.3934268417603874 -0.5033242970596492 0.9472975058544914
Ni 4.6328463007151415 6.999868287014227 1.8223665498089279 2.16773744159977 -1.627937932432222 -0.23621110408207704
Ni 7.09634840292347 0.2061881462229172 10.812429143812482 -0.8121364124379045 1.7831780559868708 -0.7894335715237502
Ni 6.101469307433559 0.47482435347141033 5.807430514986254 0.29365571935279106 -1.6144825782582646 0.007844692855399392
Ni 8.332957692585133 7.658966191701892 4.871546192033751 -0.1498094394573807 -0.35475952864264704 -0.23382280635555858
P 5.917765989623281 5.1896398305279146 0.3701386913962307 -0.283410387475699 -0.2737759497097285 0.9758100114718873
P 2.557431173932938 0.49024128887839125 1.4633399067581108 0.41688278033595294 -0.2764288139515433 0.36287881531567184
P 1.8147959510374745 5.995610352610227 4.4324233267727156 -0.0771472359059639 -1.4198302714545805 -0.7652608309322886
P 6.259015043512441 6.0876073835185345 10.492016118454863 -0.48274261625355575 0.9994919284698593 -1.0242153993584684
P 2.2317322349633395 3.91399581330581 0.986532866740262 -0.6407847280333738 1.617040825903744 -0.4128551472337987
P 4.526921694019411 4.393760939117163 7.712131077970302 0.1662354462238879 0.1643055761910267 0.9414749856354431
P 0.2529125838090215 0.9633661967385685 8.805339796403313 -1.062924385892892 -0.6695810834397758 0.5677617987084286
P 0.3583138512933462 7.632292773830221 1.233501142445533 -0.7904175327035743 0.5264781094682932 -0.4481060000162928
Ni 5.439163839837275 4.582031751478603 3.4694003955384027 -0.6768619333719053 -1.6535720880605589 1.2171142138061553
Ni 1.0907589657086512 4.609764978147567 6.061295050945055 0.6889726005925102 3.8181604425083857 -2.4811603162771587
Ni 5.9790285654101165 2.485908148374089 13.104351015390883 0.23180526170489754 -0.9933521341207088 -0.21633647664533712
Ni 2.664284285681164 5.505134592758983 11.223974471130527 2.0224536579268846 1.2992817857448462 0.07843715836198105
Ni 3.043977200279178 6.325482874896595 6.894489528743296 0.199936695131075 -0.18429924570413422 -0.08012637313894588
Ni -0.06558997206179605 0.16455079086381524 11.08984957158791 1.167912041049892 0.3196752833450043 0.6486453617283732
Ni 4.1401196195245165 4.324282500441585 12.763773486367974 -2.1261660459158866 -0.714275341023357 0.9574194247798414
Ni 3.3812777629855058 1.0944448494018886 9.604751696433004 -0.04245996893642365 1.2667635014021668 0.321576099912143
Ni 5.562889482791949 1.2603096155975677 2.2006798372026792 0.1185491958915184 -0.3318121758178544 -0.3703730668101879
Ni 0.039677178026057164 6.327902615336431 2.8629881184506374 0.5723041666634724 0.7821290674425369 1.0611418400711723
Ni 0.8602824403499154 3.220946511749139 7.52599488934571 -2.662115070989093 -2.486049011828028 1.1262910230749958
Ni 6.896672922442496 3.1976588547254545 1.4684879514380549 1.6673529438947352 1.064379887392496 0.7097278308619906
Ni 3.6925708053830624 1.1655176906928615 5.90710131189407 0.12776917182788963 -1.93590312642915 0.22905469554295388
Ni 0.8551381472055372 7.803587887757158 7.00798379632659 0.10587391441669508 1.8348646857278852 0.7314922191222757
Ni 5.766682273556207 8.37239571021888 3.6574311096236416 -2.0103324491833185 -0.7391281384009787 0.845258391802854
Ni 1.001519313441086 9.211642352768383 2.8002005434563713 -2.0067817557175824 -0.6606148753854236 -0.35771732571939036
Ni 1.2394135624969753 5.61646141066923 13.009237396311423 -1.1913283630913032 -0.1736214542753139 1.9698578861080396
Ni 4.782973375212977 6.864709839423279 13.033726482600004 -0.8452871881582603 -2.306498593662789 0.47755747250819036
Ni 3.1709666791759545 2.1579395303872806 0.2477354647284439 -0.9690351546418988 -0.8607765420431112 1.2474498886752194
Ni 8.29382917663555 8.466090310970639 13.585999412056186 -0.7009755385906573 0.668891513571919 -0.8239251775427164
Ni 8.467506515646665 4.982076746520192 4.629032864812673 -1.0196766309478502 -0.3894156852639358 -0.23500319981690493
Ni 6.798870390246368 2.559700852950148 4.668167945949496 -0.6482663811223998 0.7171732313964423 -0.03533287097333915
Ni 1.0405634198404423 0.1270682611436551 13.523981839736766 0.7968756296240921 0.5963493805381342 0.23378295425655868
Ni 6.344681358153737 3.8514577154266587 9.261552781933604 -1.723462128183477 1.8084681980122275 0.5772375994093478
P 8.909540572506634 7.353938213698948 11.83543819085742 1.5945187335418283 5.695238785489844 0.8779815930674879
P 6.403064630393947 6.330875707272197 4.202854673020863 0.9577935202898085 1.0104561407908468 1.5669562505425272
P 8.965560377340493 1.7471557647890585 12.709153942183987 0.4611520345669735 0.3965049880105494 0.33826050254635937
P 1.7575006241112996 4.6004048969113045 9.668554061797774 -0.9067589223104965 0.5407155932239139 -0.9907260093517714
P 6.121530643870798 9.454244778959147 0.3756919019172633 0.7711525138263752 -0.8183345708288164 -0.5101405486505344
P 6.448036162987008 0.3027001501844675 8.625325175937947 -0.9508032050149043 -0.2436565046165287 -0.5341924473934155
P 4.029111682137349 2.1378875727889564 12.16069726228195 2.1470282340768763 0.14571958565872326 -2.899923344354961
P 8.402407994743967 3.0668240518739007 3.141739403467976 0.3739049912228464 0.041233295618174154 -1.2108481782917855
