# total energy = -340868.3281673592 ev
CRYSTAL
PRIMVEC
9.29545695114529 0.00000000000000 0.00000000000000
0.00000000000000 9.29545695114529 0.00000000000000
0.00000000000000 0.00000000000000 13.60484084718596
PRIMCOORD
 96 1
Ni 0.26975323231996917 7.597102634717978 6.265273725300608 -0.14204805034440698 -0.622819658914521 0.5786041407395712
Ni 1.9509119222619822 5.606722202074135 4.978446911811571 -0.08001890102680412 -0.5815362267847016 1.5011534931151052
Ni 6.822084612674148 2.969777667538827 5.869808732640484 -0.5254347558054434 -0.787305983657786 1.126653548620737
Ni 0.24764863559644887 0.5153577969241968 12.053779743373273 0.3395684227245055 -0.5540804445665942 0.15013571244854787
Ni 3.712075680975932 2.1397677219389215 2.953297751840286 1.6704758057944327 -1.0457365612596958 1.6697499833720018
Ni 1.0363040225911104 9.348534049962826 4.97107282578097 1.6540665111984738 0.31563685160957256 -0.11945885218998134
Ni 6.109885288972433 7.967926300441861 11.680259465576432 -0.18567941388111248 -0.10647298145327469 -1.0637869910035034
Ni 4.791436260347256 3.5777284410915593 11.06579629485612 0.643708329438072 0.9723495637271123 -0.08835493169632525
Ni 4.207969720507623 1.8260739348789385 6.57082562158257 -0.873155118213122 0.24262137848379506 -1.4123079949356063
Ni 1.0048574915920905 4.685802687106682 2.877287870482886 -1.0618630345079132 0.7715327799839293 0.4165760477288116
Ni 0.7478501898975591 7.367672165277302 3.852428715621897 -2.6836524308402363 -0.6163978145485771 0.3472382805649375
Ni 5.532033205155091 2.127609264195286 12.883716254862952 -0.4288283827336034 1.6253123218839172 3.644001113451731
Ni 4.8835542391235744 6.205860882399828 10.116232829172299 -0.33564569063133165 -0.60083981220932 1.7215893366407962
Ni 2.9212925638761345 8.094827879276806 6.281137352200675 -1.6465498911064547 2.145691260433008 0.03550204956135176
Ni 6.279741174560695 6.153917868736653 13.141936613694751 -0.3463160258609842 -0.46800865247749074 0.5112129557791067
Ni 1.160035850592279 5.235015467936149 9.78608422414765 -1.049943657362508 -0.15859798428328814 0.3527754083330828
Ni 5.262074543235631 3.2503238549705196 1.7796496340310506 0.9512773164378455 1.0149946520911486 -1.3586809536387698
Ni 3.138443734632298 5.028777163686886 11.879366295222546 -1.6547506817496922 0.04268596890430068 -0.7872201088121991
Ni 2.868057481691273 3.3167956679099198 4.8609690672736425 -0.07681427804657738 0.13091620209730356 -0.5400710176613795
Ni 8.333349305654238 7.549667917695218 10.255818988616545 -0.4907330906582 0.293257712583424 1.2580081238070397
Ni 4.583032114619196 4.306640996462277 6.202786874773055 0.1471573465465143 0.7388728278570629 -0.7608542172241606
Ni 2.908678628739963 7.0792806121455865 3.5083620228453025 1.551247838668335 1.144008494959417 0.4303605031074137
Ni 1.226898072725282 2.1382804488204337 5.984211640005939 0.09850641830803035 -1.1887857991751074 0.6888700135763749
Ni 6.301799293999262 6.32623705042741 6.626945084071599 0.30854574909074606 -0.538594433115853 -1.0668566310677625
P 3.9088047327238646 1.3427752395694386 0.8158064873183496 0.07086757354483925 -0.15274975303262725 0.255007925073606
P 3.979357251282115 6.4898185025470525 5.614404897276821 1.279416414279487 -1.4668485491856478 -0.36414611206386965
P 9.008524824162604 4.527584713670584 1.1955630872101488 -0.9278519955353698 0.46505162673169587 -0.5788106003234225
P 8.113948634306361 5.973613889491017 5.60334423300377 3.0498011751564316 -1.9379265846170817 2.03445736725598
P 3.5258226092563456 0.5158894970640561 4.748034842112694 -0.32284905308729556 0.5374091545585002 0.700469031267884
P 1.2046912259748657 9.36322087200789 7.541272260941355 0.3066477607370848 -0.08666674536062494 -0.383101827230766
P 0.6747562933980934 2.821124719346002 3.844605659018653 -0.48311079822625186 -1.2211130505529033 0.4625787397111711
P 4.729444857677299 2.581320519903876 9.060429726452119 0.6391387077895186 -1.183379797668188 -0.42644754120625267
Ni 8.45815940666631 6.997778045252472 1.9008410136367024 0.7572911824632507 -0.238778350588621 0.11027744280102943
Ni 0.5921308353005209 2.9266839289306517 9.345260190010755 -0.2482721490116692 -0.2285618150669354 -0.08700870208107596
Ni 2.424078569451786 6.028773131272922 7.454827299566368 -0.4078286405534847 -0.45344232462754164 -0.2787510343268167
Ni 1.2216182531546516 0.3610690131580038 9.945860116175364 -0.7624614138102803 -0.8788285144488155 -1.2912110929215697
Ni 9.195056759591909 3.9319225342593542 6.253954647323219 -0.7673567942293688 1.5565635944542935 0.15761145200030277
Ni 6.159467256560009 9.081680070678209 9.571835095063935 -1.5074161861953652 -0.08448362166637709 1.2738908564755675
Ni 1.8685448778687468 6.973786470759872 13.565155981837249 -1.1914751730818125 0.025441580001556184 0.6064592152786265
Ni 5.286912004314372 4.663158953877709 8.396036938052786 1.7236140803803088 -0.6386044325526034 -0.09912862527306154
Ni 0.8138618777159273 7.455876756660601 8.812780161309972 1.595378253328646 1.4015584697285863 -0.8114005627131446
Ni 5.205604642018058 5.832611102401413 3.6351594925619533 0.19071671919470382 1.923086434280456 1.585097440227928
Ni 5.9984420551127675 9.010560529243534 0.07218480080579026 -0.1429494791127538 0.21825014872828222 2.0207718993490875
Ni 6.845044391440799 2.8166164227055868 10.022074497586555 -0.4189939131416849 -0.6464028455510997 -0.8421589269419238
Ni 5.620349342022276 1.4315840356571228 4.204562935520587 1.255230818172219 1.2179850464468829 1.0588939245772604
Ni 1.8095837941777084 7.1912258006827425 11.127086820068993 -1.8704688080847396 1.3226603125697864 2.271177035543359
Ni 0.05319139353700597 1.0330227262734473 2.457129496327374 1.6395942857242278 -0.4979846300142907 -0.08171762888546573
Ni 3.5092023321572485 8.562500911385197 13.240666451028446 1.7799559495051474 0.6447745659190574 -0.7981884348982448
Ni 2.0031709814628362 2.664421905399364 1.8756856479288848 -1.9646496024342228 0.22325171570793165 -0.8652510328746971
Ni 7.889974598119136 5.135423941739431 9.689367782798108 -0.8172305391313603 -1.9408141905775218 2.7050308965160124
Ni 4.78232671249652 8.90119018229276 3.1706766612927186 0.07819084667912986 -1.2534061062586543 -1.035265486525043
Ni 7.0978715261266805 0.9822974174760335 11.950383586630323 0.9195126224317389 -1.8454067229097897 -1.1419261585090914
Ni 8.410817644213456 2.8253913341046633 11.752078954922492 1.5870177971790926 1.3055154253593837 -0.40871644247507677
Ni 7.18727523146176 9.112094805951276 2.558866413997511 0.05978534758874865 0.8437224147743017 0.1717239801422849
Ni 2.503145726613377 0.16926562406936202 2.747701763669071 0.39408917948020517 0.7856399088092728 1.5346146009870278
Ni 1.763301713821776 4.613558395376152 0.31089213632303214 -2.2570035722564548 0.000990646048043455 0.13777590533161432
P 1.4191095323758087 7.927063471511418 1.9555187507464968 -1.0366587673281438 -1.3096834406941444 -1.7546699212448489
P 7.368415801836545 1.6026762170251272 0.8217007365960554 -0.5858258552989911 -1.480778786113495 -1.7725177480595473
P 6.909294590159458 4.6530640875859755 11.542278631554455 -0.9276486212753121 -1.063716285666568 1.2848555830171873
P 4.220081700966306 6.7521270033632925 12.237608559909726 1.2898406949366044 1.5908271436228536 0.5816172165342822
P 8.03196270364974 3.544627318748222 8.205786819827265 -0.20917209768641395 0.6205552883603764 -1.1826658023202985
P 7.218851898858647 0.42041028103995554 6.3048100925185 0.3231313602144048 -0.3585331367524664 -2.8708151141350946
P 3.813442639457845 4.836918931402001 0.5638020005761305 1.463751398317563 0.4858508228652343 0.938353666397642
P 8.977905588835743 7.438326933862448 12.44313669124491 -0.0543628910215967 1.5952291293452914 0.3957745376024281
Ni 6.813421246758958 5.26323647535945 1.936798629913235 0.29782527734944836 -0.17220143399933568 0.14719617020424972
Ni 3.2816123632007 4.902135857647677 2.9150822690607505 0.3125373867486424 -1.9523556155582185 -1.4059362870813075
Ni 6.124674361044392 1.3700574058366932 7.7083534526179385 -0.43596833621249437 0.9133635721112076 2.0486429147277425
Ni 7.849018814618787 2.8052387833491577 2.3841257657607167 0.1080297844174333 1.5325898572475154 1.1335983553696862
Ni 4.692792870763572 1.2118580233145773 11.152609356327936 -0.714381527583918 -1.0225858341748453 -1.6852215966450397
Ni 3.235320987387777 3.0270655689715666 13.091843395972694 -0.019831690013946492 -1.9051324209051965 -0.38176691046942635
Ni 8.56526166211139 9.053459063254907 0.5001002338199133 -0.08839529801595744 -0.5327659993595341 -0.6553266304032908
Ni 1.7180514291917939 0.3988494685503823 0.6207087882722581 -0.4615281869594696 0.7209563525879583 -1.5810435818735287
Ni 3.898105661727745 0.14767971384591422 8.22420762694543 -0.37462618565958705 0.2700923302105542 0.513562686958206
Ni 7.2040628267866875 3.8425374198382567 0.13311280319602833 0.5433566303911868 -0.5312917288068527 -0.9160352054060998
Ni 3.1219535939310683 4.017580170427244 9.035805131338462 -0.9741711903168836 2.232850629159335 -0.6247441296307434
Ni 8.668989666668901 1.4918371878698469 7.889638102576079 0.3509887487463052 -0.058954624157337175 -0.7394379563319137
Ni 2.787698256007996 1.9882331820790273 9.840802861268203 0.3792459438197856 -0.960171790713998 1.5763562037001884
Ni 5.304024940633968 8.528888538907381 5.6279827713029125 0.18631679035479523 0.3061440816277889 0.5519669977680172
Ni 8.954481037219566 5.359416568840637 12.088608891171154 0.7259391505145304 -0.670035397368375 0.1726349219923285
Ni 7.50108985946262 4.358965123862065 4.220534389721745 0.06548625462826786 1.0858645396288331 -0.5686143765167111
Ni 4.009390872818572 7.034922691386697 1.4323853040497077 0.5564584578804674 -0.7123716962427409 -0.5030288773064174
Ni 7.19798359791487 7.187303117832731 4.371711984033202 -0.8251621352736113 2.0695920061755837 -2.1396933909783598
Ni 8.554674136599157 6.134871477363022 7.992191161369985 -0.04555557714261187 -0.015895845294650043 -4.028660514977603
Ni 8.32505775801867 1.0357927724566303 4.530193948447831 -1.1716823067256015 0.9811406796561813 0.5681739465451827
Ni 0.3484718098444148 2.4264210246134037 0.1712920336933012 -1.0101818040835377 0.2933500151869141 0.02319932093459876
Ni 4.624276057286252 7.1053822553750425 7.843530776811567 -1.5313665263633756 0.9609166392998225 0.9800099084858477
Ni 3.9200801220533976 8.398975232007498 10.494270699066547 -0.9502630162407183 -0.17311777516601798 0.2512199187860835
Ni 7.731598601914199 8.656106163280004 8.106866425625263 1.2121118754955578 -1.7837514119918374 -1.315075044023361
P 1.3979065949803715 3.5534765938032224 11.20845739147284 0.2508792476172131 0.23876703773471136 1.0471198147604677
P 2.5264122554607154 0.5706481046496683 11.796267698364154 -0.035847348715912455 0.14281578174836695 -1.0955863949022875
P 6.084174054936581 7.308404331505575 2.2213028229315026 0.7031000411328279 0.23956896481071643 -0.7094113280628362
P 6.5412688569897295 6.673506028137248 8.852044171638042 0.8813595084007854 1.1565467366357438 -0.46138754761654727
P 8.138990595438894 0.7432219818619659 9.94253977893834 0.6024107562408658 -0.0928870152387239 0.9958664159021302
P 5.152871514510687 3.7653107631607936 3.9265479010274205 0.21683964153400076 -1.8718913994638795 1.0711514017883745
P 2.7846400506581057 6.602014668422952 9.490560266867089 1.9119335029874298 -0.06131026887370731 -2.0214370437369125
P 2.1820992330738718 3.917245007671281 7.0197301964813485 0.05163597900873688 -0.5927961159692371 -0.6956723812101889
