# total energy = -340895.79778004665 ev
CRYSTAL
PRIMVEC
9.01891558385691 0.00000000000000 0.00000000000000

0.00000000000000 9.01891558385691 0.00000000000000

0.00000000000000 0.00000000000000 13.20009460293880

PRIMCOORD
 96 1
Ni 6.387755010580998 1.9935139881481603 11.413909943287665 -0.13451034720646513 0.5023197670545348 -0.12393977077947041
Ni 4.770555264643337 0.27402080262809725 5.936597299491319 -0.5828233210272413 -0.33156226459057736 -0.3806479663736348
Ni 2.8559567856465695 1.753087743238694 4.854862281379954 0.1525044697910406 -1.1839194722217417 -0.11591381515120036
Ni 3.0959501226201196 4.472570302087679 4.72932980266265 0.261334381512266 -0.8648597109735492 0.805828982162638
Ni 5.112859177138418 4.580625926675431 2.5468262475241343 0.028488851468312225 0.5008832917183245 0.7174943621812869
Ni 7.264880602239233 6.114463838203227 2.5059849913365726 0.2712249011531006 -0.4538858399228635 -0.25037454006665266
Ni 5.003567961150238 4.510007819629099 11.479554118528625 0.8079745677507312 0.6864161527192436 -0.3333859480628774
Ni 5.648077688576161 7.914116241298908 12.288165716087388 -0.4127605306374634 -0.05350851344110139 1.2748403648730302
Ni 1.9177821561088177 6.461105848972801 0.5019333025149854 -0.7828985986187097 0.052876793394373456 -0.9633517311038764
Ni 2.529192464267814 1.4935323789109303 0.28867112869272843 1.7505060196751465 -0.4612831608281992 0.8290624987692818
Ni 0.49986346144638594 9.028565570992543 4.669454125667772 1.659090960996259 1.2644541365426998 1.1930882832052034
Ni 8.586945362866016 2.478921030209544 1.6114014852709837 0.7862045230634911 -0.7192545394055033 -0.3871549142542171
Ni 6.922540614082825 0.7700277758786963 4.708724286804571 -1.707870187282491 -1.3150760724646253 0.8769207559031413
Ni 0.7190357304854323 7.705580881001937 2.5969335373233697 0.5161728708875433 -1.4290265932418678 -0.3883517627757957
Ni 7.754274004877178 3.843167257842164 3.8102734698447973 -0.11127914459266641 0.5853304037198114 0.13107278227982588
Ni 7.607987198198825 4.005165015028143 12.573538627443355 -0.1140749621702487 -1.4389189126549153 -0.0013606277929524954
Ni 8.097732338534703 8.660584806548432 6.883294804017422 -0.9272842959573578 0.8726753503632261 0.029104373565124072
Ni 6.884598037282836 0.8851848943985412 0.32934102548899014 -1.1831530263693624 -1.5771257348763614 1.5244217196144263
Ni 1.8346548134975735 6.265882407705253 9.158106957574736 0.24279364239560122 0.4622334405566104 -0.5237324284023561
Ni 0.23479393228488954 4.753202871545362 1.2221901941363147 -0.5414902666064093 0.911336771489166 0.6967345039261161
Ni 6.1858034584760855 2.113961602401514 7.046949335949813 0.10774953417285313 -0.9539147540606927 0.0890172478706725
Ni 3.5695243477664604 4.179789253678345 0.5752246160655999 -0.3286633457762275 0.4212623974608874 -1.277872981051767
Ni 6.162300165121968 5.738140577077396 4.7042229461625755 -0.4963512081759259 -0.6153506042309854 0.0655729008048032
Ni 5.201668436408563 2.762755314609942 9.284246409293857 0.5093928718512324 -0.5261883461420164 0.1946307095371293
P 0.10458424407662463 5.470765813157146 12.262993021505393 1.7643370120209678 1.2919361440130523 0.9550871771022391
P 3.869800114816343 6.030001696122908 12.5810495801315 0.21186584246849316 0.8880135233821933 0.6931318741765223
P 2.423526852242932 8.509229369453726 1.4687745544341888 0.44677159747558537 -0.5184765793200554 -1.1453385266247502
P 6.508978251552869 7.718541062333428 5.684092923169791 -1.201795324060898 0.3972750334073545 0.30167139056841596
P 4.672808260279589 1.1272832462104838 12.612795260207157 -0.09964156035373807 -0.20428803012123525 0.09051054458674734
P 3.970162604626251 6.071569876886196 8.14006261764351 -0.30485158806861046 0.12454603690490162 0.38448148118711206
P 4.811825821200682 1.0589379058277117 3.748510133871018 -0.23837854404704106 0.20700928570714028 0.8224514212106674
P 0.2786114305318754 5.6432796256197575 3.429120579558902 0.4036945637804531 -0.5592601889953207 0.0487494014895612
Ni 1.6678950690165162 1.0007749208543024 2.7364191799501723 -1.1965129926160363 2.141436598921712 -0.6443109960190775
Ni 1.8706673424166034 6.615401452465605 4.725528329850385 0.18747610077021906 -0.04497450782816125 -0.5011159765544208
Ni 5.929873698111621 5.705591311645696 9.207937366673292 0.0701360946954534 -0.14455153349255104 -0.08877016485687293
Ni 8.657094486315106 2.3958117254289633 10.21938076247333 -0.24417252502099882 -0.143785601860804 0.018853642371393337
Ni 2.225850266005192 5.335617366913304 6.897682679645903 0.6463056578516031 -1.3235972225617592 0.7356070126215976
Ni 0.4650684860971204 -0.016464029937813426 9.033999467479823 0.6131127160394021 0.2280599357298524 0.7187027806670913
Ni 1.32863053098818 0.999557367284538 11.3937535694131 -0.23552667642054276 0.07700042591545447 -0.21472902294890117
Ni 3.9421498536063395 6.879808993241763 1.696529223302774 1.3827418512427152 0.6223468330431604 -0.8137073564694501
Ni 5.59694945756139 7.804356041713485 7.83676371017448 0.8079167179296022 0.03708302089522646 0.39830887398850756
Ni 5.054353473382409 2.9683144328474897 4.919226672535362 0.2802037076129432 0.08003689874893313 -0.20352312693075275
Ni 1.025306370556221 7.412339867910693 6.881196102419761 -0.6933406477532188 -0.22496355619271577 0.6872463619300229
Ni 5.0216779431360665 4.384581764112708 7.233520029848236 0.05523089544884682 0.010373887035156328 -0.6131775078390665
Ni 8.106165024369737 7.1584754391571614 8.963642908978109 -0.8668798267273715 -0.048096084176278454 0.7768639623888556
Ni 4.37300147682695 0.15867609066935529 10.659709461924372 0.6769935738537631 0.8328510192774365 -0.9218209588499414
Ni 8.258882317679513 7.263058781342252 4.531447585155348 -0.6855340072246064 -1.2185753717327141 0.3777053388055431
Ni 7.314619920292939 6.041645115815987 6.903701903738204 -0.32306322598063075 -0.5751107828743321 -0.22677001327383525
Ni 2.4510796385809326 5.16921837904551 2.470886078540633 -1.315229567323354 -0.0652391716144683 0.932441414678265
Ni 2.3310378755174996 5.1590720992974735 11.259719861104243 -0.9547863580323684 -0.3837808555756616 1.0023530520677382
Ni 1.1451587363976905 3.2497857614310117 3.7423583317233424 -0.17858368337659566 0.1962780153325652 -0.10079958521758123
Ni 3.7262460394834607 2.740550745063573 2.6175922647819045 -0.6531221665528042 -0.863711713412035 0.4002616268395042
Ni 1.2755271575157914 3.1582618086460594 8.257120923515254 -1.2042700108536357 0.3879074761495255 -0.22180212774559868
Ni 3.4859731161346312 2.4746190075963765 7.182395406399598 0.6930511415372581 0.23144402171073689 0.11739322791020426
Ni 4.193443891490369 6.717270101135888 6.070631007800177 -0.13859634435038068 0.368709563064836 -1.2010767007273184
Ni 0.5540310669279019 7.334055682832511 11.15302338705696 0.4327709123211192 -0.23695826666074674 0.24367450233865776
P 0.13749606990465463 5.525817272341158 7.958613765761896 0.570035939454586 -0.2215630151515991 -0.5557094955295848
P 8.422593668778493 1.61241972081192 8.019400353205265 0.010437393283240087 0.476462696782115 -0.29634997835550253
P 1.9063461714683647 3.126524245594202 10.310553879451883 -1.8321220899857416 -0.018792450116154734 1.162451532155953
P 4.092414001945923 6.098446244574327 3.7461733329086035 0.002307822197570219 0.7423240196304571 0.572309308869795
P 6.810931536854428 3.99355767099639 10.394823016744107 0.6962159124184849 -0.16802981912014933 -0.7935730476134203
P 6.108953280935626 7.841901786238886 10.13495289227127 1.4294739651919315 -1.0496253547911407 0.13312118016842234
P 2.5305633393982156 8.507822418661998 5.813255515308058 0.11715205843367565 0.5951260496539944 -0.2917487321380653
P 6.953322172109534 4.011306896368954 1.633841448507507 1.0621936783744546 1.2561096212327465 -0.3745655076249807
Ni 5.47396752809986 2.8025197123069123 0.6810228061458563 -1.0405354766747306 0.0466467533242616 -1.5479064329999277
Ni 1.3235168059951696 1.0352452152516307 6.936359396153883 0.19325851177995104 -0.12924807036626126 -0.13547939598795378
Ni 6.828545478497018 0.7206131387769271 9.164574421759017 -0.6469579467236213 -0.5363020375372506 0.44235829889923817
Ni 2.78756635068714 1.3511327247404914 9.417303369072302 -0.17332423474986924 -0.06756910529922557 -1.36404376061258
Ni 6.41740920419126 2.1510654200756663 2.7090819456885966 -0.31872526072690915 -0.7177535293799445 0.42781536808805676
Ni 3.9842952449508493 6.750351482572152 10.438238271367304 0.4327164049340999 0.17525230501051756 -0.28235726362083635
Ni 8.26641311198139 7.12001878418327 0.4634153189168404 -0.4428324103221793 -0.4776091516817323 -0.6939674827039404
Ni 7.6438824812185455 3.8032495385845566 8.122876172587636 0.2293125771900309 0.03594376508446068 0.33442801617414664
Ni 2.83147944943664 8.273492960516684 12.323713770866842 0.4801365460892763 -0.41228719054547064 0.2634964221605913
Ni 0.06269949938519799 4.83572594682939 10.121237827726524 -0.5030054802676498 -0.47941303765969046 -0.0811715265740086
Ni 8.323268354231718 2.311719358877239 5.840883158643311 1.3823345885019678 0.7831500525078835 0.3707980701627485
Ni 3.6586853447345367 2.759869261703834 11.399179348876583 -0.14562702594491694 -1.592111409651916 0.9143837858456058
Ni 1.2509776699832096 3.277564020652302 12.647551454220496 -1.2606866990804675 0.6172421648267434 -1.0886446734771316
Ni 3.2052954521002897 8.279634841857497 8.014964850645189 -0.5014029116672204 -0.3819183484456261 -0.13451163275804576
Ni 5.584575505726452 7.863420918220053 3.434255048057175 -0.10725665369683464 0.21988948410391806 0.8518563567353458
Ni 3.0906109247438196 8.450110379455168 3.6656921400556475 1.3926444550684078 -0.5999543242805732 0.275382632075216
Ni 3.4214247391064583 4.202390655499304 9.2221926642464 0.29870947972661455 0.9573916568656995 -0.509899893394638
Ni 7.222058792244854 6.1627240541425525 11.336254376608096 -0.230040713605307 0.17817076420889316 -0.29639805798461855
Ni 0.5529424838473793 9.039027512777183 0.417316936982496 -0.3398569004992018 0.36551625293851886 -0.1503768819250765
Ni 4.646824765209285 0.4573338643087508 1.644388168096266 -0.23712384570433356 -0.44216855148593526 -0.797815110719226
Ni 5.943519317008312 5.566059672550702 0.298240197859543 -0.4348362794905802 1.1023481391061531 0.5776052671614117
Ni 7.912168155587286 8.954691635511507 11.511181650813437 -0.14294922200243768 -0.22008231684101454 -0.7970422371089435
Ni 0.29593857066692175 4.874390036855907 5.606700708817903 -0.8666859655490106 -0.44140853339145913 -0.0759259619043531
Ni 7.7413138235456875 8.884695833623056 2.538417912760495 0.03683105278542044 0.10614722268273978 -0.48321981300029043
P 8.507281283742103 1.6017774007206464 3.6402822480004318 1.0196941144493472 1.125458242761055 -0.33673429570982005
P 1.8365127100558807 3.206431835432069 1.563142171223191 0.20923046172817517 -0.5298570532428553 0.521502767740889
P 4.706223341583121 0.8586539511676096 8.193773866009249 0.3834710376447267 0.8000342298577318 0.18823380487185
P 8.483940330863954 1.780081356826136 12.632701810127038 1.3773067962700731 0.2923796808538448 -1.7829026908382972
P 6.289006906615444 7.8006402485968716 1.3106783800206545 -0.25582887831300455 -0.7062802386330224 -0.6192429973068561
P 1.6758317145083135 3.0734479288678083 6.097954713688756 -0.10272174194095857 1.0222955566279361 -1.1629670383397905
P 6.767379194718189 3.9147143131676496 5.931792021402648 0.5211942353615348 1.1150897550425378 -0.21005784272547698
P 2.2812715007177986 8.201476921593956 10.047938397152112 -0.17073796207993175 1.2761428857345376 1.336613175205453
