# total energy = -340853.7945405695 ev
CRYSTAL
PRIMVEC
9.42598642488256 0.00000000000000 0.00000000000000
0.00000000000000 9.42598642488256 0.00000000000000
0.00000000000000 0.00000000000000 13.79588392612541
PRIMCOORD
 96 1
Ni 8.81856649145942 1.2909925351974312 8.028403953658264 1.066641172622847 -4.959669310974401 1.7851986859613254
Ni 5.813156682097961 1.6151050805407308 1.9167998022228419 -1.233698857637714 -0.198117125423833 -3.113331591609909
Ni 5.412599386347968 7.363806867043012 1.099726073002316 1.2411332024285722 -0.7024179274641387 -1.8853984328113786
Ni 2.82138627518268 2.4039847415810516 9.53880517630534 0.9262481413833596 0.009484028231035278 0.11456295755026076
Ni 0.4469133546926664 4.480482434656585 2.4517075685642884 -1.22749684259206 0.5130906324177938 1.4602724386300272
Ni 1.0913972713427162 8.788290222864314 6.95731968319427 0.23720637811581086 1.032544488049454 -0.05138375378861474
Ni 0.42063841736114255 6.5805922238811645 6.952366327295537 -0.3066112510721945 0.2632825063775724 -0.23032122096020335
Ni 2.188091947090927 7.386165306989334 0.23381536519583207 0.07909021856494766 0.4613533519445023 -0.7714281360852651
Ni 7.489097079423501 4.464269737899555 10.525431665250343 -0.9917675632424081 -0.17867547175945356 -2.31288341414321
Ni 0.5306952929805647 5.596132769229439 10.074209692134634 0.874426785836694 0.24092882127272053 -0.14073858750436408
Ni 2.035485225872139 4.981992045678549 11.829653572481782 0.5314660496011879 0.29074163102978956 0.3636779141781995
Ni 8.861303914189868 3.0287296999294178 6.977364986056769 -1.809980778002012 3.8090957612029563 -2.7388046505323476
Ni 7.435312400530703 1.5627625775803893 -0.04631175680618584 0.07525464686894136 -0.49277094702383517 0.02671144785291529
Ni 4.499428667494742 1.670699548838965 3.9504101993827874 -1.3086012633735593 -1.3542380873760678 1.150260903627032
Ni 2.189694364793657 4.1823761860299395 1.1354844953380538 1.981887049358432 -0.3761673048944619 -1.016408758829856
Ni 4.775760887337236 3.5759836233710725 0.6576096028327034 -1.3620231306381252 -1.574873962727707 0.7722290347200056
Ni 7.3743451199350805 3.6373373694126467 1.9539664669396843 -1.8120726275340342 -0.12729171797083882 1.1808781142922566
Ni 6.478452234311876 0.3039088859078241 8.225561657407534 3.0206443510868173 0.057390622104326966 0.004686606842391929
Ni 2.648805888598691 9.102741132058801 9.154728275328596 -0.24789856772233435 0.036123485195434554 1.6395348932412024
Ni 9.289649018102493 3.1697330317831454 0.5305114862440752 0.47846944279949855 -0.34806746133445216 -0.20892887132735627
Ni 3.7095781298462964 4.5269808259952065 10.188563874993315 0.08956000774801996 0.5430033608168261 -0.07852766119325831
Ni 7.953722805323223 6.696918323112855 10.518134066512383 -0.8049249822911297 1.8736142956922572 -0.07638438959801037
Ni 2.307076174511851 0.3942918425323202 11.873303430704139 3.0767964727983528 0.25500226864665115 -1.8091667667411488
Ni 8.766487916120703 6.600499907340959 2.139175790218481 -1.6779309765208974 -0.2189605445317455 0.3196050922287012
P 7.8873450084842665 2.2884881291601866 11.363628087588793 1.429644686441841 -0.3302605150600183 -0.9189184404911658
P 7.3523071635293045 1.5577479527694937 6.314431586056409 -0.7901755918960972 -0.27078627095378527 -0.691735250939312
P 0.9844971585976715 3.2384673252437626 12.354075871455485 0.13522228567182518 -1.3698626812872021 0.07886164749390935
P 2.087846580805454 4.496365221886582 4.405812597505326 -2.2364910541254 1.2358858379867037 -1.7212381239489647
P 3.691536791710857 5.894559501396631 1.4644467107287324 0.46657166292064806 -2.2822322649162565 -2.762729279668745
P 8.478052729629356 1.8039170158547233 2.2212337155779722 0.9916608624612148 0.07775813001708544 -0.0773539526001313
P 0.8890835529852529 4.676608935484214 7.756349246483411 0.2968212615649662 0.6953358238063767 0.06287735625051107
P 4.943571724758983 1.6090724491892776 9.178428975750618 -0.3239070620381647 0.7988497226313275 1.6663666687220657
Ni 1.5675886826615517 2.9909597720774297 6.402200716628157 0.8041626502038085 -1.3237939119535977 -0.18465045839596583
Ni 4.3934711533983615 9.314627882292102 7.918602522272631 -1.0038229517450454 -1.7153292146636974 -2.08699966012907
Ni 8.656694025524258 4.654222217578432 12.391394294554761 0.7565990414922324 -0.3497289081972751 0.37361317101404046
Ni 3.9270639160526644 6.216127030388536 3.5156054669308654 -0.33267323826656897 -2.790563271161878 2.8016830352241233
Ni 5.57671523706695 8.189938026678554 10.245472325807789 2.1773831922196503 -0.2945800309392733 -1.8580295538801228
Ni 8.332260996640413 7.728969583535652 8.036626241670566 -1.7256745624537633 1.6123231087131007 -0.21254281393085978
Ni 7.326310292799136 5.504078585200861 6.177879205021675 2.3565003795022124 3.721832519908913 1.5949933591854015
Ni 5.934902723559472 7.302236323312244 3.3769152721609608 1.9299505083901412 -1.1954701531738186 1.9801099028533513
Ni 6.417126766229761 3.7556806297524785 5.671777253383417 -1.318435732965478 -4.420888987099986 -1.2904721578730163
Ni 6.007605357330968 1.0784742438695254 11.518983426467088 -0.07173763485461838 -0.6904476424761399 -0.3176736795339432
Ni 5.063470272869112 1.9361541802758708 6.992926347147573 1.1222839587981317 1.2899975322294428 -0.6281734670272665
Ni 3.4830622485857226 7.842788370361894 2.1931037441058763 -0.3569475374329014 4.969043038879817 0.4685568116714769
Ni 1.689758893514962 6.413346945648617 2.3771687526251943 0.010181054298059886 -0.8628665918029205 0.5158378561456278
Ni 6.856999851615552 1.9922387998714104 3.7140177694815066 2.434136896339769 0.5915938681310199 2.87255677941655
Ni 8.341941484762197 9.038606720003667 2.0115912927271418 -1.2895133935041725 0.7390062681111338 -0.4541714894840823
Ni 8.888827794730872 3.3965034146788584 4.317973714633576 -0.7456129747943739 0.12100845606528836 0.12369525886883215
Ni 0.05720159899420719 5.697660069677096 4.822792789511002 -0.09002126365515463 -0.6563139340172245 -0.5813577922253085
Ni 2.218094862077919 0.515280034680305 4.091225011506782 -0.1171893394295143 -0.3218458086337619 0.8854385635661655
Ni 0.7543042000086572 8.07258449491982 9.559623410059745 -0.9286338680067168 -0.6326168475106008 -0.0519005455240332
Ni 6.061135534588627 6.297605257579098 8.416785702663459 -1.4671354842984476 0.3616678257267062 0.5439641820681986
Ni 3.2662174294604465 1.6640070984334467 1.8069295611358551 2.3396804797313964 -0.4536991778333541 1.4468803335938372
Ni 0.8135059933353305 9.214637017641769 13.188947748360095 -0.5107450150037526 -0.17722974045186252 4.64236664162663
Ni 6.385559137485986 7.832306673388744 6.50100673477712 -0.3382756720550109 -0.14022333843084236 -0.6367727786605033
Ni 3.998701413351169 6.393288446405036 12.596746008356872 0.23039578295188065 -0.08510634285204052 -0.3041833583569923
P 0.7230193508594814 6.806853603506599 12.075744399879172 -0.5677168044031061 0.5002929664324933 -0.5361783674751928
P 7.894857519714122 8.978930799556716 9.711943581289336 -0.09786749917245081 -0.14111885366191826 0.30541106011650626
P 8.026293475283905 8.83719224075703 13.695188261999707 -0.27910713211465477 -0.1035987452292732 -0.8020844275185413
P 3.716232876305868 8.37025714816808 10.928091898585508 -1.913407259319479 -0.4159924073111997 1.5871761771338277
P 1.8964236472346607 9.380534379806727 2.0354861684707877 -1.1533724526728202 -0.32779739823150644 -0.8682273418942015
P 5.376149096604111 5.757081488488908 10.798866336846844 0.9064239075685808 0.2870515837727121 -0.02834641235317699
P 7.532494321208016 5.34982231634691 4.057259411800804 -0.5645849436423438 -0.17578760868869725 -1.2956377612343557
P 4.2529862508014 1.6102506975001085 13.373288938283471 1.0072044666227684 0.33567422987642187 0.25122351833050927
Ni 9.070457128342042 8.797640801459066 11.509975011181801 -1.694333843358953 -0.8505998586204253 -0.8176082341857531
Ni 4.119476578204555 2.6664607612881777 11.533772799264634 -0.02498983717611825 -0.17325790028830806 0.27055024368357916
Ni 8.219629884111487 5.4868573078897604 8.393415854367118 0.6510298028001498 -1.9159084284747778 -0.035576354442712926
Ni 5.8254764464360065 7.882368087619318 12.50704455055536 -0.25535656666227635 0.9780257881762835 -0.001094004395127148
Ni 1.2717446707917015 2.315078837039013 2.705496599125322 -1.1329085283915132 -0.12821782932953402 0.22218753610947542
Ni 0.6456555667703399 5.739030724366982 0.18706530001801724 -0.16463827694009708 -0.4975686255227946 -0.0032928118186588457
Ni 7.624162039790643 6.762692856816665 12.914023770898705 2.1326603953909786 0.2009941898613119 0.8240413914056066
Ni 3.739731860617075 4.002782865499886 7.797240118461127 0.8213988115764371 0.28373846023907906 1.0916572350512102
Ni 6.015579741898669 5.234636761480104 0.021837182893611237 0.5296943024127458 1.3178711187112593 -0.3741276487566137
Ni 1.9229577991945672 6.909992747643472 4.840754949359953 1.1556468505292936 1.8283556809647739 -0.5646859879965823
Ni 2.1570710255633774 1.9386332147218583 0.024610308117982295 -2.2242839705362467 0.5114379273057191 -2.2518819347591736
Ni 6.251597017537782 9.39895275740163 4.67172815968143 0.29489139153210503 -0.08393931912713286 0.4169270033103271
Ni 3.2411254534329967 6.632171221936088 9.18641749929805 0.2801689977202659 0.7551047163348931 -0.6057269650982924
Ni 7.208089570283631 2.6914773294237344 8.862848833375029 -1.4520868174954409 -0.20843136286564748 0.7504240230297722
Ni 2.3130993798768174 5.449841458956704 6.427074952367766 2.034883141939489 -0.15542781408542264 0.978950871093714
Ni 3.9603565003234955 8.902872514595973 13.502873630107276 -0.24503847256571992 0.31972439141538483 0.011380473922799755
Ni 3.7944025822396177 8.379654856695264 5.052314617862168 0.9337596192690564 0.10996145422250739 0.36524268756215805
Ni 0.1264128473710492 3.4411920166120438 9.140766504144578 0.09057765037925691 -1.3063703171605117 2.2285306616277425
Ni 5.029329349814483 5.6624351581765024 5.698776106477116 -0.8892391682591783 1.0108513193467366 0.43666356250730604
Ni 0.4165136056745865 8.062856876865602 3.4232421105455253 0.8587062897776437 1.8533802280335692 1.5984481505032213
Ni 0.8299543397545267 1.4446549669027233 10.58340242474186 -1.8650916029332265 0.7142632568384989 -0.07852277609725186
Ni 9.34349025291421 1.2313731706693993 5.050617940294571 -0.2694338706909489 -1.0277666070448364 0.3937513365248122
Ni 6.411687972026966 3.4176270503954305 12.207219001993549 -1.9842313812208925 0.40272988587433867 1.8500177393192399
Ni 3.5668215645060526 3.689689298359475 5.532591251724315 3.4197322693331937 -1.6087670159307261 -1.289318246774231
P 4.088399100758085 7.269122832784658 6.952946025464466 0.07409919310825949 -0.5639473100583449 0.4643450875829745
P 3.301225543271847 1.4211842605509764 5.921634704980871 -0.7370098065063952 -0.3960373043455115 -0.7741622471869765
P 6.087151257291768 4.202481815205954 7.869613785304238 -0.8170690738528315 0.6232783437184943 -0.4936911448452595
P 8.314134824626594 8.596122636361075 4.985405195385364 0.19741932802586 -0.2552436952334959 0.27586548524890553
P 8.053751373919503 5.160963251100485 0.7732438346562737 -0.06569785641844168 0.4135251767176297 -1.9226573171628372
P 5.290080413994552 3.5169957999376456 3.4544477814082133 0.22100817108939358 1.438168664752452 -0.6570700954569587
P 1.571519319026483 1.2542783178319474 8.324367675556495 -1.7022664679424684 0.43576367640085595 -1.1672270991677254
P 5.399280467442338 9.04526146646324 2.4532666267291794 -0.23959261895980027 1.3107231948125684 0.5815133439665662
