# total energy = -381170.4711320026 ev
CRYSTAL
PRIMVEC
9.22170741418730 0.00000000000000 0.00000000000000

0.00000000000000 9.22170741418730 0.00000000000000

0.00000000000000 0.00000000000000 13.49690094513702

PRIMCOORD
 96 1
Ni 6.4354789954972595 0.9106140716539499 1.4306040057763143 1.4402882821986163 -2.244465330580128 0.6468826134009957
Ni 0.9701881441879343 3.1701278237303394 9.200958309461457 -1.3120827941642563 0.5816498695444305 -2.0671972806911625
Ni 9.168875990284693 5.1281729030066625 12.535286928543778 -0.8507327846538638 0.15514190741388764 -1.0331620670287949
Ni 5.226651513667387 2.243078825592679 8.632914981548291 0.08622682960972891 1.2747094957221208 1.43166171687187
Ni 0.16571038881252678 6.490495700357442 3.2386082210303253 -0.9670289228451475 -0.15665808694809796 -0.10534323872420566
Ni 0.1523186256884978 1.1894157882779641 9.909222305452314 -0.6604624089679593 -1.7933601387261955 -0.8585224559016117
Ni 4.41462486881854 5.130367669308494 7.0144334473109575 -0.28012477474589176 -0.459711445465705 -2.002824313731731
Ni 1.8610880502954381 9.069982402802191 11.075866932263425 1.1930921398599452 1.5463995094370981 -0.002439205569111928
Ni 6.8527428006453555 6.624551657204991 12.354901114971865 0.4408881421116149 0.06231891264387978 0.11597860695086479
Ni 3.493219555457016 3.3108418531405848 2.478908309065844 -1.1922153936819468 -0.2872780979612214 -0.3617436732699641
Ni 5.641702109099351 8.453944700023987 5.328549533339537 -0.6327698281486973 -1.0306233597673413 0.2105432670023277
Ni 2.5437802523578195 6.776377843731649 11.045525671396684 1.4803334710459601 1.352330843051026 0.5230261463639508
Ni 6.534003714693738 3.5725446803660486 6.919456318855296 -0.2967284447408438 0.19744375350589222 1.8609423566515433
Ni 1.1450040466409144 2.603426254207578 2.9792513961039613 0.16776088172947884 -0.0705965792716397 -1.153642161394439
Ni 7.246601913045354 4.070175663331189 4.870180890738579 0.31993213655081676 0.8006592650362404 -0.5630191418171208
Ni 7.548290062475604 1.7872498411409827 8.55982926369732 0.027136965426108103 -0.7085595215855023 -1.4352625468492508
Ni 8.173724684840218 8.515619477446867 0.17752339567238157 -0.3309423716183913 0.8905157209787568 -0.03301553569407217
Ni 3.5187544625568896 6.1117233008557434 4.8327545922680715 -1.045051362267213 0.7287257121207321 1.3843973845682676
Ni 5.2415999009584295 0.3576187254690516 3.294903976672289 -1.300163417018851 0.6354309199206283 0.6969962422279351
Ni 5.681383114968168 9.056242059147872 9.454767355366052 0.15112841537912036 2.5479282658313283 -2.0274459689351536
Ni 4.6706194593178125 5.388132827580672 11.029653269049158 -0.47182057002441324 -0.5258587307167395 0.3081819379934241
Ni 8.785806275250838 1.5491084756851745 1.3761572024180357 0.5828724290976219 -0.1493471551089815 -0.14144255554992416
Ni 0.0946718899489784 1.1969130361913614 12.05923750682307 -0.8241578623788129 -0.3921685654187246 2.7912047614006186
Ni 4.4245474257125315 1.8470802771337524 0.9117308203898815 -0.816673895296942 -1.0223438933673683 -1.0651967268668365
P 3.1398437374479324 0.05170242331027472 12.950275738537831 1.1334068081841706 0.12742670088680633 -0.3132315846021896
Ni 8.41843190578722 4.1115442416085575 2.87079120962348 1.957937223411054 -0.3025368238925048 -0.11366075745096554
P 4.571347781842141 2.9744985282385676 6.367905092010174 -0.6545223893344405 -1.172835446493438 0.8091511045573355
Ni 4.849852559495907 6.997219286573025 3.3269457203375907 1.3747999706878193 1.6868575895865656 -0.24881182356522313
P 5.504224898898949 4.892585950431556 0.0454335067893307 -0.5167894214256196 0.7753159011754454 0.5297665504115779
P 1.948629716275611 6.181457850328204 1.4905976659856486 -1.5770488588918388 -1.364899680854972 -2.7108063655472088
P 8.988914375241706 2.992609961082248 13.252484914422087 -0.7218384980825955 -0.0854369867185819 -1.5980941095979122
Ni 4.489671121609717 6.812471605518903 12.964663446034121 -1.0643631752219476 -0.5658077603058513 0.43018798208529135
Ni 5.969644458787217 1.8403484309138507 5.066210408320685 -0.6837236934887451 0.3959172338278794 0.663974792996592
Ni 9.11048414060741 5.9328221821350695 8.733763570946707 0.6162746587071516 -1.2799213789403634 1.114040744952733
Ni 0.35525981277994084 7.281026545838357 6.931711045487662 -0.7781875662962856 -0.08644665893001886 0.09854909862050769
Ni 0.07093798225560737 8.85625089617389 2.9213639738078125 -0.39459208725855266 1.3613705846557909 -0.7703050782244153
Ni 0.05550729968059173 0.30490652522579165 7.410554644474986 0.7906273347215352 1.3897025988312648 -0.2334361124401012
Ni 5.459905374333404 8.903558253856213 13.084853644010101 1.1026672130084687 0.8677133783722605 -0.17258144304657375
Ni 1.1106900743337171 7.695597612498492 9.323577505100891 1.7498282768818316 0.05160101200574339 0.0537918490094751
Ni 6.823390106785154 1.5871019091454415 12.730924523571986 0.6430041042821958 -0.22440768368924574 -0.7388666572094759
Ni 7.067590133838873 6.613485608624331 7.749583330499243 0.7661712585616999 0.03649192427844683 -0.9868451862401262
Ni 4.864155427286411 0.5989701671839663 7.24787635297356 0.5136555037823283 -0.6826415161681598 -1.4251653105142488
Ni 3.2145580087816903 3.483499876120336 8.685971151468266 1.6515460587694653 -1.2181994764505342 0.2942936100471061
Ni 1.1948565954967887 5.591370031471648 5.441046061039814 0.23688113356590815 0.24043722634828268 -0.7618896004672104
Ni 2.488726660669035 0.7823880780669796 2.8490879218446605 0.8789629831441509 -0.08849505681861533 0.17362453959910742
Ni 1.129022828149011 8.09564449039651 4.76047854030492 0.7919784494327908 0.22538136045642476 1.983808691861177
Ni 7.825734343807056 1.8352027183238437 3.7740030169476833 0.7634476889829497 -0.22830933273649712 -1.198840098087316
Ni 7.7287680931190215 2.684328291039355 10.626365883258437 0.5817699400620626 -0.3035860910926256 -0.28313013723111885
Ni 6.062820587836376 6.977115964984826 10.021326910598692 0.07068965320607826 -0.35382570397446805 0.26061910061279636
Ni 1.9890207935950208 5.016811567456618 3.255965318229091 0.3920202127663184 -0.7064920975335123 0.11045664869137106
Ni 2.6613385751130334 7.221269883502793 6.848489749307522 0.3340302665150957 0.3159590108356817 -0.1967888935307127
Ni 6.891575409456323 4.021033185925907 12.15301396900773 -1.2355281975369687 0.6166497826583831 2.2392909854680405
Ni 7.824009884569905 0.06814749367185088 5.478810796162747 0.9121986052688289 0.4420893615085677 -0.1276951240568446
Ni 7.076147878074584 8.133250612156454 3.112830590691826 0.8667584706581588 0.09930937382529993 0.7049005846766764
Ni 2.0564222511583923 4.864422856793776 10.233417875524912 -0.22077085826760687 -0.27535460705075804 -0.12572514481466734
Ni 2.100446681095119 5.024806787556145 7.5775108859235525 -1.717633951537474 1.818182597086514 0.1546377140839595
P 3.3978855469346283 8.7097456346731 5.171904082656002 -0.23131675210425323 -0.3296367654330904 -0.6770748207136598
Ni 8.268311735083413 8.339724635257273 9.16671718864075 -1.2399898328527483 -0.5317339585505939 -1.0949952982855078
P 8.098383337420225 3.9903341228217255 8.656466299440082 -0.583766401666801 -1.0152083107638514 -0.4502248461315084
Ni 1.3811719667665048 0.11877743244051661 0.570017695414099 -0.19074397288821343 0.19560490052494056 1.9176256682762003
P 8.6452213497407 7.096232756248483 10.96017139435262 0.47573867413189674 -0.5476966525274374 0.7673511378024139
P 3.524490364404532 6.07479036371779 8.96711149302566 -0.21139687325187465 -0.46579621820720424 0.9693835391202531
P 5.496663099035497 2.574211885954635 2.61544306079546 0.6605894214641269 0.23431285861809967 1.770399416164964
Ni 1.6171462310419338 2.8766377719569287 11.349813420072675 0.3393336810058801 0.11230964273970981 1.3711492613091094
Ni 7.358922306139056 9.005670217134256 11.03595630588656 -0.14305900810742458 0.3593119239000199 3.0349049747708894
Ni 4.07924060146018 3.25712540898863 12.485361528201414 0.6362637002345687 1.323070917744644 0.24990402818813734
Ni 6.980555661751981 3.114465599369618 1.0768491756033431 -0.16675635172436443 1.8828437847103252 -0.05731528878170129
Ni 2.192931182107987 5.172612309765164 13.04231114241247 1.5799500916990339 0.23595373665563235 -0.46079387989660636
Ni 3.0534916716901805 3.64899263264411 5.06083876390549 -1.5356217020953036 -0.02329779418567601 -0.1773752648907913
Ni 5.547806686892449 4.738647992967422 8.903864414533611 0.6142139195233809 -0.04739031635850548 0.7885938492312741
Ni 8.473891252590628 6.294257772193735 1.074419255769173 0.21394483648470894 -0.1507142106598372 0.12791881003187644
Ni 4.8902620802296175 7.2384683673385695 7.857599030695067 0.7018183462069267 1.0814000760995766 -0.4364740722043193
Ni 3.2773578344769367 8.563028273907847 8.833910388430969 0.666216280732601 -0.4244171410397852 2.064566527936535
Ni 4.044345661602498 5.7234340995746775 1.7108941059344271 0.2658520668769615 -0.9861630725714371 -1.2113837390802815
Ni 0.7606958563367404 4.123467908954218 1.1697753963887223 0.7717731781295095 0.8289200596541467 0.42294544159026515
Ni 6.481790408807322 4.980671697133612 2.719895493348312 -0.43224537883495234 2.1637959404535185 -2.1884723601542757
Ni 2.240957832948052 2.387961066634973 0.19977445285594414 -0.9697429793422009 -0.22176278986723097 0.35352359935301697
Ni 1.789988688164696 2.888921085881462 6.783218506095927 -1.0196226377814632 -1.4293636648663124 0.3016171402917128
Ni 1.0727519711163536 7.619813623135271 12.67861070107763 -1.2700295737479481 -1.9640729039951468 -0.1534480646512325
Ni 6.29854586601874 7.301194419376611 1.1877651026980156 -0.8716260831631053 -0.8395695689481927 -0.21994527704251796
Ni 4.123182036032551 8.598725502287627 1.4814063904686952 -0.7591588317996087 -0.6058143826057759 -0.49763855952878167
Ni 7.47984655200422 5.210679516882635 10.315357354411125 0.5216292660164242 -0.014770473440955209 0.3135334321133246
Ni 4.879435796034872 4.395001076002169 4.04472375159567 0.4781022892680669 -0.7764032207023531 0.5993259466679549
Ni 4.366911756021593 8.458112911656036 11.135982319007146 -1.1678086827028082 -0.1642479834802139 0.37712298393951177
Ni 7.873336796118196 6.925658839084756 5.2037162058132544 0.6118544181522688 -0.5442302912453917 -0.26343728678788175
Ni 2.2062657706476823 7.705815264021303 2.737185272084879 1.1047703753944005 0.6027308585844459 0.820747036925051
Ni 2.521094852767466 0.4102221095679351 7.0121390865719 -1.2249563355583937 0.9210367723857493 -2.283545584411042
Ni 8.471936250674712 2.4126383549698454 6.355595957305619 0.4837062657184057 -0.1453120658076594 -0.6254995197395292
P 0.47319806986975743 3.649933246773466 4.626858770205592 -0.5832776349558406 0.3405698674058264 1.874552234125494
Ni 0.8811248965279205 1.393510610933941 4.951810520264535 0.46358969747418877 -0.9099460617892264 0.48668643139265216
P 7.043622916954593 8.944834615062076 7.573623936359595 -1.303396322133852 -0.05636835148739969 -1.3554315934635366
Ni 8.659007801930771 4.869070597197654 6.70123845169825 -0.1713156889602727 -0.4107388722217442 0.04112813749887756
P 1.9821875085964633 1.0498268071400858 8.981323065915372 0.6101122386501814 0.9971807638381793 0.09012590755381897
P 5.5840295525798105 2.395402984305467 11.142271523283823 0.8808288327082958 0.06323679647245883 -0.535467200340781
P 5.934352985522061 6.1524648030468745 5.032130667375112 -0.46660534437206097 -0.8593279825220426 0.12470647374216587
Ni 3.6650660682075187 1.8581463257144126 10.56079862324731 -1.0102131715421054 -1.3217884514877944 -0.9140698541496128
