# total energy = -340861.7543118549 ev
CRYSTAL
PRIMVEC
9.37902749290332 0.00000000000000 0.00000000000000
0.00000000000000 9.37902749290332 0.00000000000000
0.00000000000000 0.00000000000000 13.72715478249503
PRIMCOORD
 96 1
Ni 1.504752382146081 4.383916804033801 3.9311958457196834 -0.2336986220728685 -2.0820410305722143 1.2706643791184697
Ni 0.18560438497116297 1.1611798540494005 5.50386176455358 0.30475080082468803 0.5450499589332097 0.35448956281071203
Ni 4.378139323216276 2.509264964156637 9.804976763961678 -1.5457042831422863 0.47678614155980464 -0.4264603967220591
Ni 2.6539458393045785 6.613480416014765 5.982979995206858 1.7382469998021355 -1.6088927428753128 -2.5133654402547942
Ni 2.3370472648524427 9.16037403770372 10.941722376086055 1.4689555682263218 -0.1613117836700254 -1.7108135861815308
Ni 5.2510735312186325 7.612590678299844 9.868107934628624 -0.6394518681545632 0.21423639958319876 1.7523793254384594
Ni 4.599034174213574 0.5286685697881198 11.149963981351336 -0.2405812081253147 -0.3098261584650664 2.0790374678592
Ni 7.271006503991012 2.7680041903141803 2.214011308910155 0.15328634226238763 -0.888478893054386 -0.7192943915045031
Ni 1.3635886422360806 5.807718801543431 1.00263114913394 -0.4938932335537365 -1.0681401257658767 -0.529372657407269
Ni 1.8048531187018109 2.92989558055978 8.579182915029016 0.6504687880903571 0.16344477085262818 -0.6539168945399576
Ni 8.581209722828799 8.17105547992107 1.7517912717454076 -0.24019220021701213 0.06825250451949536 0.03106149729149489
Ni 5.67476171052196 2.723678907288823 7.673946399098678 -1.360854821361637 0.1275917657097609 -0.43779613344985246
Ni 6.377391540789562 6.916169764105619 0.7244782743656923 0.5458832534677824 -2.0773616228186738 1.0745689121103557
Ni 1.7277012401223368 5.5913165046233955 7.895049464502061 -0.24219740357249903 0.9769148145002916 1.8072294405091198
Ni 7.388169313037304 2.0447029838747857 5.866958613783119 0.07065494331340091 0.7012442188710116 0.5142635696799723
Ni 7.974330382278903 8.629596124675567 7.151655567875357 -0.23096708207431835 3.2806445871686916 -2.972655224802048
Ni 1.5721125562231273 9.126740845801704 3.4070798557835547 -1.2555630047006572 0.034432470646256826 0.9212118645110328
Ni 6.372852091575793 9.071310794451753 0.013178471260882452 -0.3232951394857787 0.7286542354528484 -0.6927261540976715
Ni 6.7792828606449556 9.024218698372549 10.942766261824675 -0.025294512900730627 -1.0636810615532586 2.0497541455140507
Ni 3.812968517074709 4.9801134324876575 11.897942346522855 0.21036406111198608 -0.6775206500018267 -0.19754274097760172
Ni 3.0699525952482416 1.7105751362703892 3.5487444357514377 0.6666338278859938 0.7997277543609066 0.3568431506445532
Ni 5.483213835950041 0.8121796828535294 3.789079196635883 0.008835596013758976 0.29311013126196617 -2.3138018121924215
Ni 8.435572186896138 6.209516331125812 10.795088787454008 -0.5255787375824754 -0.23463167541009916 0.2212156591145093
Ni 8.982228793145183 6.6135648272604755 6.8433294243764955 3.016698479065192 -1.1191531264786339 -1.2103015617596964
P 6.9391202439115975 0.5315094771576461 2.0614614298565272 0.15846068737447547 -0.21709109542317448 -0.6225543210682761
P 3.644418017445274 1.6677880137224244 7.69072078942683 -0.1065943375224874 2.3007015273650375 -1.8785032483534423
P 0.5297724813014683 3.836256641863529 10.110667400788907 -0.12485842593899786 0.5342122448877573 -0.1654720856953021
P 2.9846034468075398 4.67875590627357 2.2262565669545706 -0.1734751585054367 -0.055601134304071986 -0.04903273705793491
P 4.925321154994187 2.716194443502484 4.4922389419460025 -0.10488198281707099 0.21208772867131215 0.6738907665587233
P 7.1951301731244985 6.581000844470792 3.089611974374237 0.5342407841328477 2.427990417122399 -0.7933573320581885
P 3.2973189750833516 7.723854079173695 3.2522377424575186 2.3579054873798553 2.1582035339674057 1.856570452836093
P 0.7329025166876088 9.378774067438906 0.4153483482271206 -0.38182501740087144 -1.0307082061716635 0.09812666637110842
Ni 1.4894645676451643 5.808300301236104 10.745849832025565 0.311722861267147 -0.17890121461701447 -1.7119199318718323
Ni 5.095287887746099 1.4099866902949985 1.2919178672114138 -0.40841433785362563 -0.5035598101092231 -0.1599285301692536
Ni 1.8536709558044322 8.053967703093187 7.311824030805731 -1.1156715956879368 1.373147522686061 1.2376915237368749
Ni 1.1099609859576782 0.60076515265226 8.353797385759915 0.9105775247256382 0.2697843120518322 0.2924966660476834
Ni 6.274841256278503 5.09960224030464 11.305135298535642 0.12272158210165314 0.6071153608053866 1.2173309578026519
Ni 3.9462351159971187 6.002605609834568 0.6769453640033323 0.34750541818339503 -0.39768178192746995 0.18085962389496593
Ni 1.830542274479732 6.419184486443602 3.2898223185615216 -1.3509064518996736 0.03902317534073279 0.029387194912865518
Ni 0.8393047677112605 1.6710519152232335 10.687550736224182 1.5476498369044311 1.140867892447906 -0.4378534690503491
Ni 4.9013858773215855 2.667301574181453 12.86440327686981 -1.4205725489372438 0.0038581974038256134 0.1678809522471109
Ni 8.401817067639206 9.19474817276253 9.356579537233403 1.1236116764706197 0.34439721157171654 -0.2974900054972167
Ni 2.418466600853952 6.964368585406363 12.702615055924523 -0.8195766707660337 0.6170591022816597 1.0953475394186039
Ni 6.846099051138533 6.397049982012827 6.359063045637604 -0.48101663470138456 -0.29083650473644107 -2.0827714809803357
Ni 7.3163634800195005 7.017172509111984 8.43112183844173 -0.46119574332071545 -0.4858896465229697 4.242183690543862
Ni 0.6156102770645614 8.03219898072716 11.150924393746976 -2.382981713622193 -0.3733038673037377 -0.4414355299746527
Ni 4.905597060579814 8.317443338037824 2.0179605633309423 0.08070692823276422 1.9564521542250954 -0.9219554275452767
Ni 2.5307147995944264 1.5884602008090773 5.846601435025916 0.06160928817136486 -0.12810212968727616 0.6600137514663149
Ni 5.298887812400029 0.9694912940679646 6.004724332101903 -0.7967064510360795 -0.24955307260662185 1.7860988291780915
Ni 3.809657720437394 4.5859973262649385 4.288363273889418 0.7623459712783387 0.7246967934669971 -0.8143629877755781
Ni 5.885001986505121 0.8506233778583199 9.053538475618755 0.7540958154544045 -1.8088651763403298 -0.8144141527284877
Ni 2.088850065381421 1.3213455032715837 1.458894566059711 0.03860742795955286 -0.25304411647901576 -0.40021071899691074
Ni 7.520694968802921 2.430077836652808 9.037986172547946 2.295397598653621 1.0313813209792884 1.1369212490953322
Ni 2.8217085006407143 3.6815120704214253 0.31389634781302955 1.943397377923666 -1.6440420370829363 1.6377132666514311
Ni 2.452521848984522 7.944777067252897 1.3430373176137438 -1.000983425413721 1.0153867453232448 -1.4548546100485653
Ni 8.983494961830841 5.322785573963425 2.830649527366926 -0.46422090330028437 0.37128529421181217 -1.8257593809925072
P 0.5317439528401755 8.47985057478499 5.618373122581828 0.35001892863386813 -0.8569268292797179 0.4065065793079515
P 5.691325072735836 4.572538422087751 13.53798063216929 -0.11305114889142466 1.1036699432413701 -1.1198025871371746
P 0.11330709092277759 6.833681218991776 8.898641963934372 0.6087287280390936 0.959865829437805 1.381721380398001
P 0.6784591390097421 1.8807388285956261 3.3739287458848173 0.7016995612408754 -0.9352590866327183 0.5307140019265117
P 8.698063023974152 1.5085039930665516 7.719890502236218 0.9586916066240458 -0.9950991987188023 -2.5054970932503107
P 5.621592004751593 8.369665762050774 7.936944641553685 0.13115968556667731 0.4978681590410845 -1.3410169607001032
P 3.3270880077372844 7.071223843448663 10.79987959459945 0.11747370343915252 -0.018923576377380315 -1.2500212489468214
P 8.629793084248892 0.6501766821830458 11.396132497217112 -1.0531565078728506 -0.22940590823478554 1.5709044365569977
Ni 6.279108713700538 8.256564071825892 4.6870816688088235 -0.6543940912866923 -2.1795889416217173 0.4749028084941627
Ni 2.563203750165701 0.9111593716710304 12.80753166902367 0.0432554682545255 1.2415751750619972 0.8240097668367228
Ni 5.066522411013392 6.255520460038081 2.971407155394785 -0.9037952116964822 -0.14925742360865263 0.20993802931816102
Ni 8.55355097131763 3.7546684833705988 11.862513070892662 -0.7815431130320799 -0.2125222451055695 -1.7142169554361253
Ni 7.08046218534032 4.713308242851102 8.011112113645924 -0.25293381615339666 0.01849188815660041 0.10459607614553598
Ni 5.005408669118928 6.163737298868772 8.169207811542739 0.13847961626685829 -0.6240998111785251 -2.016782832794352
Ni 3.5208587117795807 3.8172734906059484 6.43431567118859 -2.0920608767020616 -1.4621858536026562 2.2932810665312506
Ni 3.688846469770945 0.2668323888157282 9.06147313271555 -1.4613026796667543 -3.018716280826169 0.290010666401036
Ni 3.519845776831054 8.850012645280504 5.195082614036072 0.061719331386667894 -0.7668027214981117 -0.704571997692664
Ni 0.9909880246422602 3.3769750539522394 1.8733997397324558 -1.1616382922260382 0.5681014414360345 -1.124877687667237
Ni 7.043602608046698 2.2655321816809755 13.336644804705863 1.518643165259436 0.09845576757575303 0.9490751665802043
Ni 6.413519553953692 2.0523562701525453 11.012128858230524 0.9454362842760363 0.7355702458463913 1.5817205533358953
Ni 9.226618107531927 7.140759951859581 13.295765376310957 1.2910591407247378 0.20082166883918964 0.503029648637366
Ni 5.574030957307328 4.332032025003694 6.026275461034546 2.0423041169939085 0.7889766864919896 -1.5643339824283315
Ni 9.080877402298952 7.284512303304706 4.071556740892703 -0.5078751496551253 0.40210433647519783 0.6562735676975923
Ni 1.5732192814446662 4.318498088608098 12.543270071591193 -2.9029011960363618 0.09121219863946227 -1.9859301090795543
Ni 8.712534863099867 3.4951039028105515 4.127412600082127 0.3017819480043512 -1.68775387614859 -0.030120987755096508
Ni 6.615337463420398 4.664293446175156 3.482593218293513 -0.1942440156216719 -2.3194245576958377 1.4464391322913606
Ni 8.006725542577165 0.1849459772546204 3.953159651853577 0.6409076267644833 1.0457134213312442 -0.605064648923945
Ni 0.26950165998564285 1.950800162535411 13.212083818924405 0.02396962344172001 0.08149702823422739 0.14441037992899647
Ni 4.873061214872034 7.101527480658762 12.383348277078841 1.441633226262285 0.9927317269278904 -0.013569768264634696
Ni 3.500074787280175 4.629872415979841 8.880095875349026 0.7710506981411882 -0.35138701262598837 1.2362689323577354
Ni 9.261498710065002 4.108398498034453 7.548054529343181 0.060948000438282135 -1.0705536203033756 -0.36542060790091907
Ni 4.9308266440199775 3.7076420404825017 1.5566868700208831 0.2455506363154481 0.5709841623004682 1.487511219741322
P 1.5825232765274329 4.658619134657945 6.068157507447947 -0.6622770935791948 -0.690289776742037 -0.8733767473056248
P 8.884883868786277 4.227315185186064 0.11984333504896719 1.3189304132137092 -0.31739214373778246 1.6907255571824042
P 7.760291600238764 4.395546797887258 5.736989680859802 -0.2813802444195477 0.36233914076211793 0.991893547297311
P 3.873875920368546 8.726565887942426 13.549676279213855 1.3437626417660407 0.037736081098193076 0.42218902304021483
P 3.2013058726012122 2.817056503099331 11.558044521322776 -1.3466281362392938 -0.07599281058654656 0.7123153890835087
P 6.049331923849027 3.856946776089923 9.650066183736344 -0.9364744470970582 0.7253763360325248 0.19947723899615324
P 7.308353790704295 7.221194489994467 12.549790371370971 -1.1587661128845657 0.4350152282706057 -1.612170128075004
P 4.877459978676286 6.44372940089078 5.727312400490449 -1.8269639428235698 0.37395384218291083 -0.776448986338624
