# total energy = -340883.4212091799 ev
CRYSTAL
PRIMVEC
9.16404394107294 0.00000000000000 0.00000000000000
0.00000000000000 9.16404394107294 0.00000000000000
0.00000000000000 0.00000000000000 13.41250462351535
PRIMCOORD
 96 1
Ni -0.5961971087048755 7.86275871742563 11.649001616550287 2.7061195015945008 -0.47688564325214644 1.3505328706103386
Ni 5.265751189823719 5.892260206101697 11.3427539362767 0.3149164285037802 -0.3720751371029592 -0.6496239235915586
Ni 2.020405893687241 2.801457344077376 8.351067538843834 0.8011781136541879 0.5272286144810726 0.4700809616254872
Ni 1.8545641936085093 3.110844625746053 12.945038419768759 0.013803738652311711 -0.028650573857157108 0.3392282657762674
Ni 2.626249991267227 6.773767904282243 8.300596567788764 -0.1813432483996038 0.5254776932282369 1.9137083354996656
Ni 8.155220010253869 4.829331933435952 6.088968238401525 0.49663042997924145 1.9329697548324387 -0.3273914210423394
Ni 5.085439464634511 5.309216249417765 7.300211977438725 -1.654164984449551 0.8618108968448963 0.4928113133434674
Ni 3.46421931750358 6.8450641648012525 12.746359201654325 0.2176654798694058 2.601768194469919 0.6656568086847051
Ni 1.66502427634441 6.808472138033592 10.777175730611173 -0.03181354496617102 0.22044972748276226 -0.18108999473821716
Ni 5.821174718589362 0.8177122074860609 1.0821480216614412 -0.7345217499772188 0.23670115634461814 0.3023416771625632
Ni 2.712584447610363 1.6778722657078617 6.298713039366436 0.22680138073240294 -0.6107478153516515 -0.5019029912320905
Ni 3.1980496662471976 4.90138880958775 0.7769606212518723 0.9677421468620883 -0.6153279785231661 0.49024638082976857
Ni 0.5770176815017602 1.1108928777501275 7.360647929687674 -0.7998599090633968 0.12169339794745493 0.029617565756116734
Ni 8.10575250199145 4.957207000181746 1.6592069413601598 1.8795710274963244 0.9697905447506847 1.134855367705239
Ni 5.359700966538488 7.951136755529144 3.681772800163638 0.010131432007047067 0.724882684225558 0.490643102047555
Ni 1.266984035259164 9.341001453680262 0.4457583333922563 -0.04105434683814865 -1.1123062787601294 0.030217404123644733
Ni 6.1772986234774425 1.7540621255992563 3.7973075655707555 1.9922072003375173 -1.9759655416676742 2.5401455365621155
Ni 5.09824163377912 2.774359266653891 7.3320661935780675 -1.5640876707454805 -0.7755275029656192 0.3098842653965115
Ni 3.6384094614554243 0.7299829836813578 4.06744891339641 1.0269297129658377 -0.495927747485262 0.21920402800111927
Ni 7.2924344534923895 5.965242650674113 12.952696811146103 -0.38969670683946434 2.017191381086681 -0.3423832664654813
Ni 6.0693278597968545 4.395762694660192 0.9060224316656875 -1.7848302468783133 -1.675161127085244 -0.8190048574229638
Ni 1.118838103697426 5.7432161982506456 13.016272364790144 -0.49498492395601856 -0.8025621384859082 -0.5500016465115302
Ni 4.062328962142944 8.254026730165947 1.2863971455783765 0.8330613355160299 0.20221674941450338 0.8617754156212707
Ni 6.493458133491049 2.3388747427305114 12.689530217032662 -0.42800177306725 -0.6800110205238482 1.298151528795145
P 5.007783357740154 6.920823314635528 9.291042752671851 -0.056535473192883275 -1.4726404732770766 -0.9535481147498932
P 2.945745213212571 5.234950838717757 11.643904575406241 -1.2740394662382897 -1.6994896765282799 -1.2126402371952019
P 0.022476650151025283 2.047586447504642 0.46791240920262994 0.4182020133680088 0.35928184199303287 0.9744668671804313
P 6.797182036110787 4.035084260019162 7.563740551281023 0.8329335516889139 -0.35490351041967905 0.6669022510560321
P 4.167367231817609 2.6343968261774324 0.5598268517964117 1.382553646491309 0.3184794632646902 0.09701106470942648
P 2.1800068799596164 8.889653969993592 11.784816410817117 -0.3269875007357014 -0.4355826707383014 0.61042514190491
P 2.488102031456934 5.07633956917238 2.977562773176839 1.0421832966907985 -0.0866726588978959 -0.08411106881830674
P 7.117767779264583 0.40405093739301207 11.587357843332647 0.5067168676809661 0.6395863368498985 -0.7566548344308324
Ni 8.437124324660784 3.962972399604755 12.878150064302401 1.449824760934142 -1.3933049714705423 0.0712601809975676
Ni 2.1356987283388693 7.007038638409673 1.4979894177670185 -1.3009149504728952 -0.11273181787879295 1.3065189269232338
Ni 4.798210840798092 2.867126881722521 2.6867931628282675 -2.6361641554512856 1.555009362593296 -1.6424649224038037
Ni 0.8400129079967307 3.4765816125473004 6.257026720667859 1.2622051926075228 -0.3434366474306601 -0.1051671181576576
Ni 1.26116486746616 3.7210599722036193 1.811331900726185 -1.0647665813079534 -0.2562780500352812 0.17598712629401303
Ni 7.492852090709711 2.533748133467884 1.9437000981316788 1.1868448733986527 -1.9456743468833007 -2.2614474669604214
Ni 1.3307199596691535 8.549713766400702 5.117272603473185 -0.21914309285619676 0.478950239090659 0.10366353702893759
Ni 2.7170839931007014 1.6345721589016502 1.6051821541316609 1.0116072236761544 0.18044490495505053 0.5565137365984352
Ni 1.8521082298785485 -0.094318171274262 9.514602349617792 -0.9550684080491616 0.5095851903676966 0.5542089997246584
Ni 2.6160320824653382 2.033895366114488 10.875220918486088 0.03982047443104755 -0.7680458498765934 0.20645804118936056
Ni 6.488023855536323 7.138084464299371 5.977926603654108 2.2249192901274006 1.0356256980779388 0.9153731463420687
Ni 6.261424545272367 1.349295476387924 8.870802615557391 -0.6598764545575022 -0.20253530909618667 0.4203920790407922
Ni 1.1160430703480304 3.956676701535788 10.640300656480324 -0.05746775519916555 0.9735546397788072 0.372362586436391
Ni 3.4931502036807673 4.4949634684543165 5.008108681293937 0.678105061750387 0.7048630465705216 0.9695992546754849
Ni 5.710271460902851 3.6839089387660784 9.557374607502938 -0.15768961353640584 0.5408068673861396 0.24140190425439717
Ni 7.7613952293021375 0.11119833989585802 5.044148116222357 0.4089668679229859 -0.7180983143138729 -0.2726253810450531
Ni 0.3894581140960362 1.219184382962614 11.874089775996813 -0.6793456190257074 -0.488227807737843 -0.5575491198414849
Ni 6.755128239257092 7.452447821734349 1.8466336301312405 -0.5647590073263629 -2.2238576816321056 -0.9897253360013986
Ni 7.251727771072668 6.07285601664773 3.8263997389182682 -0.43640799485307424 -0.6882015267544406 0.6384511948041908
Ni 7.737028036921668 -0.4175486574596509 13.644540877471673 1.2982214628011322 1.2326184800893418 0.2934073507874108
Ni 5.1867388044516245 0.3931622205872681 6.300805190558787 0.6648222285985518 0.1740300025676422 -1.2749025855695333
Ni 3.9413544203548385 7.416323161198882 6.644983764394612 0.7198404938159603 0.15928549726861602 -2.443615782364482
Ni 2.266460468871743 2.8847768300206718 3.929998337316901 -0.5478776581899919 -0.3983731515675397 -0.1987611867657351
Ni 7.543391792093045 2.423229765619649 10.499791122590887 1.2674944660309204 -1.1353495337328383 0.8844602588132962
P 6.677893678376087 3.95764809017525 3.1690390528892243 -0.49684563131384113 1.7640703886231428 0.49411691952876835
P 3.9705785559326183 2.096247519915432 9.236052075230152 1.3962172600213307 -0.22639926019797785 -0.3948096025859975
P 8.79487026529589 6.860725515601637 5.376563723476924 -0.3798812634109393 0.4945794609874837 -0.4448121597563694
P 5.273888860690157 6.3560707893135415 0.655029353294335 -1.1418325703540206 0.9190917328442364 -0.6483923651773027
P 9.052480699672484 6.936090611553866 0.862784640357102 -0.5831470229152473 0.33308435766205857 -0.45016288254532155
P 2.170412126133986 8.706464735061072 7.414633311527967 -0.40121807721550257 0.2670013499900563 -2.157765675099039
P 2.2975540693782985 8.872672996890543 2.8594519950663937 -0.20882654142153714 -2.131293339840123 -1.3187388660281933
P 5.026963701347646 6.185317161774889 5.05189998084614 -1.6608362258221394 -0.8569581967382854 -1.395205788037681
Ni 7.249839978056354 6.042880429480933 8.219383895507848 0.8667543568931008 0.08322892332366957 0.6106943364058967
Ni 6.281502965169174 8.253495215627373 8.047636885624689 0.2584472897724581 -1.3797807117318623 0.47634956824301833
Ni 8.9244865003577 7.729962559176147 2.8581507008512648 0.3322942576605955 1.5706473262408691 0.445803062914729
Ni 0.5784362754771256 5.732310986166118 3.7342690248915495 0.44742594323013263 -0.9210262308627881 0.20739109452659124
Ni 3.1372828920182054 7.011015833405207 4.066886241109024 -0.7166032178255852 -0.21956166845085412 -0.181533510033539
Ni 1.6671869906737786 6.036969621250243 6.0750727988353335 -0.828487085881786 0.8394073323387158 -0.7201387417826695
Ni 4.861900944989238 5.419771273441072 2.8110062776841636 -0.268754328125421 0.6474600831710204 0.5634839972686811
Ni 8.460181058782355 0.06696441702963553 9.523105665830593 0.25655958583144206 1.176774633646844 -0.6557004688029417
Ni 5.971235935298719 3.919479847879405 5.43658454454316 -0.43053868055649075 1.313641654010944 -2.3007745466948184
Ni 4.211822008138652 3.647610161399009 12.151514705809682 1.245681998141519 -0.5956274147704452 -1.3081477207759085
Ni 3.9421425281189304 8.254943134542797 10.533483645910191 -0.3050037973757586 -0.23893055989576914 1.3847953913376343
Ni 4.1151321823371 -0.1283809219618149 8.327140220564253 -0.7208715061836359 1.615964819230746 1.0279913214611327
Ni 8.619562108004288 3.38320000654618 4.026111744765414 0.7280919351914751 0.2847224214189032 -0.33901460710356457
Ni 9.057887485495904 7.947095412227231 7.328767137821403 -0.3452243354587022 -0.699315634389731 -0.08974615561689706
Ni 7.677709181608101 2.5095092377001738 6.0960098896332475 0.4030001088165898 -1.9542060385033955 0.6340381533381597
Ni 3.7957835850920523 0.7088351198767665 12.919407505752613 -0.8290974657722753 -0.02312578738418598 0.2990462942407431
Ni 0.8792176036427948 1.243551575343083 2.765940259643761 -3.1107350345273264 0.28458049652440026 0.9636556354975403
Ni 5.005730611936008 1.1661245695429394 11.046592202574738 0.983473698664732 0.8044102474382404 -0.954429488913582
Ni 5.645078453533667 8.276460309311261 12.426671534789842 -0.4293965965322476 -1.0218720959372722 0.8946922209539495
Ni 8.600024366689823 3.4043597836076707 8.673732603528705 -0.3282450272918863 -0.06666767653087874 -1.0878044369640232
Ni 6.955170150679905 7.594893718072074 10.250265207626873 -2.6629583928259946 -0.7984892539681152 -0.6061213723232336
Ni 3.3549655876954 4.722708284189335 9.349615654822664 1.0207485238557905 -0.2391190217574914 1.8609680676831561
Ni 0.745495876972692 5.302663958123279 8.48598425682135 -0.06832886628338555 0.11137710362311141 -0.34310060424748007
Ni 8.186890945517842 5.438328462072307 10.56999227987956 0.3241070938641128 -0.6298318285662959 0.36924255275017054
P 7.280768625775076 0.6552162997872125 7.164852636147189 1.6279672430082606 0.23836517431060242 -0.48718625384720615
P 2.6761940298056084 4.742438470422938 7.377038738372031 -0.250917042833684 -0.8617188513517224 -1.1324236183352951
P 7.120150430644396 0.1338830138404285 2.6961817256691063 0.6739756129630458 0.8390345223803293 0.9130663525857631
P 0.35431492264817593 1.5546342051089346 5.002314256419107 0.9077673089703528 0.8847844749219342 0.21271636339424657
P 9.108564647535767 7.054508385130557 9.440605445400202 -0.4974290146211368 0.932117455679943 -0.24263423399960146
P 0.6438501363011292 1.949375390437517 9.851390122154315 -0.9036419739480697 -0.1282571672079017 -0.9662231391144004
P 4.611218527701639 2.241323496814719 5.240359457349931 -1.370836358054381 0.7885627388830225 -0.02982248267807122
P 6.739787629988606 4.106243059881645 11.56426170382287 -1.3734740527875442 1.3395249495356092 0.023283138897656673
