# total energy = -381172.13115553645 ev
CRYSTAL
PRIMVEC
9.19050255404241 0.00000000000000 0.00000000000000

0.00000000000000 9.19050255404241 0.00000000000000

0.00000000000000 0.00000000000000 13.45122947807264

PRIMCOORD
 96 1
Ni 1.9240776778792226 3.1807502453483223 8.374076275540604 1.1822310287757254 0.2743392784123662 -1.5784578234242237
Ni 8.321145413749818 4.920852441601664 4.619165921354736 -0.9243869198049047 0.8548509205872955 0.04072036053749761
Ni 8.236969600171467 7.287553916592688 3.449393232443202 -0.6467512300294539 0.06941541447934496 2.084389733310049
Ni 2.3654975191466345 4.4846436153248534 6.455057050308342 0.649852751772913 1.6581105993608607 0.2708325508106884
Ni 3.7013370762613205 0.010487282549869746 6.320180909927247 -1.0497541670595212 0.12569994800368675 -0.7099939400391836
Ni 4.030770642995245 6.70875444202806 5.9521555036041915 -2.5591264485399927 -0.38220888310285145 -0.3965250426152074
Ni 0.9917011861744764 1.4886316633206138 12.936330009365705 1.330662871159289 1.5927071342543861 1.6422733752182876
Ni 1.2802921592254448 7.468468960843136 11.135465724031468 -0.9945541248486097 -1.4611460994842318 1.4756396651147166
Ni 0.22383377247727868 1.5799301164363846 6.975606200160563 -1.079080169717148 0.34792913598437497 0.37550293183758554
Ni 2.1942141216513034 0.7403868917864401 1.781816968635783 0.9690171569197699 0.6211119321947948 -0.061477904799823166
Ni 8.171854889045512 2.868990015169826 3.3789627345966755 -0.3609047223084365 -0.13422032676987208 1.4048962758525674
Ni 4.341317726826722 8.770579373309655 0.37444589145962504 -1.026278452535084 1.2515567117547413 0.9520728157559474
Ni 6.0658879736371745 6.365976265476932 4.730326888752146 2.4760376503386134 1.466300904212294 2.4530465887600785
Ni 3.7034876538764894 7.303637296193312 8.375932757071647 -0.9472154876636462 -0.3069385525046262 -1.4940449070947817
Ni 4.621940534098409 0.11575070441029664 8.426684550689114 1.5161126855280989 0.5256044486140884 0.4810873400383199
Ni 0.894664183217203 7.733743628724515 8.910040655452324 -0.36798759729714686 0.42465265408935904 -0.7450154504196911
Ni 2.6689495349485797 5.469553020056552 11.69305995188037 -0.26026943058286145 -0.9203058077569956 0.6100664730139106
Ni 5.791946661776719 6.056311469897832 8.849307975979842 -0.09411240300539275 -0.052481871948799934 1.1447446017944929
Ni 7.407379689868652 0.7333837287831969 10.977790703778789 -0.2032035388078049 -0.0993368846291257 -0.14741574241422356
Ni 4.862106748797555 6.281083592693525 3.0384040644304338 -2.4286645603712884 0.2461021379435439 -2.0550272209875318
Ni 2.9373673547290506 1.9546820516335528 10.107092594267042 1.4463789684773862 1.4144821197687898 -0.918894529231766
Ni 3.0922365145291164 1.1014357875638767 4.115564977400523 0.5530748861202152 -0.27995662459914367 -0.7098900674714678
Ni 4.894080507443596 4.657443445753958 7.1199375296462994 0.13048734209000107 0.43490287106245745 -1.0008438145120633
Ni 7.65412630445011 0.6553646329159641 2.424906766240551 -0.127302002383484 -1.2513857333945158 1.1897635897073444
P 0.2793499226575812 3.1386945053183477 5.063177484363505 0.8425237664805102 -1.456841044350975 0.10695583462696419
Ni 7.915007912074861 5.073157451168259 10.955636078141495 -0.8883511092272702 -1.108281988092085 -1.7943721249304776
P 4.133244747307792 2.9619519492614335 2.601387392972541 -0.3236625501275264 -0.16830749826156818 0.16220395646699162
Ni 2.7456718508948703 8.810732679295443 10.18414117305666 2.569633518718904 -1.976854372030531 -1.5657154361568906
P 3.3493867780865223 6.467255604447719 0.48102263614572577 0.4152488442769558 -0.45169268892628667 -0.03948288858597071
P 8.186238025659783 4.17072361702856 0.7356225352236039 0.5562545693997775 -0.09654158127217566 1.268271967626893
P 0.25621283228925495 0.04609680403591419 1.1215648264217548 -0.7150140189615943 -0.4973017450146532 0.2679261757971708
Ni 7.76763820242 7.310539363667637 11.427303701661236 2.853718306553808 -2.0262846016372005 -1.372435584220701
Ni 7.099562185317966 5.8989608743879565 13.182595041609405 -0.37717106356862784 -0.11961594659313592 0.5824355986705194
Ni 3.064665006642332 0.7801643062147033 12.048791222836707 0.7698795606512224 -0.2649925470901436 2.760411687279162
Ni 6.83529847272577 3.703882845489533 8.262283001562324 -0.36139683145350665 1.2721677031368737 0.6034937048923994
Ni 4.528105502257055 3.174491513058022 11.698211228603883 0.7727054601357918 0.29860200761447286 -0.7134690430719778
Ni 0.2588808352024327 4.74813532569622 2.499399466249064 -0.35779368748328055 -0.20291480392279249 -0.5324304703969863
Ni 1.232382069020843 8.389871992408942 5.273205283791609 0.8599057094023835 -0.31727387299236326 0.17358802993421715
Ni 8.91243478138716 3.074452891942141 8.862827205346994 -0.8603692793023634 -1.0076554381172582 1.1950099257079483
Ni 2.050070278419197 0.6508263627177996 8.194866069527821 -0.13311218130735786 -0.10769168435172422 -0.6568104140376688
Ni 1.1981290657228285 7.750801201603805 2.6586083813905095 0.7261571800626074 0.19624047722641044 0.17510883745411776
Ni 5.861822053264458 7.523492500082528 6.8752192589950445 0.4881036234551529 -0.2655247654445298 0.6986404626995774
Ni 8.367281736947037 7.2258672629473235 1.216196674841038 0.6343124900454689 0.8401048726263726 -1.0869233199106507
Ni 2.239220013025164 2.145394171686438 6.031625779836531 -0.3847751011681309 -0.35398614081173224 0.6001929226539405
Ni 1.8629332638889644 8.108808041011065 13.404459289373307 0.27804500939872756 0.5999316985727539 0.24222594281758927
Ni 0.19359977597889422 2.2216937245117983 1.5729600392426055 0.1700753887952684 1.1542615401459928 0.029381795596226817
Ni 8.908997533403939 9.028409734061603 12.336714965396816 -0.11110071003327318 -1.798087883219168 1.5181878228895724
Ni 8.767555697944738 6.767637992371602 6.309662379668438 -0.2897124184343269 -0.20919678027676228 -0.47480150702960816
Ni 1.2807976368700358 5.6768999498677974 4.459513104936313 0.9069036754184768 0.9704160941498255 1.1225588097260732
Ni 3.09195160894762 5.385570207033409 9.236461575424487 -1.1326102804248042 -1.0136404520560995 0.27782003787211507
Ni 5.810833144679165 1.8512337540423391 4.093545452151874 0.5090917956710458 -0.38804914393371237 0.5013147228287883
Ni 2.193276690383153 3.5111212433503973 0.9962679469307907 -0.20983569941234184 0.2759567594111312 0.0372992506710906
Ni 3.891534528166985 4.675024877283098 4.688398896708714 -0.38022784811708066 0.37812545706209716 -1.1456910248681624
Ni 6.803131713524522 5.546909480684239 2.3563327499250675 2.390291874130361 -0.8942962710671114 -0.4655470783108756
Ni 6.277637154207676 8.110646141536852 12.562183728291782 -2.000749433480573 1.8457543360571955 1.365609562437803
Ni 8.63277697689151 2.652691535798006 11.587629262872095 -0.34640318625815175 0.37176583339265656 0.7688562615930308
P 3.0958851440728012 7.224709259616078 3.9708026133414895 -1.0897062819724266 0.5082757275276536 0.32806813539438984
Ni 5.994156100618392 0.6609322394085688 6.372775399321814 -1.3822949935132838 0.3042574061280373 -0.2910715035653826
P 7.224883879166028 4.99804347318203 6.609584323410612 -1.2986122704816474 1.66240819829495 -0.42860084010382965
Ni 4.174914486227351 2.330426561114645 0.3873227046930161 0.18451573259031445 -0.6171007541528727 0.7483645693975821
P 0.8863982451527451 5.381425290347762 9.713657286275525 -0.15672390718902685 1.8124336104178784 0.24817650397406932
P 8.89733478556783 0.6507941959585983 9.04866927805681 -0.2035526946171075 -0.05437009011044829 -0.5643520016959312
P 1.6638026434279813 6.881361271901958 7.097958442609218 0.7997850899614033 -0.3176981050139754 -1.3394861258778736
Ni 6.70215566114049 3.5795261544175085 12.817367224286595 -0.8148959774609127 -0.2536213291387245 -0.4820281066850344
Ni 3.925373958846698 7.502335963030736 12.013912346309663 -0.6489986313027338 -0.8299207330045191 -0.40169193152812754
Ni 8.347439441771181 6.104598370710219 8.701520098455365 -0.788471721831113 -0.6665744354029681 -0.5040694027557899
Ni 5.365121338684044 5.39549594987265 11.483866650090972 0.11453133298137694 0.46330713323676337 -0.4459164485641417
Ni 1.0776048142470664 0.9157104342374481 10.746241504344525 -2.84645262613033 0.08748152795243645 -1.1331080459968292
Ni 7.075207353351307 8.075271896918109 9.537419288812938 -1.271438795390649 0.3271309682921011 -1.3505961197481062
Ni 4.732355232682351 3.7321436410734865 9.306569486628737 -0.4395722515136688 -0.8983773831150206 0.09754688260823845
Ni 4.776506407311721 8.611556106321315 4.225529341355647 0.998563503118319 -0.2449579970367717 -0.05548620599276251
Ni 5.0129688494514095 4.79965728343399 0.8800007362727483 -1.2162076428314863 0.4865720173019749 -0.22384152677313063
Ni 7.781019574247719 8.720895516097672 7.3740448177832665 1.9810334431088847 0.310741214080168 -0.10310560764293857
Ni 6.441430292060431 3.029079380463123 1.9792271270046309 -0.894487046921679 0.6037546718632699 -1.0390918022496685
Ni 6.660008016084227 2.8040499235938214 10.41199119518278 -0.4721010773793095 1.6915022874474288 0.46560235702884334
Ni 6.941724493168756 2.791495697002705 6.148314834565242 0.10912610280540562 0.8578441988876645 0.49384104015956237
Ni 0.21018863322410927 5.06893901046158 12.583813576228962 0.02465199422072529 -0.8768065989227801 -0.7332827353637952
Ni 7.466152954180647 1.4558031879300828 0.26416169801301476 0.6273311736316293 -0.272219403855886 -0.7131970203575136
Ni 6.787075905431785 1.310391055335184 8.650754519083955 0.1737574656325459 0.08603322554168409 -0.5028812959849597
Ni 0.5061623370368954 0.9540109348932426 3.69694953030627 1.6542896829528735 0.044720482835826206 -0.46764124183574296
Ni 4.484367900245986 2.6686278673565673 5.816177421957887 -0.08774275203362308 -0.629152028890452 1.0965598145591502
Ni 5.2801459513769755 0.9589738063128638 2.1257384437139497 -1.083630508091992 -1.2684912827265509 -0.990685385921823
Ni 7.98677654710416 1.0758126662344254 5.205962052256795 1.1030958159054551 0.387342604784991 -1.0563094516795357
Ni 4.9771350797012195 0.938148127355713 10.688669438726132 1.2145467101892953 -0.7088965932099468 -0.5239669130106653
Ni 5.976786050649718 7.697358428816588 1.4739185876619627 0.6723658452737645 -0.14024802102119072 0.859844517147145
Ni 1.2229526133235629 5.966704069265784 0.7756830171328382 0.42609915672789844 0.5941269189655187 -0.29383029725744236
Ni 2.0757577332670505 3.248521011734037 3.8683588376876177 0.08203413168462001 0.3655355362122285 -1.0338668064053034
Ni 1.243245243128236 3.558130664297364 10.527726275738608 0.7162651177598761 0.0991049711239777 1.8440337538216627
P 2.512894800309382 2.9377625463420944 12.181487375994221 -0.6983005628616554 0.7315246150221079 1.5187118137138425
Ni 2.554509396213168 5.633511586956629 2.5242845902174125 1.5996182595519224 -0.7599579306621363 -0.06333732660606511
P 5.680566960416739 1.1264799072277056 12.701767244119415 -0.806498754536153 -0.021285134631021406 0.14696579936099852
Ni 6.128567201566464 4.175107486782559 4.415930822419674 -0.46135797993019256 -0.9262085463946758 -0.8760656069916977
P 3.9088586256225146 2.020513621964564 8.063178114508702 -0.4640838635017878 1.5533679703351313 -1.3241934613848614
P 4.872455254757729 7.855058263426364 10.190140733172825 1.151450553059759 -0.6966144334084841 -0.9144187528485995
P 7.183563379346368 8.437193890445293 5.086676680535413 -0.8149039478807127 -2.5364192367504637 -0.08056911710331931
Ni 0.044197127142514774 4.290503437791379 6.81417777863423 0.2521432019313012 -0.1566269765998464 1.1717113601913238
