# total energy = -340875.08907595713 ev
CRYSTAL
PRIMVEC
9.14897461426040 0.00000000000000 0.00000000000000

0.00000000000000 9.14897461426040 0.00000000000000

0.00000000000000 0.00000000000000 13.39044914049520

PRIMCOORD
 96 1
Ni 0.19116781986124837 8.567419832101848 8.290280929700653 -0.688780282076046 -0.22342629361258295 1.1207538953068505
Ni 6.651029911678952 1.5196720929606573 10.816523184955377 0.005474907071642184 -0.07588868090851446 -2.487069996893375
Ni 3.7986267194510996 0.3493846935625411 5.64949717468355 0.3334754224528902 -0.5505019831867164 -0.877323904878831
Ni 0.9438447938820688 3.8022954581811486 5.681661309046039 -2.1546695526722184 -0.5169467729390903 1.0882613219957837
Ni 3.8796225897182275 6.349873121711367 12.477769252306029 0.6950152072421644 0.6210188582603563 0.4901407084898398
Ni 8.163483463846571 6.983558534826927 10.967286389221831 1.3429298614521001 -0.1692850316834891 -1.7286349306336681
Ni 1.2110222929683592 0.8071737548672195 5.178876676798091 -0.14240774767667086 0.4110265786654921 -0.39639417346429795
Ni 3.1032589210039028 4.29229622851514 11.74798941648893 -0.3564027206730249 -0.8478107259110624 -0.43133649386743783
Ni 8.346554441373424 4.576811034068864 2.000613548854514 0.2808688520007679 -0.5286854015322572 -1.607155191358916
Ni 2.377617166303015 8.115359858559653 13.162396154820366 0.07247708412380421 0.7595761218426854 -0.8303092266921893
Ni 0.6992826445883135 3.678171322643577 12.428331854296829 1.0142588023663888 0.17062920441620935 -0.7876489688195015
Ni 3.3777281526783445 4.874902917616086 8.96125024324687 -0.7649031904825536 -0.5300388302363581 0.5921024323363222
Ni 3.9461905273736684 2.3996478966320836 10.387010858795238 -1.141323491928086 -2.123929443275884 1.3338757216696318
Ni 4.791262993750495 8.235101635364822 3.285521129194754 -0.5302663728661319 -0.14464949252299605 1.1972953793080154
Ni 3.006343835299657 6.888299413487118 1.6430615658547802 -0.28527623703984417 0.6450818127468311 0.09061030338940525
Ni 4.551303693471921 6.515497005078114 10.091671901641712 -0.10674011907173228 0.2776233484802767 -0.4344596128774518
Ni 2.338532747712575 1.3127131433037393 12.120779931231226 -0.25080134319142616 1.0883680227769772 0.4943714587417357
Ni 2.2940321362837586 7.912060498658395 3.7241650466927014 1.2808413196514716 -0.12073951867461788 0.8218700947859007
Ni 5.801419554005109 8.272429450872547 11.185859046968334 1.7555685217997186 -0.4625928807785582 -0.3178243461791946
Ni 7.478463155433501 9.547320734051548 3.6320522576453205 -0.5435918863304444 -0.17989417465790308 1.5978765942704676
Ni 3.9360443147761037 7.053337762492959 5.597609681332935 -1.4634534074611698 -0.6133340880215888 -0.09483976808972054
Ni 1.3805070435273263 5.447619565402365 7.472687407901632 -1.5228525753550934 0.5259104098902814 0.13086452292376172
Ni 2.521832449599156 1.843481743515774 6.970170840603288 0.7408052689930855 0.18303606272099446 0.7341497113497808
Ni 3.2777847564512905 4.755920505685217 6.659485393809404 3.57171043430712 -2.1598685803746545 0.4856975851168216
P 7.499130688578587 2.455227916046158 2.566748424465239 -1.5211330215608254 -1.2791834723330744 -1.507088113431985
P 7.828429723767193 6.671111910463132 1.4275958998108327 0.4821160384131503 0.5453682615045768 -0.32398548068458394
P 2.086844462267112 5.475963088059945 5.234179482288174 -0.5306908619980601 2.649360342426586 -2.7018566125530885
P 2.059086473970437 8.869427476687624 7.3047305360656525 1.6126828060453646 1.582111618126727 -0.787056072430509
P 3.7415005233652594 2.946784012026304 0.00687270956112801 1.1492206352879757 -1.8234728989511757 -0.9112053881176242
P 2.303858134777703 6.899122650189479 10.914715467484347 1.553267440201525 -1.1031053289871517 -0.37366664995979515
P 8.780517743573883 2.0582447683266354 6.4593250470210615 -0.11939945970695567 -0.340751130178697 -0.2047099481500023
P 9.14952332761139 6.412296573968524 8.88911515467563 -1.65472291383555 1.0219302028687174 -1.0784800742393041
Ni 0.9732130016712338 5.030975271720563 10.00518298715134 2.364046567280587 -0.4358246115457785 1.3679747202358699
Ni 3.853996312454224 0.7034399385507424 1.031221158888188 0.3243472348993769 0.43029391153553637 0.6837473476378289
Ni 1.1008686413230167 8.619770263556553 10.977972391308356 -1.6985717926997006 -0.08134173360328571 0.8125359618691683
Ni 1.9967911073547278 0.8890534160603389 9.42442530577444 0.4174239975514037 1.0149350024978068 -1.4554112538829838
Ni 8.328384578236577 9.025600469510382 6.173277788257153 -1.5350095224326015 2.2608111189280033 0.41153642842237514
Ni 6.8202493419806345 8.219154973004537 8.306296209368856 1.0872156543400888 0.1198324334793162 1.1058029304239732
Ni 8.230152040220293 7.314815450534811 4.690861233906546 -1.2286782644946712 -0.856179409590732 -1.570151360441057
Ni 1.2356787789471129 6.03045497886304 12.567953437552177 1.4777690527528935 -0.17198931798852962 -0.642238686871081
Ni 6.132310510737426 2.2072541142026894 0.7566485438031495 -0.16754156662982114 -0.6659026061469242 0.5144923978613268
Ni 3.5375698842311496 4.678117627479901 1.251034417561859 1.0252199293635826 1.9510433245046979 -1.500257720773713
Ni 3.551375686584374 8.785641169231807 10.870968731545197 -0.5670737715024685 -0.6133829389816534 -0.06965426996302843
Ni 6.298446736669965 8.792338218484662 1.686941876820012 -1.1496744349959427 -0.6809139919540919 -1.6143799912421293
Ni 4.486675338386979 2.8467765729785266 8.351301844183954 1.406196739831546 0.20984032739803216 -1.8995952931370512
Ni 5.764457697472951 4.297081142120664 13.16315917928442 -0.17915729649187856 0.07918457805096685 -1.466540531026926
Ni 7.254249240078651 0.1842786421462199 12.843275353639687 -0.35150219804761396 1.0557597498236528 0.04896460282416083
Ni 4.519886115419586 8.021912234148894 7.889277722634538 -0.7539734309439273 1.6668531214401807 -0.03211513536698985
Ni 3.6669912759400383 2.820738591867011 2.2601470798386707 -0.5884404101037027 -1.7239964034203923 1.9796324489963002
Ni 8.08501271051085 4.230494906516444 10.568358169547174 -1.5740375828693407 -0.552016877169346 0.2502228449801368
Ni 5.385946329045118 1.6195697443157648 3.1852529443768867 0.6329487769287229 -0.5286614902728572 -0.03567842723821597
Ni 9.215029984237692 1.8805350897918236 10.980301720187834 -1.002952376214634 -0.9489047024406109 0.7134507882395327
Ni 8.29667423300379 5.260989636838134 12.814940979956496 -2.8087054892885437 0.4500253285261927 1.1373056290179444
Ni 6.7121908054704065 1.8584220186932527 5.240178464795139 0.16802262003129773 0.9258154247213152 0.9964294874944517
Ni 1.0788836558658939 7.655294532426955 5.812994836402259 2.3458431568986824 -1.1674237885595635 0.13367962377505366
Ni 6.169693220091485 6.752208419448541 5.600822801138404 0.12075263130074042 -2.555623577593057 1.4262742273077114
P 6.031836473995802 8.711571072577264 5.186924114670785 0.06083358634760491 2.446175572671858 -0.0667347823233883
P 4.675491871830216 2.400388963557605 6.094863758562643 -1.3972457012858452 0.16367822701967294 -0.2849476500558318
P 0.6373074920762245 0.44673893003746545 13.423255372193509 1.301064845787198 0.5149212578686293 -1.5593632686866177
P 1.8050743490301304 2.9342133212156143 10.36099392032482 0.5574200504627883 0.3764444698152485 -0.4316344847238308
P 1.4803589500104883 4.943282352200579 0.9941028548939755 -1.4751586117132403 0.2600642565505908 0.007643375477870708
P 4.912468606457929 0.4400409658871702 9.44235546578229 0.5795621337774663 0.9369331319010314 -0.5742975429444175
P 6.8371840935749475 3.329631994314593 8.944525003166067 -1.4760762384315032 -0.12235545701148606 -0.033945246597193154
P 4.97409609794323 6.086657128535577 7.545798692040192 -0.013077659119564574 -2.0740937507006794 0.2877038726447303
Ni 5.7538265892327605 0.8811935321626218 7.241407739626042 0.049881201101159255 -0.020775284874138412 0.23301830817639224
Ni 1.7862366107628747 0.062153557512677225 1.815356881346094 -0.7288272706956029 0.17908967647873672 1.2448723577560303
Ni 2.626734589945127 2.7715537055509514 4.784835839242119 2.693567633071419 -0.7817765691991246 -1.773020655837895
Ni 1.0223063982434024 3.0648240795950916 8.06936521961309 1.179532913118272 1.2034734830942695 1.1800003396729937
Ni 4.985944019777176 1.0498173642315705 12.339954591492535 -1.0700239730521508 1.7267371993903229 0.03589465701408012
Ni 8.594747818602233 2.2867952975419423 0.4958012200967107 -0.40003254154783363 0.6307255440251588 0.5765094629940716
Ni 8.23909973717288 4.436209595656438 7.6919288556759815 -0.21738394407324496 -0.5435684892916768 -0.567101025195978
Ni 8.393461233066587 3.4651923478385993 4.049419320303865 -0.1664946134225455 1.589142042610947 2.679407539520953
Ni 8.426379242918742 6.739070492225725 6.859351143622415 -1.3151362362785997 -1.319255914873928 1.6791987874897272
Ni 8.418254953661178 0.32717647313032316 1.6542159954300295 1.3783506641535552 -1.0547356794345126 -0.23464684491875074
Ni 0.5472111369842114 6.380613675658903 3.011270558008214 -0.6556595882626772 1.100600046066795 -0.694076754588295
Ni 5.751136790762351 4.144384759565782 6.5395203820291385 1.5320180439044455 1.340880178011923 0.5766650147353294
Ni 6.906048423802065 5.834977992064504 3.3650065037902337 -0.17126940910336955 0.7375728780987169 0.32588938257551614
Ni 6.74318753070084 5.858143195217827 9.038699971040764 0.12941313518921582 -0.28563362037926293 -0.023282110456392162
Ni 0.6340028825268643 2.1224797175128436 2.892993532002747 0.04136185077623844 -1.523183733442267 0.43903000585695356
Ni 8.848192707130412 7.715320953394156 12.977969299289041 0.27381863002220586 -0.12207314988437687 2.0227647614094
Ni 2.4403333857406246 7.278155510157494 8.660807988179076 -0.7630034023566794 -0.4197122793649481 1.5222668780549524
Ni 5.739563338160079 4.152582240618459 2.3214351443741346 0.23635842829321874 -1.087172202696663 -0.29096763099766665
Ni 1.4443302888660232 4.324756789647837 3.031436727356774 1.5945935526438215 -0.9291516881833997 1.0570969805778376
Ni 8.481209046432905 1.7968677190030646 8.72844361114573 -1.7781404935629634 -1.0912569142889978 -0.4690869731433341
Ni 5.24073380754056 4.172627643505082 10.620138619897437 2.0693868321433135 1.0841871519264101 -0.3767709999167318
Ni 4.471918042697283 4.685875957761899 4.505953142322352 -0.36966909876462783 -0.09658194759180787 -0.61531178057325
Ni 5.734677785836274 6.397813747510503 0.8227855647648618 -0.18155844973420343 0.5154994989696026 0.6838926149664416
Ni 1.7035207333105873 2.461019216834489 0.8829931354249672 1.1741071141170103 0.2961872275253931 -0.31222962570023644
P 6.384749012082798 6.104278053209077 11.403159082377305 -2.1966122156525913 -1.9916855235060924 0.4790579683131168
P 0.28552759701860453 8.599130177334635 3.5755308087666027 0.6662304217999881 0.9299644138926823 -0.9230352908730167
P 7.430010187068573 2.8069510874625654 12.25836678258243 -0.5749377476315776 1.492101410215166 0.3657355680381766
P 4.800649841473761 8.334029495434681 13.298951916757911 0.33158514740871275 -1.640697803201052 0.19768312321020792
P 3.275259639519886 0.8461685135086463 3.383431623312539 -0.5323188845197864 0.33946917814247984 0.16887005563325755
P 8.148387656104479 9.043029265721708 10.305061665396762 -0.16783030151483352 0.968377466453242 -0.8357147139784769
P 4.64021342658566 6.0432818409566265 2.799728887079772 0.31405253784158815 -0.0972568621716454 0.4119490904797615
P 7.737150406286663 5.035604652761472 5.465217617639891 -0.3904484974038243 0.4995735717679654 0.29816440585642195
