# total energy = -381169.4498999228 ev
CRYSTAL
PRIMVEC
9.23026422920250 0.00000000000000 0.00000000000000

0.00000000000000 9.23026422920250 0.00000000000000

0.00000000000000 0.00000000000000 13.50942470884178

PRIMCOORD
 96 1
Ni 3.3658157479122814 2.7363394375862873 12.472521534687484 0.26655680625347 -0.630639669179572 -0.5936520362116293
Ni 2.460779137742126 0.8175927816512418 11.425703455174654 0.31514140003039276 -2.016612625765075 0.06538906692877125
Ni 5.571691916521416 6.263426357163243 1.0134875964037913 -0.837490574931977 -0.0965598361046208 -1.4985566789222065
Ni 3.002771006387845 2.6625527076018893 10.079854360655752 0.5106840798588301 0.06276397060109837 1.0213378207003572
Ni 6.087137546058411 0.6041595423748802 1.122942835354753 0.12067549820590184 -1.319957568926643 -1.3431684598254674
Ni 7.511459575567103 4.541216019324994 2.836005981622506 -0.9946765093590869 -0.1465312829267412 -0.20997659586558032
Ni 8.540467860796108 4.313994611766084 8.782287853812027 -0.6763466842983836 1.928185703180234 1.0615953826688231
Ni 4.924862709976924 4.443707510999353 2.434479346680762 0.2501079166688273 0.07943371794729545 0.14045036683998394
Ni 5.748377628975925 1.4190423185315737 4.3343362674503 -0.12071406475332114 -0.5882414067190191 -0.25739699413107286
Ni 9.49563403445704 8.053608358699904 5.239089508517313 -0.9736855089297166 -0.9384148586528807 1.6537024429908358
Ni 6.308959249208907 6.201666661100495 11.617618180113686 -0.3209950305976923 -0.45130779478304206 2.8685494580293693
Ni 1.0777533091278808 2.537076499519839 12.037856406126778 -1.1803595227846253 -0.4587020303645842 0.9557497503869024
Ni 2.1299480173892618 4.521020201811126 3.151181651296544 1.3936099043054708 -2.1753522778325505 -0.8258511909208358
Ni 2.9737141354858077 5.060067616258068 7.286834641256205 0.896754759909933 -1.2223574644829658 -0.6254609531921099
Ni 2.5950517873647234 2.435469754002169 7.796964561786694 0.4621159411421396 0.08843823543875091 -1.1784725901745576
Ni 6.727810166550916 0.7055087635284566 9.088086498343314 -2.138375443497885 0.6912379995879192 -0.4705463312976799
Ni 7.697846295428868 0.5427884404242591 5.866467779848379 1.2158523163745962 -0.274664780072585 0.5460650304612853
Ni 8.385224051488178 6.116794384116939 12.632406320707469 0.9293897723361348 0.2408804845332884 1.264182885159184
Ni 1.0425121613820174 6.0739105778237805 6.804940098136558 -0.5583286783199868 2.8890990000459467 -1.0881304528448743
Ni 1.7087156919491828 4.342211528649035 9.10598674921381 -0.3111417919526964 0.7771236438081455 0.6220187602797804
Ni 8.004946407176542 6.488174053984623 3.852360498007928 1.8206493134594517 1.0593785775231628 1.2560980512685205
Ni 5.053320293313535 8.507995792234047 4.622992465781058 0.021932795517349325 -0.8792236930047053 0.8258139099249971
Ni 2.0948360933386425 0.4079176696979608 8.935525003738094 0.2596901610406237 -1.6167790876019252 -0.17635376560481242
Ni 4.472247487120414 3.913456538092958 8.843755873534082 0.09822436829123728 0.13704339804096397 -0.745284902030994
P 0.11730742448983185 0.3648335666771733 1.7102525308961931 -1.118865677145202 1.62463869285566 1.0499521420029403
Ni 3.422618792236023 7.204553299362295 2.9175359800312117 0.3863018222253024 -1.416082117266058 0.24970322503124096
P 7.040937640655334 5.602142557279301 9.818973872591323 1.028067940335339 -2.0492856905180643 -1.4959763197895397
Ni 5.095917961424368 4.255687034419144 11.294473100548663 -0.5477760996151211 -1.1573864589282195 0.2572692103039569
P 8.915225807268031 4.085896329132303 0.06582101219899213 -0.5718002304438604 0.18389866783160588 -0.3761004562122684
P 8.733334225947972 2.4945157524647903 5.989510890354261 0.8366058583341786 1.2866083040422358 1.0666766538464727
P 8.272633291874758 1.868306955575683 10.885394263646294 -1.0623584860870932 0.31168532316099223 0.19969501143391413
Ni 2.251584435669772 3.3792919332734552 0.9853842117673768 -0.9482842952477927 1.1455552706212464 0.8362808708945919
Ni 6.557964079680399 3.4515648999707076 4.791049727498839 0.5019970936077935 1.7757295701286258 -0.09954128733044793
Ni 0.6600229458289175 4.042117187236381 7.044840196251707 0.3038907668172379 -3.0776307957741897 -1.1720818561568653
Ni 1.5550410275120745 8.206396917798195 1.234532111330032 0.7366457382987571 -0.8537137216590587 0.4123548105586125
Ni 1.4992902332781783 6.2548052906376705 4.351128886647274 0.939257409158834 2.257294364023996 1.4245230489445593
Ni 4.930603934151342 8.06774912306519 11.841416082775021 0.25042390524734937 0.7455453547812322 0.8371604452860679
Ni 0.7691292808027201 2.0552198004823707 9.741443347550424 -0.11557725774738804 0.9089872974203829 -0.2602504044194679
Ni 2.102884883499563 3.161457704147636 5.255719675068837 -0.45202101879998285 0.2952968545006398 -0.11823089332015121
Ni 8.432556845003313 2.039186832008153 8.061019337622154 -0.3444131524113165 -0.6812947723322783 -0.9793581338344617
Ni 6.521504537093662 7.643083139437194 9.819081866679491 1.2329740636565476 0.8691778787329288 -1.189972106173725
Ni 0.7072966656547987 6.172185198056941 10.68440065108997 -0.6536651835404678 -1.0679920302237864 1.2876388021892793
Ni 3.8471094008490434 2.7527693074101838 3.458223612381359 -0.7080699835435934 -0.7306668950075029 -0.3540712443263709
Ni 5.135229655570422 5.6832119655171 6.378555439361817 0.7408788025434982 -0.21509591937001668 -0.29128876178251123
Ni 1.6238064939098433 7.319128565724108 12.847152103516953 -1.3741811061568978 -0.4303288785385298 -3.02273414373631
Ni 4.362250431675821 2.214884906220439 1.2347425613480012 -0.13938670146215995 -0.2692153269222396 -0.9049542650015898
Ni 5.996911715986171 1.5190983797063142 6.8376733831682905 -1.8480302765755656 -1.379042033793625 0.8339028575807188
Ni 3.033895456413788 9.271984739045235 6.703187514448541 1.2188486799987588 0.10433433784371708 0.3707438198860453
Ni 3.3448815092827324 7.090679533060378 5.936865156911802 -0.7028498727952347 -0.1359373094609788 -2.1246776342958182
Ni 3.5390493416509834 6.2955292151674636 12.623165903471119 1.854670664710219 -1.1106252915132808 -0.5826428295853191
Ni 2.0604533601397583 1.1253076289777206 0.5914060866806792 0.3029880524973105 -0.2715018089635711 -0.5288761773868246
Ni 8.612297774823952 8.908930767256853 9.44331689841106 1.588416477298832 0.4580471703894047 0.4220450412631828
Ni 0.8546892124502531 7.266996034957048 8.768399998678861 1.529601978263785 -0.7708162135328789 -0.1381140053973234
Ni 4.081281197159298 8.228503399948886 0.8205796950641704 -0.287833199133743 0.04515499927008352 -1.6270357323329268
Ni 4.283110148602737 4.291666603280688 0.15788827992846163 0.13177777876665048 1.799253621392495 0.4367617786480671
Ni 7.810593969529371 6.569261922750314 1.6157678570392637 -0.429345431579338 0.6129126842134541 -1.9550776424750715
P 2.8901894770383696 5.093868842828353 10.780749838263992 0.6563237042092374 -0.11859650418968606 -0.10426671783057527
Ni 3.831353340293205 0.3195988121569657 2.6609106436458942 -0.020363394147700414 0.5149878494405067 0.648461013631709
P 4.297093998480942 0.7413803383018325 12.821497507905416 -0.1346378739232649 -0.2563942638981714 1.987439346635229
Ni 8.84149445886731 8.654747758711649 13.024625157486058 1.129772296755377 -1.465704922499508 -0.07990371560517852
P 6.870796185338545 7.78665989511737 -0.2653617812102152 -0.5814200129218117 -0.31384067894109824 0.4934895703574146
P 3.625149243739358 5.380754676534268 4.461784982937612 1.167158450713319 -0.30168398897390625 0.5916506895108843
P 3.323698053526641 0.9910995912027457 4.644728814347515 -0.024252959010093715 -0.05125725551307946 0.687216537133352
Ni 8.399143289518761 2.3732300842142284 4.018878151699513 -0.04271502237002321 -1.482126815500957 -1.662840400736362
Ni 8.349106028667444 1.4874847256912325 13.560084768337186 -0.15288962104460121 2.0198699563601084 0.530710402382086
Ni 3.369803221936958 7.182308363252412 8.119055545209083 -0.32090761309020865 0.20513109484782094 0.06228574541309918
Ni 1.5201413995322133 4.729596476199098 12.551714430265061 0.5400489061741924 1.011492295364845 0.3814586352003882
Ni 5.57182114021666 8.169300486999184 7.348167899124648 0.10886796404801251 -0.03013590015343197 -0.4572511568506706
Ni 4.433277312740362 8.55050115770542 9.672207137691409 0.7111154552381366 2.852852616119403 -1.8750911373480998
Ni 9.082275124162907 3.2113749715676545 1.9331172538725871 0.9880109244134533 -0.5097032040027996 -0.17368624607497832
Ni 7.1870804097124985 0.13006641834240046 11.415544626675675 -0.6113782498467988 0.017685333094905026 0.7641881666934
Ni 2.756129123486531 7.301618755018527 10.327995238421897 -0.9917405666592146 -0.0436097662701507 1.8122369210260403
Ni 6.196174654052619 2.1891047790192353 12.755733723342887 -0.24019425709954118 0.5724782303474915 0.2436487913070449
Ni 8.460801452678103 4.02340744221782 11.46665075209194 -1.0571126643071214 -0.0827715240712768 -1.0683175318840055
Ni 0.7340828916261175 5.956049337497188 2.156657632169829 -1.0259799474580586 0.13052565152710424 -0.5687169635328464
Ni 4.7808521318912875 6.125923115159543 9.798223316214301 -0.5771854060151737 -0.6300316032819279 -0.31958246652088185
Ni 7.822740996882319 9.083908880881351 3.638249757357929 0.3085570619446557 0.20901397484199488 -1.5494727490457831
Ni 1.394379053267837 8.509887996342979 3.3542954554812674 -0.08081774277901564 1.0943952028076636 1.52205784736794
Ni 6.551567506765814 4.198117878187883 0.46410413239010845 1.880870205923722 -0.09892293702015867 0.0050846136117589855
Ni 9.262477567180845 4.636075441898131 4.523900967188676 -0.4383532915049031 -1.8715658978036607 0.27693043617831015
Ni 7.770377709516608 5.009079638220313 6.409722348601911 -0.11427679376840963 0.843506956329386 -0.3201241979569648
Ni 4.9694356545722025 1.4754207707137983 10.973529438934763 0.399103601975661 -0.04129988719005145 -1.7983128547457803
Ni 6.719779836917887 3.1277580104807567 9.51099965484796 -0.6831603647861074 -0.0013256607899590073 1.1022530082891855
Ni 4.448221110068951 3.200178661401145 5.599643001802721 -1.2247280215976712 0.5099384599420572 0.7763893367452822
Ni 6.48577418535866 2.446666064168678 2.3101523064599903 0.424770667724462 0.8704153506844557 0.4507007573266625
Ni 1.281114484386357 0.9073783281332578 5.523004120259006 -1.3932370943470844 0.609111565299809 0.07392410098297592
Ni 5.931219927482424 7.9333380194834024 2.425765977515729 0.27250813874089846 1.3773996130941957 0.7492505715469613
Ni 7.903616569577253 7.163035572133144 7.7064913606407 -0.23013378753974562 0.20383808706801027 -0.7403676672350347
P 4.6676060235377 1.5760306477252994 8.731856460690215 -0.6435638334404078 0.005316270006590844 -0.6175838644368783
Ni 6.063212701910356 3.6058210710364147 7.093069248396 1.0539715475749785 1.7245383919667912 1.9174739731896848
P 0.5441065221157493 8.719036547095603 7.3436423007119185 0.23877038016882102 1.2782681596076566 -0.7156241417417675
Ni 1.4350014448942237 1.7693308352826256 3.1279583072083845 0.4333180430738408 -0.14043982531702268 -0.44641190014332144
P 7.237053058716193 7.672499990633127 5.4447434813399775 -1.4723177998303354 -0.5621138563940319 0.9096966647825818
P 0.9478004230320162 8.553307157945007 11.011045846743317 -0.40451191747542586 -1.108842231470929 -0.20320893812444357
P 2.582147878368202 6.137368642452595 1.0984540220795957 1.0227231310836582 -0.43864305483118005 -0.33025562996401187
Ni 5.80392535740301 6.130824385314874 3.8005796402972103 -1.5981722711340154 -0.44750127655275834 1.3126463799772103
