# total energy = -340873.6096858072 ev
CRYSTAL
PRIMVEC
9.17542798670315 0.00000000000000 0.00000000000000
0.00000000000000 9.17542798670315 0.00000000000000
0.00000000000000 0.00000000000000 13.42916632501294
PRIMCOORD
 96 1
Ni 4.107995078979494 0.508428813997261 10.281020232025185 0.6175434981172462 -1.07938021745607 0.11082328800217042
Ni 2.1069351710922373 8.592779107045784 9.186113661193284 1.7734628855816361 -0.5572783826786016 -1.0465135486350365
Ni 3.200692060801028 7.661069450499586 11.48281044559463 -0.3156466218015854 0.8145421936659196 0.48682449963241314
Ni 7.863442689536683 1.375809545131367 2.397199834537039 1.4473583016715204 1.0110595787028007 0.008490039748882152
Ni 1.2687231254359574 0.23993652355350784 4.44517462311529 -0.7483332019390144 0.18036082988167648 0.5993981946667871
Ni 8.237359729672688 3.6416998301644212 3.3796239164915534 0.8369719834243456 -1.6308108831046428 -0.01375668746446018
Ni 0.23713893556917656 8.69559895274082 0.023165202965041595 -1.3380038849053923 0.27353426601256764 0.5327685704626954
Ni 4.022892984670958 3.0330936937239694 4.564775409002334 0.1445404777489575 -2.222671117523172 0.3165459936874032
Ni 2.1007784589325578 0.7163238255793577 0.774273075932395 0.017744982688246858 -1.1018249196128314 2.1499451506133553
Ni 1.8350305389909807 1.895404854953263 9.306963222825383 -0.7379675424339742 -0.5338425202531645 -1.4086020068389289
Ni 7.486213319907913 7.540834642540658 12.504071361466098 0.6071968647755994 -1.0729290625140875 0.7637832179454975
Ni 3.2921160249724837 0.9003838279554939 3.383612475024806 0.23340988718785607 0.9452413946564108 -0.44485843961327254
Ni 5.40645576642666 4.692800155297429 8.20249402097587 -1.7468959337263847 -0.058578985985473314 0.35883549848423363
Ni 6.472456986563126 4.840790632828683 1.916879026545683 -0.7236392987367601 -0.2621283381684711 -1.0288698674113441
Ni 4.089075346530524 4.601045875719493 2.9094015845105448 0.43934753709737234 0.8096426994817734 -1.3287664254675244
Ni 3.4154796538650194 7.957591755811603 4.669213800189125 -0.314086219293001 -1.259972189511946 -0.5305401953528089
Ni -0.33533344803068826 7.312660100086246 7.814203672943979 1.4744811260302413 -0.14481661422847963 -0.44987517610157357
Ni 4.213650131913488 7.259589424778368 8.463597339285212 -0.15183084076278366 -0.15209335039555097 -0.7202927508620305
Ni 0.6103476326668412 1.1397441346332522 7.075854232551937 -0.2342529519144417 -1.1163804488295033 -0.07013403781292438
Ni 5.509202208698034 8.900834925300746 4.553333650338966 1.4181582830687964 -0.19389434559173704 -2.1305086391552983
Ni 5.552354246383538 2.1562347455094626 12.180039288051024 0.4992601542926047 -1.1171625784111663 0.38266988189967
Ni 5.177730698294781 0.29184558968192953 8.06108507791874 -0.2537681391292339 0.624325554036086 -0.43813140530208416
Ni 0.6910042321298261 5.18912657981836 2.816928868923513 -0.2702643370120442 0.9301616175051529 0.06145142243726192
Ni 8.02118664698707 3.4997192579455225 11.20655849572697 -0.2692371812991105 0.6884514379817176 1.7908875088159866
P 8.823770505883239 8.356814626255204 5.926063004304901 1.5907775213318411 0.5527483560187318 -0.6968404333763613
P 8.63658260011629 5.123247007081402 7.826329918532999 1.0280856809471521 -0.248479637036785 0.47544171171676824
P 7.491406612132024 2.134112788703222 8.187480268208532 -0.3062929485008274 0.14082266257773812 -0.787751812945953
P 3.5235294934959973 2.7519035285294255 1.9790563141016715 -0.15758985473374795 -0.5269234245358281 -0.5371733843986103
P 5.155581215204667 4.232221198100062 11.523419972193029 0.42893662617669354 0.03714806980520699 0.25405147469760764
P 4.644922772213662 8.674146802175498 2.5620831924813867 0.7483316592771178 -0.09216170703692515 -0.3301306743503734
P 8.364255898328976 5.624665794118909 11.418443900927912 0.3213197609269628 0.767493062696917 0.990703897864584
P -0.13394656749905462 3.400147513747546 1.3199825712649673 -0.22531708287739263 0.29080179484376373 0.4560833617948145
Ni 2.507736215144579 2.624768798746237 13.16320199195614 2.001584527787359 0.015253840835276953 -0.4736846198163455
Ni 3.994962981967434 6.871523874731444 1.6030665447899999 -0.838030506595847 -0.8435378095673214 0.05906132493853055
Ni 2.759932027992495 4.374899102843753 9.47756654255862 0.7784585605694851 1.1610644220004391 -1.8727275222119295
Ni 5.557253924912999 8.644987292125629 12.314612537279595 -1.185111949867946 1.2003264528248554 -0.793902148818065
Ni 2.1899269169704807 4.633214926139518 4.728879773113065 -1.3480952077031234 -1.5377487757406354 0.8673107436172032
Ni 0.6869367649161363 5.720567367133768 9.590277499592156 -0.8333672967922228 0.7299644696238395 0.5896940800051457
Ni 7.4593751931313665 1.491016218569424 10.451678604326169 2.046841856963262 -3.348186438774408 -0.024451448174144984
Ni 0.7393312111835253 3.99780736463435 12.80779913035337 -0.6946909911335262 0.7857836334759887 -2.0073003472252138
Ni 2.1940833858353614 8.18341738870882 6.705787201987022 -0.21618863821356316 0.21702218985845204 0.5155748322922282
Ni 7.523942679670361 9.096427523077034 8.507108136203865 1.064246190028109 1.7632972579025439 0.2324264402286642
Ni 6.504671914122938 6.753674678041542 7.763656240324494 -0.35943456552081327 1.882038000979578 0.48635347353326563
Ni 7.042067554182954 2.623475063404188 0.5330877766338314 0.7534368417141669 -0.09147625093412633 -0.3952420621377258
Ni 2.198001293573339 4.704544703083405 1.0128975132879383 1.3201614574073328 0.1208369634844306 0.7493852973526126
Ni 5.490750423074911 2.824462812819658 6.6080230170967305 1.1610106859443683 -0.43450075052803233 -0.02924449868741415
Ni 9.104905618510037 5.748855211527646 0.4356043598390487 -0.3252070117965109 1.4557239000273963 0.5760073265466724
Ni 1.3115081460031492 2.288360908101691 2.7737006751859603 -0.14594352874407124 0.42167994461428027 0.3235800177160491
Ni 4.862251958821962 0.7853010227948671 0.8147192799131451 -2.00175782014043 1.9790362101731982 0.16509953284723178
Ni 6.976243034013743 0.2597462725143843 6.34994116721389 -0.3133506266785571 0.11612695960327096 -0.7098787546175581
Ni 1.3247574639742032 3.4384457500433765 7.1564429338480355 1.0543016772208873 0.7112224131296462 1.0786788205136713
Ni 7.073465868654524 5.306764741665233 9.714054940285589 0.45516162131149346 -0.46736510535622094 -0.14248308099929655
Ni 8.0667242959416 7.585399696131662 10.124382831186507 -0.8556078533579781 -1.5645275864963764 1.3114515883381608
Ni 4.744889059813824 6.361856377959881 12.772265450501221 0.7290494140087379 -0.0038718242505804286 1.302306688614099
Ni 1.5042288348286468 7.3479120943000895 1.5703800002331558 0.8376093598980284 -1.2853273804472831 0.7899470208250589
Ni 4.839478546630718 6.112211334084232 10.560186297812239 0.20196838084912314 -0.07714389347185426 -2.1867445788298916
P 5.958954160905204 8.29124701806881 9.703149944157751 -1.301225025514146 -1.0343612295432187 1.0905046095040059
P 0.9908911668739662 2.6876938836807853 5.261345455731359 0.12245444448319555 -0.3833705075111204 -2.233242208170799
P 2.8154800688489776 0.7903135590882098 7.548601642306931 0.5762976040935817 1.1407071985003259 0.7542811919923332
P 6.375784677599812 1.6996929766135245 4.5327467426300645 0.18203487514998973 1.2719424744999448 0.08724190113780458
P 2.6105652362675724 6.593499232182339 9.737380713239892 0.6049594908046484 -1.3586228467073247 -0.2955647634500458
P 3.3549677064833703 0.46939746100760266 12.50905361884718 1.513489903193271 0.4503567437236825 -0.8917843032785352
P 1.598708216510048 3.359197578771913 10.908257074933937 -1.318919871690748 -0.7618685174212879 0.8643241501850533
P 7.4059558515610915 5.646870329776769 3.4810949742767927 3.2212721587476456 -0.7146350383556209 0.3290528679051623
Ni 7.016046040494651 4.951253610012561 13.119154432501956 -0.393920772223141 0.20404686064470662 -1.5294088884163726
Ni 5.837095302197747 2.684427431327811 2.568489476281518 -1.3310302818010369 -0.9545063648981045 0.7333848081592983
Ni 8.123832159550908 2.3663703965988523 5.79355697899522 -1.1654134429977543 0.9678408772234814 0.15345243552660667
Ni 4.319993341944316 5.235535894428881 5.144256902019158 0.9835942834029964 2.078235797893511 2.315738881314134
Ni 5.592478392842969 6.726350253583234 3.5041390615927916 -1.0309658307084244 0.11033889216658417 -0.5020562289805032
Ni 7.035516298621089 4.932150369004434 6.541857171007489 -1.417051680268179 -1.1442643197239648 0.1291205436494615
Ni 7.449823572627303 6.792266528032022 5.082710883906666 -0.1972000129262023 1.8254295084569143 2.6954980173249123
Ni 2.967755471236521 4.850846901870424 11.911347890820586 -0.06446604089386962 0.4070426543170796 0.15811153156517288
Ni 1.281678829712362 6.9030598206223805 5.110254601093166 -1.124755817377392 -0.1477039630786037 -1.6276378846933002
Ni 3.9677394872166603 2.42065222839716 8.563349839413956 0.5306314695150345 0.11702915970256618 -1.5098242814162257
Ni 1.4348167223279378 0.7742455496485215 11.24958574759225 0.9258056545293024 -0.06042349539337981 2.26259315052909
Ni 7.811812556418178 8.964916114157978 3.9627453017792336 0.7204858407094431 -0.27132543128670694 0.8943317522907371
Ni 9.249565415692611 3.47465198876483 9.28527434621875 -0.9161239084651641 -0.4543486384918949 -1.2270764672251897
Ni 8.139861632193174 7.284794325378427 2.2045589719347745 0.41592530151869017 -1.1880476354575022 -0.16787735270268508
Ni 3.6455535099066942 2.597370970864265 10.878900293182976 -0.16525457036785732 0.9910702800650673 1.2085768657591056
Ni 4.789463288832785 4.147247559782935 13.726353975836478 -0.8813530806428821 -1.1458270362253944 0.4997460927900877
Ni 9.12164159910505 4.938141923460873 5.648320964936897 0.4020763114507398 -0.7829983574213677 -1.046823109455655
Ni 0.6619328061883527 7.187342105038701 11.771215249792386 1.2852062814883867 -0.41009558221079057 -0.6128998286976477
Ni 1.6775526689513685 5.853748703941143 7.2143362140905305 0.758347648752223 -0.49634349486644197 0.8199024295365686
Ni 6.796909294578666 8.91966290347014 1.2344207880157458 0.23550970713967828 -0.26721783687623657 -0.8927325261244173
Ni 6.321346863526221 4.123262991101262 4.538346506312705 -1.0449924840048195 -0.8348058290109623 0.009784333080273471
Ni 0.1947998408007336 1.840214655787134 13.101373370662547 -0.9829407089793976 -0.513916984973831 0.5010910368537563
Ni 6.005124914388822 2.8831029728979165 9.907931733033768 -1.7186649639051497 2.1867332659759824 -1.6117492384875014
Ni 4.203190144041603 0.7780478469942312 5.911317174033932 -1.521781710888418 1.120022673567781 0.8796420114890463
P 2.6701688162814 6.212113393688689 3.372022991971317 -0.34758666504329166 0.6686945670697645 -0.3605571091610307
P 6.13675560387133 6.844401309688205 1.0229950717554903 0.3020475429609121 -0.3858287392436258 -1.0667792408626078
P 3.6428100569473143 4.058282610304168 7.111092463623844 -0.7224679041364783 0.31481846947333525 -0.8255074344281718
P 5.186117039448204 7.398432000635702 6.062852119385281 -0.17302778655537296 -0.5770421955690901 0.6531576477764299
P 0.2698107994412881 9.10351095346045 9.761674493843742 -2.813242972147581 1.025948837109807 -0.3140857050723687
P 0.47515320696552665 -0.2105751540885682 2.3535550763702022 -0.8855025840348814 2.2171129067091044 0.8237909659576974
P 7.552992084584735 0.8439145741320487 12.503856656451884 -0.8869195189870661 -0.5915398749646329 0.9591654609366707
P 2.3437437912549335 6.579203915424096 13.216113014817553 0.5038241195142034 -0.2189731429372358 -0.2940627249832226
