# total energy = -381163.40349695785 ev
CRYSTAL
PRIMVEC
9.33556828408351 0.00000000000000 0.00000000000000
0.00000000000000 9.33556828408351 0.00000000000000
0.00000000000000 0.00000000000000 13.66354783745422
PRIMCOORD
 96 1
Ni 5.486205294957301 2.120098178525437 2.78001268305096 -0.09525397280900369 0.7863911851530004 2.8201101315810595
Ni 4.39450396207268 2.8625465734542983 13.024885647396058 0.4384209115180449 1.2688826046276986 -1.030900781798444
Ni 1.683912430480558 1.6317266048364238 7.593407319718014 0.6420967619765781 1.746212277395799 2.7320159097452885
Ni 8.376982626327138 6.360723971708625 4.3985696019775125 -0.5338479195698033 -0.6936738627229214 -0.23555778676879432
Ni 1.4787166437796517 8.387391784751683 7.600484613889895 -2.444534437524009 -1.488075062664592 2.258383483323117
Ni 0.6783457166130391 7.7946765664786835 5.1661054690447425 2.1228706629940666 -0.4471611196045202 0.1789374671715886
Ni 5.899537572308648 1.5677032788493985 0.7465327059698825 0.5254689514774886 -0.10338765765973164 -2.0268165628812707
Ni 8.60477048781495 1.9129139158205593 8.241127705199464 -0.6000952207338117 -2.582702178977404 1.474632306896125
Ni 3.589189851600419 1.7826453986401933 1.2076472214955365 -0.2360622372090386 -0.049993815419623576 1.7019203974569592
Ni 2.255921358721592 4.703240534501508 6.444371595385547 0.3482906330888518 0.3350008579584811 1.8142518945735397
Ni 8.12935668264008 1.5895951860292725 13.363400814930372 -0.34077195611430344 0.831308100270349 -0.8516948914568171
Ni 0.0965297740895073 3.2421307721466937 6.83458807257993 0.4412851204397174 2.349561229180218 -2.4257676984394676
Ni 5.41135270998151 7.510156457685075 12.027610785109419 -1.329029192210608 0.9764921251405763 2.053494586393089
Ni 2.051379061787249 5.536776067321213 2.4296516131624704 -0.6875433243451514 -1.3176188934911373 1.5500113951580725
Ni 0.10959770230715646 2.3075283791439127 4.321042376742859 1.217183376481194 -0.9488016012038434 0.40973305666504917
Ni 6.520595575314312 7.64401916858154 3.60698531150075 1.4007606564176391 -0.48856513647260374 -1.4124339789905094
Ni 8.305518852569383 4.274065798095045 0.3396895820005093 -0.3914262879360614 0.19821894110901994 -0.5988592914441816
Ni 4.951902726246974 8.323704539216033 4.994053749747122 -1.1848764368183722 0.546656127078065 1.162137857570276
Ni 7.6496765228463595 6.3930903862897 12.015176741965337 1.163658150869544 -1.1707443682923642 -1.2896568610605728
Ni 3.394982028545872 4.77397613394795 4.401329195906029 -0.18833073546103046 -1.461914087998508 -0.7156693931574062
Ni 0.17931572483137703 5.9412302194153925 6.891045854183769 -0.44980909875032854 0.2758778265440797 -0.17609331285457414
Ni 7.658209232084059 3.662250007502207 4.235057126815257 0.9102653928018581 0.7414979241847358 -0.10563377338143098
Ni 2.288035712964136 2.608236363012106 5.406761477592998 0.0076014664963417475 0.5302961976628028 -0.9453396107971719
Ni 4.2782481326010515 1.2985495151381234 4.882818588796321 0.3496959980768107 0.1101709991301522 -0.9167839106466663
P 2.72758226552277 7.964611912489447 4.17283369835671 -0.2347697436498602 0.028803554495253618 -1.0109976151166136
Ni 5.624082300134083 0.6635665787638032 6.683127815826722 -0.43756756237881417 0.08501095492475683 0.8211931233235342
P 3.795505906472577 5.460597831676109 11.868799702039183 1.5434496827801547 -0.7963665511981576 0.6987754456155449
Ni 1.49193580820042 4.039808387918256 9.134956070995926 -0.2487706859146425 1.0558523095374588 -1.9394772169336534
P 2.9441674452980666 2.780281547412061 3.1879648725098724 0.5737324144695667 1.0270122453773152 0.0688626272996685
P 0.5828241838776582 5.861532474598939 0.6543934495548719 -0.0969105345758202 0.1539941669626896 0.8453676636872085
P 6.712114754757856 0.45389532071874705 4.171672353685845 -0.731876599044888 -0.8290640414311785 -0.6915820131908992
Ni 5.408215959102006 3.2930096182577007 5.163222645617389 0.2529962939602159 0.5429830491018519 -0.3915458442330611
Ni 7.249320685145341 3.6091679673210715 11.833711969358776 0.05818612142242883 0.03975696818296379 -0.32946424441096805
Ni 8.243203935543518 2.169231273402911 2.029583310958741 -0.8931672996689909 0.5252542643635212 -0.12534307888490026
Ni 6.747972671805999 3.239096712516221 7.402377324042583 -0.5429604233940326 -1.2349658972755957 -0.3002729675589925
Ni 5.709773479666732 5.106014284338811 12.808865269490433 -0.5451499748461837 0.18746787324010297 0.4152581002483364
Ni 7.900159150370109 8.349918814423319 5.700910291318514 -1.7536939304848251 0.8447053475128613 1.2602827787738293
Ni 3.009665791043906 5.9716268291286845 0.41722987703049375 0.795973686635113 0.13264809718674575 -1.7024032506306488
Ni 4.488615824025902 9.241680285443822 2.309331077342818 0.651743798148039 -1.095214356274849 0.23453191660744127
Ni 8.135098057017743 8.741741942886637 11.93070945540978 0.8663046709501918 -0.06606963793556363 2.6448994784417543
Ni 9.101758790854506 4.314946250777632 2.548566212427202 0.8763970221891875 1.1613369589355353 0.13174204043270862
Ni 8.53564994164873 7.155684937164901 2.1450680225058245 0.4637408783400723 -0.1686222012885096 -0.7996015131956875
Ni 0.9262517273429102 0.4288265197165659 11.996963982171216 -0.18148851572821648 -0.35507834543464656 -1.3167112940752033
Ni 4.233213352116739 2.7416696377762575 6.966114090782526 -1.0287449117977057 -0.5171033531216127 1.5849586006572187
Ni 3.7449164629724763 2.254661057028934 9.706557034911262 0.07497928172036764 -0.6781958216919804 -2.264379810115868
Ni 2.2496851992349582 9.148025866327194 9.647270576175012 -0.7598473732262011 0.4722057212779739 0.26644393482468953
Ni 4.558875309499561 7.812787568580583 7.955381836315144 1.3614094083135264 -1.4328451956570096 -0.4062114166650359
Ni 7.375462881228265 4.962526602737677 6.140630485443691 -0.19427821129371703 1.4553546896134355 -0.21146320771343582
Ni 2.715688751771316 8.89802868834432 0.06095659186822417 1.623459327835578 -0.12087450159058537 -0.6315986906587315
Ni 0.11679169108021006 4.515866347291595 11.118055721302204 -0.5064103921841407 -0.004435152953218168 0.5883797320690963
Ni 1.4675326332033238 3.5609217514125056 0.8234895279940068 -0.16724743242817003 3.241352988657921 0.8207169550180641
Ni 2.364951458488648 0.2979763966439584 6.057733441441505 2.4115638961352595 -0.08217991323386492 -3.5187500800600047
Ni 4.655862526425663 0.03792854605133948 9.994352060992165 1.2129487695745562 -0.9803996877250987 -0.14560002936172345
Ni 2.029608516992594 5.907818221207815 10.923636914408737 0.8338599201579252 0.8012084526714911 -0.7943513205403416
Ni 9.149351516996509 9.238739581494286 0.7454460458437685 1.2861352210605592 -1.2942717341247645 0.19267512847265525
Ni 6.115506604589757 5.289168794770343 8.246989508405537 0.34073621778036156 0.8006194129372405 0.08861589866719577
P 1.8660680351260577 6.187707888226918 8.17722294092723 0.49694127635144086 -0.28332836928485394 0.5273486849987047
Ni 8.713940621103413 -0.27795627086688407 9.655769677367575 3.6115741032712765 1.252667942541049 0.304312941956321
P 7.110472780886808 5.437492300644046 10.182977214326641 0.20200051963863921 -0.21749784394328991 0.17816459356130607
Ni 7.875849331053951 7.140281249810193 8.616930065257076 -0.036190333877627996 -2.0025348075157705 -0.34768488118405283
P 6.088293423596438 6.895297271893669 6.174844408950523 0.6589981657176069 -0.4171748576550751 0.6936404383818248
P 5.811559178593028 1.1655643476424726 12.342678739819439 0.6225337522429858 0.5269889876664408 -0.9779098314237094
P 4.448192814179909 7.608469325280491 0.8887824912417838 0.8235161150297559 -0.6365508924576844 0.002962939283065865
Ni 9.016394356205138 9.22231831721736 3.675739903397694 -0.4153951400468329 0.8281811246055931 -0.9115018363121206
Ni 7.200439650606399 0.18485265026778772 2.0410193818736007 -0.85118067082456 -1.8168775051218453 0.25274612562262283
Ni 1.0615941257822363 1.9441974045027584 9.95179027249589 -0.45724909996814156 -0.34799161379119425 1.2589234365324575
Ni 2.9170942978261545 7.4451622326162985 6.204370943717476 1.138396290978962 -2.9628984025256004 0.06297917193569799
Ni 7.272986350263031 -0.10641800781442086 8.117076676369544 -1.5917823084472715 0.9524052593947017 -1.625392283192233
Ni 1.031066818115632 1.5600481130125132 2.0932005397336875 -0.06349622078143259 0.25869514411720607 0.34019757166807213
Ni 1.1543896726342384 7.409407006817187 12.722825873267888 -0.7213407325105706 -0.6171580897533695 0.1413656795654017
Ni 8.12901126662061 1.5933014065624962 10.930906521283351 -0.19639834296051337 0.2942290753577578 -0.06364431632352265
Ni 0.2715165959958065 7.036805813058925 10.358267442195986 -1.249242718909584 0.5636426343337325 -0.19896378969484443
Ni 4.642951435751988 5.255532742928516 6.417699877341668 0.3531371625478757 0.38919739860554264 -0.6150091617311667
Ni 1.7958272207885864 1.6227737950345056 13.662372383133125 -0.38843429518727296 -1.517996532814373 -1.9395718335299885
Ni 2.666966421889968 3.684403310588706 11.054684017968123 0.6155886883837205 -0.359716101316974 1.2751707516292554
Ni 3.9799393897329547 4.164961013783239 1.621234359855844 0.31041416975805247 -0.5671707020916491 0.7416095100619358
Ni 4.323675006945301 6.633163855388903 3.41047627091109 -1.1241878606890638 0.9916279523407503 -1.7200016804387024
Ni 8.431763739901337 4.106819095695285 9.041087867369951 -1.0115848550786515 0.49984353759990047 -0.5358063288477546
Ni 7.2817337775668864 1.9394549359111268 5.496080458886883 1.1631734979236419 -1.455361888702287 1.5815225783924762
Ni 5.032786088211335 6.436127355201947 10.129743937942386 -0.45499244272348094 -0.5259770014621588 -0.6563694698455083
Ni 3.7344979689798374 4.622105112198616 8.578070763066789 -0.27184582256655115 0.4919204260980818 0.05230060917592928
Ni 5.985312771954141 5.099161977357989 3.8340328624387268 -0.5944349371242408 1.1503465213623028 1.033212460650756
Ni 7.022251662400749 7.389083475077065 0.18433172556815577 -0.4927560346254998 1.192607744024359 1.7529773640337747
Ni 5.329498448935398 3.917559123730432 10.253262839390962 -0.03261830025565351 0.784584728071881 0.6917668755081957
Ni 6.391708722211823 2.0523873031413755 9.279489336223563 -0.5976524156202738 -0.8540983586919871 0.586465545765519
Ni 1.7426051470860446 7.641050457927722 1.6620205233006842 -0.9333667547060118 1.0710590991848843 1.09971044437299
Ni 5.983725725378201 5.654600272232594 1.5777166091867687 -0.17370810045184923 1.1074111554513573 -0.7526277155493102
Ni 2.4882556418710666 0.6771927739534594 3.4714562016995485 -0.41802897812525425 -1.2316198636214983 0.6521050381421994
P 9.598644402645032 0.6217329645788428 6.336838920740732 -1.7802179449172826 -0.04792227760257554 -0.653219868472933
Ni 3.5942310583710513 1.0436418283379305 11.720003816419936 -0.5469744296494322 1.788053381801301 1.492535926649423
P 3.772372368736233 0.3735599566014901 8.07987070328866 -0.799800773690687 2.314705297843297 -1.0453704361695286
Ni 6.73083256878585 8.408443490803117 10.375277780819633 -1.4489017348992401 -0.6697003826264596 -1.434657052054768
P 3.1394581942514903 8.409171665114432 11.424092447438317 -0.5433746281133158 -2.1431093586384447 1.0263008211325875
P 6.8116319106373675 3.8015926968697107 2.270854533444375 0.0496675424284564 0.37875640577787667 -1.2071961833614953
P 0.998439007627931 3.009171005934937 12.330436075821277 -0.826025511715171 -0.33987001312532433 -0.44271979600371497
Ni 0.7985383551498069 4.891650969769829 4.664543671196053 -0.015510694041089419 -0.666178228405814 -0.12804350853519883
