# total energy = -340887.4484346712 ev
CRYSTAL
PRIMVEC
9.08484782833805 0.00000000000000 0.00000000000000

0.00000000000000 9.08484782833805 0.00000000000000

0.00000000000000 0.00000000000000 13.29659310726869

PRIMCOORD
 96 1
Ni 6.757709405462574 2.002046043391623 11.307196692842771 -0.5976799264240997 0.9352878829881247 0.3297781761069611
Ni 4.850790801674683 0.49563476463653305 5.601202850403948 0.9648668821968223 -2.345641839521154 1.3207821217104674
Ni 3.1315106409748923 1.730418183902368 4.848297010998413 -1.7046737918323802 1.0580400612173972 -1.5461886789778725
Ni 3.9180404099685626 4.499879476860076 4.941758289545579 0.01375463058193115 0.02300854508003134 -0.7984316612573024
Ni 3.761971812417945 3.097160832060585 2.477009145715642 0.1851579941600037 -0.7929734663562086 0.39051843140981135
Ni 5.732148210300076 4.718669862494369 2.605933127012608 -1.9722952919049386 -0.31400008733709794 0.6693262871164924
Ni 5.389131618081747 3.0824797182797012 0.7668647077993014 0.7726761495597532 -0.9807491006447173 -0.8720099488650853
Ni 5.490682044964616 8.341016651584097 12.498530919801395 1.3612363730707717 -0.6744026731981354 -0.9101697477642584
Ni 2.0304452771039014 6.74267398262386 0.19569397748754802 0.38170546110387166 -0.41653619562981165 -0.4041303657662911
Ni 0.7768453214129639 0.13698405812023265 0.09031156187152536 -0.044832840043974406 -0.012726446427732923 -0.3358421229128538
Ni 7.811560816165711 0.04052932227678067 6.985963476880002 0.46864782872338645 -2.081707301381879 -0.04521567730468987
Ni -0.11172545623595638 2.4192676711063976 0.9641812390747614 0.14816958986111256 0.7533417108971994 1.2093646517677237
Ni 7.377241505198695 1.0152226385519507 4.84235279518973 0.5124990215803819 -0.762968435353686 -1.3482515307753296
Ni 1.0820689474626815 7.416796931808823 2.2761377135599474 -0.8766690449036516 0.6943472346408623 0.4151264597664786
Ni 7.948787439717844 4.094558999549359 3.720399549632473 0.9547349359691428 -0.4166292695642503 -1.1387189644257034
Ni 7.859356199582313 3.8856529281437795 12.647572387705036 0.468648857164651 0.27078807072599814 -1.2783280663113146
Ni 8.356270110766092 7.740517307646832 9.131422016579577 -0.30649143766487863 -0.5121676063828922 -0.13312452260253202
Ni 6.972629646003639 1.1193349924683649 0.4641657609078187 0.2990727766033043 0.14238152242442575 -0.7331387535867633
Ni 2.007306170173264 6.886995872180244 9.008202411113686 0.4541336942676114 -0.47606880377780586 -0.18525980984519064
Ni 0.34972484371325707 4.966413657546778 1.2055538304795634 -0.3430350411168673 0.10152489341938 -0.4069462379485314
Ni 6.578710652476963 2.142942945388976 6.841588895207328 -0.25721907379231185 0.6525997183904308 0.8549175121591729
Ni 3.8032806146219533 4.775595517785839 0.525465770336353 -0.5010126182073371 0.24754015594165113 -0.538158116909383
Ni 6.512409434424433 5.902961515565034 4.585503257351071 -0.5477545023485663 1.07455734214613 0.33407191838630856
Ni 5.3751863769594355 3.0079839676588813 9.321283521884373 0.3552040723792334 0.672716543744964 0.5933332194196298
P 0.4993804473171385 5.803337076381143 12.028682586696828 -0.1007841585986135 -0.7921969932015003 1.4145988478523122
P 4.657837722719124 6.221548952488315 12.395149896119733 -1.4162528385159674 0.974875672583076 0.42751763434197987
P 2.5392512538441006 8.756230527971164 1.3133310119326163 0.7883483088793714 -0.6085310102059907 -0.4348370508215285
P 6.938979370357357 7.956191590541742 5.45105757351245 -1.5295940078439851 1.2492198360914486 -1.9119391594143846
P 4.662216619280007 1.5110917922575104 12.609664043971438 1.9087995853441384 0.18940005726580927 -1.1096230755010117
P 4.31702874847651 6.628250326639808 7.9947758469395085 -1.219590957481422 0.44266914527143764 0.32688645638146285
P 4.727700201045234 1.001531773163466 3.452646377660264 0.16905620350213466 0.6789722948466886 -0.6035104170629476
P 0.5412724967394219 5.687450759927583 3.345635048862984 0.36023212172144414 -1.3084171723872113 0.8176136335023919
Ni 0.8292194680384549 0.23655943912688607 4.532888362263209 -0.7491456705379809 -0.02153761696145968 -0.934988349469835
Ni 2.306533796782769 6.537837922959516 4.97525230581251 -1.379072372810928 -0.5794014398298861 -0.42698515887727756
Ni 6.123296325297563 6.269035451085269 9.137671483268853 1.21304415750184 -0.45431084327542404 1.2281697002893688
Ni 8.77400048994852 2.4337307485440007 9.76863413830145 1.078288269943472 1.2725451410809503 1.067938551278032
Ni 2.8231436576428814 5.015480919632515 7.200822848941902 -0.37135985620348944 2.037664304229052 -0.9597413880447987
Ni 0.977738557202987 0.3346930548135975 8.688724659122009 -0.545704561798073 0.28315019183577683 2.0058988388919974
Ni 1.7552652421887023 1.30986241710493 11.118664300747222 -0.5431825667071677 0.14073858750436408 -0.3248018059382922
Ni 4.618509417299913 6.994169819750221 1.5231246729523003 -0.5447136586397134 -0.22195176594958546 -0.3635537298955094
Ni 5.634904001196997 8.404928554708178 7.973368311968423 -0.531728302123639 0.558580903540109 -0.11088602291930581
Ni 5.5027194680832245 2.5555767250472248 4.834495310468761 -0.2372853109828623 2.1568603896759497 -0.8296050015363131
Ni 0.8600925057622028 7.831965383957707 6.9501818959781545 -0.2101329189377865 -1.1319870450185083 -0.7059552511934358
Ni 5.3380838592112125 4.83926213002373 7.373665709168896 0.8363544044450048 -0.45833127728872675 -1.272812535809724
Ni 0.7893533396391523 7.671835859513491 11.104370201475662 0.6655516505654085 0.7913675553216694 -0.049624347895346796
Ni 4.734577430706205 0.5717875914662843 10.49976087246756 -0.012693279196952333 0.37121741708835426 -0.7161707582738568
Ni 8.79502282737981 7.124755419679936 4.665495340792086 -0.06858777637172704 1.9333209675242704 -0.41919163097478773
Ni 7.131033049396885 6.642150143523937 6.974169527678058 0.8644809874778919 -1.3718568288990955 0.5992773528182066
Ni 2.6019821267754137 5.572145873722774 2.432452510481519 0.6552664665893166 -0.20022851533988095 0.6751701474917791
Ni 2.6821922465597083 5.360523432873825 11.380500511453658 -0.13860174366701936 1.0504509360162297 0.20186347984014266
Ni 1.567426932452596 3.532170591447989 3.2706296382897455 -1.7149039542008206 0.40949085874725605 1.5075424273605844
Ni 1.5880767911307818 1.3063556659171693 2.376646108418888 0.5602024983039321 -0.24635282050176927 0.03480836592843683
Ni 0.9620126859438847 3.679018068647371 7.838234837311783 0.11061245754294499 -2.138135302462621 0.5329431483673467
Ni 4.09483154497846 2.9912678480073804 6.863248988942712 -0.404272290660794 -0.24233470048131167 -1.537262065912204
Ni 4.430998162078727 7.005716661096448 5.774737067536093 0.9832705815149906 0.7777101124392348 0.7492575135254967
Ni 8.682125425798722 7.246065390172595 0.2957590317818188 -0.8165785073696582 -0.89495318792482 -0.8441091086897591
P 0.5223914578960988 5.695990516706068 7.663105320934637 -0.2577602910077625 2.7675963779530597 1.8664013228835856
P 8.60031637283037 1.7430006978791772 7.7099894941332785 1.7354956623092435 2.410826503748603 0.08239357190656778
P 1.975427439816135 3.624254607093432 9.940679348905944 -1.746863794936869 0.8901372545934153 1.0390321526563266
P 4.487224284102172 6.241899011194491 3.7086728283030395 -0.6823296413546959 0.18301446545443964 -0.9786914467847404
P 6.923934862671006 4.323996826613848 10.09384261218235 0.5190643335027254 0.0739338711749888 1.2774770311649288
P 6.509856592238525 8.166542152721554 10.285859043346566 -0.2564060909727133 0.06884540090848788 -0.3001456979525089
P 2.523625315909002 8.61385279580903 5.667433206644912 0.9584905463568332 -0.056446255913186666 -0.10003313936520192
P 7.300692579011984 4.141691189088482 1.385558276098556 0.9078279870049593 -0.9081313771779909 0.2283684681092067
Ni 2.739017968527175 1.5690985444177463 0.14654131783402563 -0.46394913769613644 2.2929133987791865 1.0819227813722658
Ni 1.4983094116326938 1.2600592823606207 6.568596491603042 -0.08120469380478917 1.4211518184794816 0.6759185956220295
Ni 7.0500416327158355 1.0545600288187984 9.062797802986347 -1.383647136665804 -0.9932618883997473 0.8331083867038814
Ni 3.0686616650243033 2.2898358468265414 8.822142914544843 -1.9525597611492242 -0.9000725114292563 0.5904414996941314
Ni 6.636681065246653 2.2322924218957763 2.7324496236858513 0.037109246147471575 -0.5349676349965432 -0.7295929452170338
Ni 4.210236364507273 7.121884607826743 10.41286793876172 0.03125792957301714 0.4466772379895662 0.09193570706904812
Ni 7.370327936147178 6.247795077310699 11.47236649075582 0.34502224675022514 0.10152489341938 -0.9188359080796886
Ni 7.633352444924491 4.253425730172076 8.044305527769954 0.41687866657089495 0.09340200720192947 -0.5570616386821052
Ni 3.2047072583836655 8.617795619683353 12.538820402100567 -0.2623229706777805 -1.0523445534945166 -1.7055160852280176
Ni 9.177785628008637 5.112289056049034 9.950917063707724 0.17621029804841265 -0.045952298360398276 -0.22270124252110032
Ni 8.862096257481458 2.8959314569080044 5.6964602033288845 0.4879562992440113 -1.7506937102059204 -0.03949908653588681
Ni 3.5952285188942223 2.999444210880397 11.2782096694884 1.4547322255380881 -0.38454755853835704 0.2443594442208243
Ni 1.4904873578175077 3.530380876463562 12.240590291761569 -2.0941776659347484 0.05510131184951802 0.23121467930875017
Ni 3.1427849368920184 8.97339472587849 7.9120710279941795 1.0193966378135864 -0.7766811569540881 -0.34072079116139387
Ni 6.171591375334184 8.193315198706866 3.1925253861876346 -0.7186017363128527 0.6829217664127399 1.0511027106676156
Ni 3.176298939823751 8.049565654551595 3.253423845350627 0.9788236014872305 1.1263589001984537 1.0012814162701145
Ni 3.6949438065544804 4.828641943136445 9.253856691209657 0.9928661956232255 -0.12877550160521695 1.3411632564699805
Ni 5.512730970178851 4.4011726072874895 11.9454726502229 0.6023832454370399 -1.003648116730078 -1.3673327157764967
Ni 8.404074579030329 8.932476572122859 2.029897460791409 -0.5920466393977224 0.9333320448133345 1.0807436734625
Ni 4.864345394348618 0.4318500493793653 1.2596740848208252 -1.1284605199224889 0.1681421763282975 1.320239876053752
Ni 6.523011451616446 5.923611374243219 0.4177031246395188 -0.9467668301620018 -0.32774880438175813 -1.5472088927122707
Ni 7.894823444755932 8.993326881593378 11.785833707551065 0.06910508232777776 -1.2538599059666213 -0.2813452774165542
Ni -0.019470645454944036 5.172812311004633 5.729728006889663 0.3969754998890647 -0.05074971974904163 -0.3086280243919072
Ni 7.5904537943840635 6.317857422284817 2.423769213110375 1.264107037615926 0.4830907436215938 0.49859423857383167
P 8.773073835489578 1.9088355066392313 3.215036730146577 -0.06749248642501925 -0.5816740379141467 1.5065993467210246
P 1.9597560776428526 3.4941868434790075 1.0822606377478157 1.4452286569230273 -0.31767393664425936 0.8727326859637227
P 4.763912403725062 1.4279290969912928 8.064689200412385 2.4775839117798104 -2.6213139778123304 -0.763282624159995
P 8.89698207240633 1.7446087159108705 12.244340516865991 -0.5513388772657151 0.8225077283698996 -1.4885486598669009
P 6.611597800921764 8.015951718295858 1.0070589944656254 1.4310708773654064 0.49294398226658975 0.9271958500086096
P 2.027229241040515 3.6773373718345845 5.802101537102553 -0.4931841233018539 -2.0960437726092094 -1.2551133187577481
P 6.982695657185087 4.175114343543848 5.691539849848856 -0.7028095064756025 -0.9193241605700168 1.6833979131727397
P 2.7044046990314037 8.728521742679273 10.149116642173471 -1.2138319435104579 -0.29778079726475815 -0.09856066858473347
