# total energy = -340866.1847801225 ev
CRYSTAL
PRIMVEC
9.30567455102874 0.00000000000000 0.00000000000000
0.00000000000000 9.30567455102874 0.00000000000000
0.00000000000000 0.00000000000000 13.61979533742722
PRIMCOORD
 96 1
Ni 7.563419465014251 4.195379526961939 2.074621927349415 0.8733518076049605 0.8836326207056782 0.35657884123957295
Ni 8.59923407625443 8.035626603930535 6.885895649639798 2.081760523217318 -2.9717126583831206 -3.7261589151984085
Ni 2.091459614507604 6.89372730516778 0.2284868750075081 0.7320113248505393 1.2400291707311162 0.7751081560400135
Ni 5.979910084578564 4.776714308911316 9.515442855150075 0.8374496943917126 -1.0074014131249232 -2.670014014121195
Ni 7.529714312539972 1.900888709615073 2.7695585205565223 -0.6730507871559311 1.6402519739128847 0.21387773069219937
Ni 0.11406058100289276 3.020119385675636 7.489266268435969 -0.7958469312492618 2.0016727166257913 1.8191184786372219
Ni 3.1747052478795874 6.773981887708084 2.5159165466620816 0.362243238614202 1.1151398915541828 -0.3845030784536669
Ni 7.538163864844402 5.4143670319911 5.014835348567256 0.18842226673357226 -0.8004533196730215 -1.4343667745078588
Ni 3.961602376089818 6.230800370569459 12.603785861711941 -0.045033128980238576 -0.8693663405946511 -0.5037780967676162
Ni 6.141614787655741 6.633066061115596 6.42508423952528 -1.5013738366560272 -0.8438753954123983 0.21260272063451777
Ni 0.9474944560404615 7.816208108571339 2.2933415665653714 -0.4868406975823294 0.196379573907436 -0.27430174030621146
Ni 4.373471522559051 1.5793497440038802 11.991998260471544 -0.6818151636121225 -0.9866508108411332 -1.3784126277397422
Ni 4.058623336801255 3.232232926674725 13.469786805251506 -0.5816542404198047 1.5275474097276016 0.00904642647298442
Ni 2.0290278453331334 7.912363641568776 6.333463361635715 1.04302996096181 1.317640490757692 1.4316110661395924
Ni 8.947685052068717 7.360909379938257 9.832702141130422 1.1193130490952659 -0.8774154361513729 -1.1670952015755514
Ni 7.562758762135821 6.589087444165447 2.9435513666050643 1.693152678566658 1.1598385200131378 -1.293763169919462
Ni 6.615496947953962 1.904899455257374 9.20070261521467 0.26827584582710573 -0.41734866422877803 -1.2423395640318473
Ni 3.963882266304119 8.500193784210325 13.066436073076849 -0.6985648722666356 0.3109319899347355 -0.5519600557894817
Ni 6.893550497355242 6.956298659457412 8.521388388096415 0.13026956965224015 -1.2855040152344634 0.28709812073993135
Ni 6.6954978302900665 4.2393395325634 13.23476362458471 -0.09351513574102605 0.3615798939985902 -0.38079529058477646
Ni 5.0110591059184255 9.03392073621536 9.133829247675768 -0.03130652342276544 0.6967388748014904 0.9563688720281401
Ni 4.453881854566295 8.663173364672643 4.821393643139575 1.1806896524305344 -2.934502367881411 0.9145046276941863
Ni 3.35029401707814 4.661165750580804 2.9969408120193872 0.2827876662900356 -1.1834607874177683 -1.1766147110302125
Ni 7.37050353018701 6.163101589716235 11.126705478749562 -0.6405227326212388 -1.7380472250865036 0.9451961432407723
P 7.669662349000677 5.988703946833725 0.6842257620370642 0.5199336234815561 -0.211925492061835 0.2568539771434093
P 5.019583103617609 7.766757755106867 1.465026742984484 -0.2939670799456227 -0.4155360365000714 -0.3688530306212357
P 3.434007863477535 6.11496333633428 4.635402060591769 0.14552572448036227 0.1824125702043826 0.2626800969068831
P 2.470637927006064 2.8085548794628474 6.64989258146457 -0.18917765684235807 0.3000125148087543 1.0623376601514865
P 6.9256550738423375 8.083932359450683 10.405401257288489 -1.2324783549670515 1.3736414316033438 -1.0364787901068537
P 6.7143232094881515 7.697681734450719 4.761412058019902 0.744837272970614 0.7442672593997569 -0.8739195071829724
P 2.8078011198409767 4.896543477440108 0.6113288314952344 0.038541350608307816 0.08194131486049759 0.8128992587458581
P 9.087409752345165 8.80162318756395 0.27997517115333426 0.39327491110902596 -0.05154419062587897 2.1132902183944826
Ni 5.0780227384984675 0.6844928348907394 0.8644999382678643 -3.620395301107333 1.307401329528187 0.5196369181767437
Ni 0.1773075272499056 6.322926546575907 12.896134788040605 -1.9736116967235173 -1.1835399773951358 -0.3340354087214183
Ni 6.039150007453014 3.0723149130716125 11.071681026352984 0.1820130207731188 -1.2735105903180133 2.112766484680529
Ni 5.573140447649891 1.822265067081893 4.873612434721411 0.19639911429146176 0.471180365337253 0.2424115764658341
Ni 4.961078329016343 6.735419173226194 10.029453874922297 0.28760899893807884 0.19386117836095645 0.9754580274491071
Ni 0.9668037303044392 0.964607591159235 1.6383663306940714 0.01975738513258533 0.3419086408219079 -0.523244433022344
Ni 5.3743247152885 5.2516945387821385 1.5080245418587666 -0.585285666524805 1.7305136357136197 -0.7849799066277707
Ni 8.484820810193895 9.302147493509286 3.011023089004292 0.05188666156696225 -3.1094890779353674 -0.8497814764841881
Ni 1.283243186375073 9.066676709906542 12.449909091893009 1.5418463428487768 -0.20000971446085553 3.054012127913986
Ni 7.837229626914628 9.083827067722693 8.351685457920496 -1.4405993856811319 4.285268180438162 4.904785257342011
Ni 3.3107821238131527 4.322857959801569 10.962123461165193 -1.1454629680177564 -0.7879420745798882 -0.006103541794576585
Ni 0.9233648424662471 3.5407253368555103 5.352347504190073 0.8781142619906104 1.1445864789500741 -0.8071019353377906
Ni 5.481070105689507 2.9429660396888213 1.7050079869418069 0.6325911364789879 -0.48295781758815526 0.8347119837455753
Ni 9.183379171855721 3.050223242178753 0.5833327102310526 -0.9965112485749805 -0.36813029352259824 0.7939625697423552
Ni 7.093296797151042 0.343324479818132 0.6748689064840859 4.621645607029196 -2.169469593799528 1.0781851687067046
Ni 0.6652179916218347 5.493567626333614 1.7171425862864946 -0.2629207521627795 -0.5252198115811599 -0.34303606955813176
Ni 1.9369109750010287 1.09264436445951 8.077165273067665 0.652088068861335 -1.3860254070899938 -1.060725064248728
Ni 2.259147866188028 9.062014567060155 4.126198352185702 -2.1549099508177982 -0.04697508319795781 -0.2427555900688142
Ni 8.108061973024899 3.033808032635786 5.233678753251988 -2.2839014250885636 -1.1047724322769297 -0.4022701726291008
Ni 0.1661863158412888 1.1806574324058725 6.299019338618517 0.9291182638423031 -1.7664620287837707 -1.2345231533112222
Ni 8.435742683703188 1.541661762910333 12.290584780313049 0.4765501142895986 -0.48342807235635454 -0.07245497263661715
Ni 4.525926385338207 2.0756399681226583 7.411469900351979 0.9451637473409399 -0.5243746899720453 0.6113774785158502
Ni 1.145956572776777 3.308753486806142 2.8180308476474303 -1.7173295329231777 -0.326900854559166 0.8152111947084862
Ni 1.4410208948790462 5.489845356595979 8.613703469292048 -1.6028727619334782 -0.10063400617399441 1.7651538514953085
P 0.12472209209891175 5.100775112269756 3.8096611865344556 -0.6106282590546516 0.11652162393852836 0.18423419679415365
P 4.7053304810178345 5.35829103839364 7.6245521620502865 0.27764237464367025 0.3232439745328691 0.3514178658639238
P 4.29780708446729 2.12905453885771 9.750628885117889 0.35736431325534584 0.25281785940082263 0.30846013135547523
P 4.059926131209427 1.0935377091965424 3.4552601625445583 -0.4112626059356982 0.45374211525614755 -0.393878863241612
P 6.558732334455039 2.053669270996272 13.334541856604302 -1.1027847124229393 1.5920016235469292 -0.9565071973782173
P 3.4306857377366966 8.050050399163867 10.66405433681722 1.1484521325530674 1.3761045484318557 1.4827464513628268
P 2.7987094760068048 1.1615435773031206 13.578962837791188 0.0039299311820254895 0.04542213688854113 0.9073541326923342
P 5.257538502270224 4.971844994232449 11.505948000400997 1.2386145497717764 1.0252011603105053 1.089151437910221
Ni 6.847692134187588 4.184566333374111 7.046990831047436 -0.05410372382293908 -0.12497284002967511 0.5181554485352109
Ni 6.366142098229841 7.3901757257504075 13.108331149541357 -0.6115564272958758 -0.5613425254456462 1.1578623701233737
Ni 3.143159011853137 7.362910099922236 8.62481723616119 -1.20770988977312 -0.46906948964183737 -0.667204098567167
Ni 3.0578538951409033 8.981753125842417 2.0792933758701464 0.8459826715633882 1.342599474695875 -2.4218809617905515
Ni 3.067569019156129 3.038916847850689 4.494477858892369 0.3989269671884807 -0.2224047943266041 -0.48951927285575697
Ni 3.337945387223539 3.9016459162908737 8.56303779475824 0.2683959163447378 -0.029748177796710056 -0.765445693249585
Ni 1.324811633670104 3.8714117803469392 12.747351944357625 1.115066615114086 0.8612524532382652 0.16517563750080586
Ni 2.5294404831863413 5.743155117916336 6.6293940420194195 1.219490941568448 -1.5820609673944495 -0.7692995197780363
Ni 8.422454180739834 3.899980200583282 11.510906063691525 0.9834135348507579 -0.009847325107724975 -0.31691520410136387
Ni 3.326676215592851 1.092616447436478 5.5837070408675995 -0.8065136669344884 -0.113451726763953 2.7611485654451866
Ni 1.5260375356866132 2.69677511924169 9.49435898878868 -0.5300455151045774 1.2827341657988103 1.4527108242326854
Ni 9.073916524546242 5.695091309929134 6.587485937610829 1.084740453326719 -0.2616843086525171 0.8171045550764573
Ni 1.8955007241698476 1.8007410423240227 11.684244720833677 0.18222770788708614 1.0977463786680837 0.00739295002996146
Ni 7.483772198303222 0.42270932651265825 5.2459361874980175 1.4804787383745728 -0.0011590533051076813 -1.343499617912641
Ni 0.3941753372713883 7.942979310160817 4.864391442013857 -1.9275935781221902 -0.6743862181379031 -1.755975270319834
Ni 5.516617781683914 5.954431148224457 3.8374181519679946 -1.55693640441268 0.4794297498302388 -0.21674451071703318
Ni 3.079080138319763 2.472517673223569 1.9736581524183887 0.7545655560019715 -1.4894395471122865 -0.7514182686222415
Ni 8.405350351295404 8.277453163110291 11.956069051829028 -0.18710457636341324 0.2638743743253004 0.2521218617750626
Ni 4.912549237311935 4.3444005959081275 5.480577835516705 -0.30035138620541174 -0.0044166410104569094 0.5843526131875743
Ni 6.162506026558214 0.15094734353541406 11.93774990131526 0.5127016245094912 0.26256568281620585 -0.47345039231835234
Ni 6.087707016180453 9.06152136631992 6.838948522573885 -1.4170511660475467 0.16446267059418126 0.6701454405836781
Ni 6.058477893065679 9.065708919774757 3.157422749487752 -0.004689177945553215 0.16585338029412083 -1.41114354231386
Ni 1.6519712265851247 7.175614792398823 11.199393962186084 -0.0101820827393244 -0.8650314606647231 -0.3108378875590324
Ni 0.6978985893508293 0.13318188064512007 10.410658032725463 -0.7066659041072152 1.3719833271746307 -2.8548704178803797
P 8.277239132600377 5.019182959620813 8.511541123505502 0.4930018320877187 0.5504942698772326 0.35845497521636327
P 0.9436232955133217 8.364740388457813 8.349696835313164 -0.21370186723596746 0.01266448284154593 -0.326600806820244
P 0.4152229115028413 1.2794650825913745 3.998363512018694 0.8031732897073458 1.1754361173410788 0.6162317212843581
P 6.280232112685241 3.6011656917203467 3.775339067851164 0.20063037876398995 0.6869977362543266 0.08745838802398485
P 8.776013971769025 2.1531655410832364 10.154700807054214 -0.17634502385406403 -0.5097335430201028 -0.16318200410954478
P 3.995279611541064 8.746021783358037 7.200812697387739 -0.44435193229049924 0.8996292532442507 -1.276617254267795
P 6.7697664172302146 1.9402331007418674 7.006635843686874 0.8651075653182972 -0.4924367036128681 -0.5512666292668829
P 1.0258017056459425 5.1213127355471535 10.987620078300555 -0.27503347626591346 -0.5653855851667683 -0.5679011524997704
