# total energy = -381161.3416278162 ev
CRYSTAL
PRIMVEC
9.29945516187440 0.00000000000000 0.00000000000000
0.00000000000000 9.29945516187440 0.00000000000000
0.00000000000000 0.00000000000000 13.61069263274482
PRIMCOORD
 96 1
Ni 5.33253993999879 3.3705502395131033 7.671911750715256 0.5170696716701998 -0.09055862421586339 -0.25373522900876944
Ni 6.517392791365901 0.5264700416325613 12.848275714768919 0.8952660911795485 1.2273176367017187 -0.19034570900853023
Ni 7.32624078177653 1.955926455875006 2.830765238319849 0.3405166455703878 0.762096574271694 3.226733696082849
Ni 3.933399748809745 0.9066670968689435 13.407293848636726 -0.3930697370767553 -1.3352180946301393 0.5742425213367659
Ni 2.8584571551935967 4.45338807036003 8.594348863244923 1.2636758636157785 -0.6080023913960303 1.1283869863720761
Ni 4.0503589933933695 5.80452447522955 2.766454857790466 -1.0051663531468171 0.3258405316154517 1.554439349022439
Ni 0.6000454691030804 7.993197688951336 4.585183665329972 1.8981102239510925 -1.8449130711028228 2.4911904468196515
Ni 7.237198500875822 9.1682582142831 8.11302023570617 1.416708180885831 -0.8090562308506841 2.3735380517107894
Ni 4.51613149273466 1.6005105881210477 6.3236367881259605 -0.25731934681560203 -0.8743470816386941 0.016274568790307455
Ni 8.349934079304553 3.2674750811315425 5.032348885313119 -2.5874484354131373 -0.7478914864159055 0.0578315662964875
Ni 4.189822918893935 9.021745301949872 7.492903753039851 0.5138645344693409 -1.4448543043027438 0.2336294593978299
Ni 3.9558021357225184 2.9165973473806694 0.8457919349886174 0.9723467355136352 1.5518651605373595 1.9195177430925912
Ni 8.957765052070304 7.7911577312647795 10.62133524403341 -0.713115773497617 0.28275475616957113 -0.10025142602359509
Ni 3.971648406913621 7.562456236310094 12.112249895979938 0.8866906908057116 0.15962025490021545 1.4362081985919717
Ni 6.030250144608441 4.558964782116243 9.646020500858361 1.6134142848947504 0.8460261232068139 -1.5617785629963297
Ni 6.849783208727154 5.113212295607855 6.3227384607802675 -0.31571552736630787 -0.37450123004594854 0.09516552686025545
Ni 7.244805455003945 5.41475642098502 3.6126317902129514 -1.2033354148545081 -1.3950960019326941 -0.3498443507292168
Ni 4.517340421874826 5.440608905674729 7.447348513201908 0.8580725128483867 1.7528917462985036 -0.23947049155963918
Ni 5.368073157264754 5.877822778943323 0.9190251425179202 -1.793261408364802 0.4384445656671288 -2.512667899967137
Ni 7.538184658957525 0.09629492579621306 1.6830032629185314 -0.299252239603962 0.6901360247729921 -1.0775130823403445
Ni 3.467478458189665 8.072401146542076 2.777887607674469 0.5602678043242286 0.6794119534872687 0.9084535364040999
Ni 0.6554683605612568 8.637538321750108 8.754451999004603 0.3292732114460845 0.517261990186664 -0.9389429632422088
Ni 5.820603232793761 0.7209597718660333 4.537001329475899 -0.8492605709837115 -0.7544074331575524 -1.1914926565833093
Ni 7.270555645689487 4.892331642244554 1.3478044101701225 2.5891980711143927 -1.0628562516591178 1.2936505556009978
P 6.147888249401543 2.766522743811414 5.517679068305822 -0.07596478556208854 1.6748831908335091 -0.21785368462081192
Ni 2.330945574609507 2.4183790498083013 7.189290498942018 -1.218476898481637 -2.0897224583768716 0.9905095224655909
P 8.809903718773045 3.5648809490673687 2.9732831048175736 0.6694386443246406 0.6061398842659947 -0.7643321484704321
Ni 7.095614299652503 2.6477222071527673 11.124140962719963 -2.8916271657844392 0.12597017094593788 -1.8214558685211468
P 1.95853960270875 6.309298888523589 3.741048893208875 1.5212222388405219 1.1326668446943526 -0.6352820530475899
P 5.326067519371438 4.225765312176571 2.3129873972050836 0.980540327068021 -1.2117874022766033 0.06277528345500802
P 8.746546532373408 8.179279781987697 6.464834132024427 0.8242769044551804 1.861718829806252 0.0394818601447062
Ni 3.07453928981593 6.151152358079992 5.676461681466244 -1.0452966455088 0.5709692499021328 -0.5212600556024636
Ni 1.0503083375215299 3.6760094354134223 5.636173652897457 2.0553079854527443 1.2829979609831583 1.1052663411942127
Ni 4.534563012394733 2.665381872054119 3.619681706991106 -0.010458990549794892 0.215076636096307 0.11779714821684228
Ni 8.925942317319159 5.512977263896068 11.47275241930577 1.1622517574403208 -0.7229517857514324 -0.021304160794414922
Ni 0.5809704271622416 3.855349423629626 0.0578091315917661 1.0215746193015116 1.0140901379990084 0.3879951507673254
Ni 7.68612038789418 7.170595804707585 4.9016589955336825 -1.2817509759499346 -0.47461793026389226 0.8030730166840556
Ni 9.246289940553371 6.775303874237989 2.4078948443265826 -0.028408375939363975 0.7199075996084698 -1.315368921114696
Ni 4.559057776665487 0.8542758277161073 11.185470867946089 0.12117737754298484 -0.3921443970490085 -0.9923229215252458
Ni 8.374270752841593 6.777424149960741 13.172659301440303 0.2570103002156155 1.4668050975422222 1.858726065726515
Ni 1.4615116353666997 1.5852222842254065 4.789329949556895 0.0919508765776997 -0.9231767015468875 -0.642236629988552
Ni 2.2787942313937193 9.095406284405696 11.860330451915614 -0.6125416740272807 0.4984877949029544 0.5295652330340492
Ni 1.9396896075770806 3.543975774397417 3.1354544393524315 -0.7636618618762848 -0.9503301220332279 0.6927678059688843
Ni 0.13544098130028925 5.5609252534860465 4.323844803372768 -0.01901716453245112 -2.0193115127534775 0.5141062181665017
Ni 7.2252951985726455 4.677077159110487 12.738573764808262 -1.4078368465381301 0.1495289321024844 -0.8913790974203164
Ni 6.044645700831344 7.694824677703376 6.754686982670691 0.8511870985824631 -0.25104328399890313 -2.270546601048212
Ni 4.570672795866007 3.193414222113972 10.283531613960688 -2.502125862785233 -1.8812728406787793 0.44102183947600176
Ni 5.1736959504358655 0.6070116907869154 1.9263486095426 -0.25341127001044744 1.0088332604754433 1.5139758416907538
Ni 0.6705799748133351 3.642512798775892 8.371583210368453 -0.7398740154280676 0.29605815814669656 0.1675024858617696
Ni 6.482584931584037 8.600210309683744 10.73840050240317 0.143991547224023 1.528272460819084 -0.6213916682187427
Ni 8.21766793191544 7.091624833489954 8.09713676669537 -2.188226048471425 -0.4679672577165941 1.2557681787329276
Ni 2.662805923040072 7.231758319745073 8.515475536303997 0.5748534154478875 -0.7234500655440895 0.7636456639263687
Ni 4.907629245595119 7.397762889599751 4.62737715221276 0.8839640359031679 1.0854127968033953 -0.35683826554854675
Ni 0.07281566200319924 3.2550789077173756 11.06605098758948 0.27948971226505415 0.012490933378159133 -0.7465018051572304
Ni 2.8027813185614776 1.2358510621722791 2.3303820276410914 0.38177899465428444 0.09825984951486304 0.16853015579533556
Ni 3.8974294571623362 5.779853021315233 10.613658543993353 0.12401921786715417 0.3252098400099883 -2.200795143385687
P 1.1770413092306522 6.245820809209936 13.33798873086747 -0.11252227297114814 -0.6909109552658037 2.2394953881693622
Ni 8.229785121681875 0.08351747473014802 4.321081935314742 0.47366353677042294 2.543559447339671 -0.026884997316302083
P 5.458538254768888 2.495927204422505 12.669458355919463 -0.8800122503442714 -0.08797646531098396 -0.24639112993887244
Ni 1.5937963816656626 6.627117060018376 11.392734329463657 2.0844707230596295 1.7337365135262914 -1.2763778845634792
P 4.006028491768965 7.8856959900257815 10.029378440823534 -0.6319437327029762 2.1549508313580628 1.1293735186550615
P 6.371093766495934 7.141516409159124 12.527676076306259 -0.9368889089266574 0.049534102174385655 0.27383122842769614
P 8.083867374463805 0.9903175538045099 10.173965436041927 -1.1533912217258975 -2.01166659461371 -0.37433205145793597
Ni 1.9668347165012756 5.3736156323996696 1.7883493481926203 -1.2229691299250358 0.144197492587242 -0.6575483206449578
Ni 7.207933116228873 1.072282949507783 6.342283125194787 0.3015104395105195 1.2544342904128527 -0.35164103761832344
Ni 2.5483854296507973 7.6275338218707365 0.8538192244793215 -0.48863069960321653 0.27400632055297974 -1.7994690798374104
Ni 8.992712403676034 9.280697923773488 12.319813729891562 -1.6152577658613925 0.23261824452449617 -1.2775672768858901
Ni 0.8318687910758717 1.1399364840824722 10.57874746026183 1.1804816501847863 -0.8770662803420702 -0.7677144346791037
Ni 4.753611673137937 4.574625064208858 12.23319488694414 2.199757446149792 -1.6483571195185227 0.2739230168105541
Ni 5.464964178121618 7.264408705984487 8.780529530503483 0.7713744000291941 -1.1514659796787265 0.9704253501212061
Ni 6.56207667227743 2.6888815946479663 1.0004892976007704 -1.7280073243519982 -0.00928168241224208 -1.7773113127934488
Ni 5.31874884834597 8.340504432011256 0.3641294570180802 -0.8826715423439895 -1.6258273138471226 0.5497856738459822
Ni 6.8799785388665375 6.389999558357149 10.58024467250465 0.4337972967031045 -0.6134919537556919 0.09722858003687126
Ni 3.527357648447593 3.5516199263452375 5.944537998516144 0.6925901427404395 2.6080373153080822 -1.862698934331334
Ni 2.151856671676261 8.3709136496139 6.6995365652417975 -1.388685727530976 0.906695930283045 -1.6886884721477176
Ni 0.08726050533720128 1.812817144044093 6.944284269668459 -0.06236802071426033 -0.8194362885334273 -0.418514402402105
Ni 3.4159129806341113 0.11540437572027201 4.718582486328873 -0.30191898780284776 0.22514739006874773 0.12667208210896894
Ni 9.105728679371731 5.582741774738586 6.65331455448578 -0.20956316247724555 -0.5951597311054072 -0.5320574033282837
Ni 7.016847916443209 7.2022418498151675 1.6294039945710215 0.6578380839712348 -0.381184298493079 0.2397491991423226
Ni 1.226365618149436 8.86766263330822 2.790981240207962 1.053365281449547 0.6095656221180921 -0.8827944410750991
Ni 3.3274472659387135 1.3122646832857114 8.890871282962934 0.40862851074696077 -0.763226317000763 1.0045009516486763
Ni 0.537094668883638 5.988783875100738 9.196255153278365 1.7239457526881148 -0.0756148584218375 -0.033713847312677424
Ni 2.105601182882515 4.357426994995602 11.09287712520977 0.047778552935859656 1.675274769844973 0.18130648162439744
Ni 8.178805509786555 2.5914512054054892 12.945564752296546 0.46668607701132525 -1.8647900125324077 2.302632940059796
Ni 0.34974413019559397 1.55124207593181 1.9722442094307737 -0.1738986191961005 2.2683945877022156 0.22626273462011354
Ni 4.9721488638603 5.114198037829838 5.007822502895623 1.0585923341764414 -1.25472533929071 -1.3455819543629666
Ni 0.18041035547799716 8.95190639546796 0.7822190012347354 1.5724728094853822 -2.0870335986907995 -0.206550858013483
Ni 2.7749573494278046 2.8254812880318303 12.531786435382822 -0.8990494694813806 -1.343943133207963 -0.15019099116651552
P 0.7742874961297523 1.553074068551908 13.19981277987393 1.5886653600848446 0.8208182564826186 0.6364398208011168
Ni 7.8604572693610795 2.54798555308905 8.74410728534675 -0.43558781294462395 0.6607760835536363 -0.5622488393099994
P 2.1607562500388697 2.7255307465048526 9.86466184547588 -0.15583044884048 -0.27834068626227554 -0.53330156014803
Ni 3.21697904089229 5.400946730422351 13.460947053822798 -1.3440246371781757 0.46366425946586604 -0.0981030122220246
P 6.661590139422964 8.401722743778292 3.3506670749393384 -1.6925487264340724 -0.6603801336667983 0.3054167165434611
P 1.7554209082509682 5.61942812441517 7.281066819590486 0.2884032127046001 0.004340793467198976 0.14536657319467866
P 8.282754816931005 4.65769709504813 9.691888202381763 -1.68230339455698 -1.2872099421819765 -1.2717735530222485
Ni 5.748048885473937 1.3726646430194032 8.642572116700663 -1.1488321416003053 0.03936616050244834 1.152186917005151
