# total energy = -340861.6552470431 ev
CRYSTAL
PRIMVEC
9.35640870173027 0.00000000000000 0.00000000000000
0.00000000000000 9.35640870173027 0.00000000000000
0.00000000000000 0.00000000000000 13.69404989526761
PRIMCOORD
 96 1
Ni 4.0023815845319906 7.749903953036016 0.48247163433960427 1.4391986486788633 0.1109742117577379 -0.42069006989718516
Ni 3.1589855497298003 1.3797708751867563 5.334421676479822 -1.4367288469821322 0.7504168239409205 -0.46210462828823
Ni 8.235108594350978 4.879217423955641 7.486934601964435 -0.020328941365339186 -1.0424702318035983 -0.8614483712991552
Ni 1.810792553837232 3.0874464489643603 11.114994344445291 -3.2014736359644798 2.537667764445584 -0.9775776448952713
Ni 7.421896333949691 1.2125250700360577 9.235007405857768 0.33643270530900127 0.9574176250076284 -0.11243228436050313
Ni 7.644663068206082 2.771443102214167 13.416595092755793 0.5837795142929235 -1.1937009770885378 -0.09965775830365418
Ni 6.201380890901119 6.592001596872393 6.288088601418186 0.3391344205108805 -0.20667812761996665 0.5162428048935302
Ni 0.07805677505176062 4.185636204933758 3.6380570651551802 0.533225455494456 -1.3814084771432724 -2.146881166976051
Ni 1.3092235537413708 5.043375614242019 12.593500593506946 1.802913072521953 -0.006231582732008622 -0.2622818330271999
Ni 4.997117529729289 5.352240021169556 10.099498399669343 -1.053778457727566 0.6649695528096935 0.06490235710033984
Ni 0.8603114860543274 7.159879465281709 8.521013310019253 -3.464991655391626 2.577594425437193 1.12709500703353
Ni 6.971029712489446 3.7857245851434826 3.8035083111211008 1.7231222283455547 0.5326233031340828 1.2066251413493734
Ni 8.58224071277873 5.082831589644565 13.27109545265859 -1.7308013421573676 0.733782300708033 -0.8262180873419512
Ni 8.093574200252258 1.6775105121940594 5.675731301786162 0.8007996472688467 -0.23282393277739902 -0.7363624027303834
Ni 2.6124215802929767 6.076987437503718 8.321312930081072 1.4356777800097984 -1.363544195268342 1.2981890669012996
Ni 3.9701861822649387 8.757392683263825 11.410292894428046 0.620310519339422 -0.08749772590235254 0.9668232345922447
Ni 4.950008012026701 3.7050816987326365 3.074300694769298 -1.921664614232265 -0.38980366473097383 -2.191919181052296
Ni 3.7936588197039187 4.42353225202532 7.454109513393235 0.8229448159073182 -1.1958653317297083 -0.4925498321519646
Ni 8.441127357070599 2.2713617710983875 11.038294248652097 -0.03259696009941483 2.3531512605243217 0.8484892400353258
Ni 1.3251388049056414 8.019490156325922 6.42524793881825 1.6093421717079057 0.24479807442013968 -0.25180664452748897
Ni 5.984499337704297 9.02746541980508 1.1997058545039192 -0.5728975772730972 1.2317103664527755 -1.3266046419295152
Ni 5.835601449974606 4.17428688120521 8.523463753452482 1.8418516585686797 -0.5369502126442107 -2.1055072320149546
Ni 0.9862403261160769 6.684499053080495 4.140670240459702 0.9462050441212608 0.12338286983473588 -0.44534103567664596
Ni 5.805838713964291 2.013312019710624 4.821496803169338 -1.3048142855273013 1.3138406573956276 0.32358438859142336
P 4.381755887270194 1.9688035836210083 7.091285761968657 -0.11821778069402865 0.7106552277722663 -0.3663276930962207
P 8.259678523544025 8.322609728324087 9.057668842664212 0.3437752617170015 0.5598823959603518 0.5123283003304725
P 7.036122247674532 8.625486033696578 5.817780298362268 0.6392693198301119 -0.4779495657402865 -0.27351241163569673
P 8.609177813367758 6.36741036292345 11.280226650448107 -0.26355555753330095 -1.00971874840419 1.0808974254315449
P 3.9446899686125945 7.167177464051922 2.705889296081169 3.667753221566006 -0.25703189748217026 0.5638161837971193
P 2.3236266699835233 2.979585769704094 13.277847037161907 -0.16581327108480476 -0.32757911157311326 -0.2215373041199862
P 5.350920767545711 6.7756866120734305 8.274300719028753 0.19080927890851007 -0.9209879214256849 0.821772907086404
P 6.6251887784595 4.080301756017027 5.9991991913810665 -0.28876933779476716 0.6233822162862104 -0.21469225617369478
Ni 3.0023499120219483 2.6215908607991407 1.607380486575791 -1.712017119571329 3.3019101814156873 2.292044365910672
Ni 1.495238314703667 0.6432905223681764 1.2033005867186828 -2.880521028568949 -1.1516827236752232 1.1776716915398169
Ni 8.36408668800146 7.818243162032978 4.020271973568558 1.2229269638331906 0.453233036830213 0.6200150995861903
Ni 4.912666584985781 0.08392979278004559 5.861737641980646 1.0618000424804617 -1.2165328873813888 0.6113502248223406
Ni 3.7385495725801356 8.06629091254208 7.831353361875057 -0.38815738737680244 1.4879971582388052 -0.24480938727404938
Ni 3.476738544903109 0.857717889568298 0.5440414816567609 2.9936765642487217 -2.3296374936730975 -3.014116063049996
Ni 5.10788805208896 5.991834762109229 4.261451184465848 -0.49655124000187384 0.029897558890380767 -0.916303371465822
Ni 0.22942756159551184 0.7905996919040441 7.32164709315041 -0.9499537125304155 -0.4111857299511757 0.4123293566373157
Ni 7.560651874670523 6.045185004401216 9.367209717939296 -0.8648759089234653 0.8661182659709986 0.4992424136807918
Ni 6.498278451127244 2.1500840017913463 7.285070084698626 -0.4934021528499309 0.42380470426676686 0.02516672907361472
Ni 8.365396585216628 5.527429417289371 4.854636267072177 -2.0170849374158037 1.635201555973171 2.5484352873747333
Ni 7.8572500298188945 9.360525499578475 11.189846549524235 -0.39709608462732904 -0.33424649629095987 0.735111818152734
Ni 6.497988402458171 9.018745246915545 7.83985740172409 0.0053630640841262475 -1.6231258557555595 -0.5119791445211699
Ni 5.792571326456393 1.8487515038510156 12.29343588894272 0.2241559726897559 -1.8574734242663364 -2.414700384881712
Ni 3.16948344026849 6.29076266301886 6.051715777659688 0.4834355285555223 -1.5527390785018806 0.6338504628073858
Ni 1.2242205808857567 0.8599419079114768 12.353306612443635 0.05065741714555147 0.18439514785205016 -0.05575154383900721
Ni 4.1932055395556835 3.917172770685422 5.2731128729648304 0.15323106354441995 0.00424360576770237 0.1027641651431198
Ni 0.476922348351639 5.180493783443893 9.813142705102702 0.7068201702968924 -0.7266480036560969 0.8837853442334586
Ni 1.4514035400389944 2.250178861847412 3.5950578177856096 0.749812100477386 -0.462234726108191 0.6200210131234613
Ni 7.531478592407033 4.213752213016435 1.5297896606762824 -0.6530728013721075 -0.03914941650595193 0.15637783670351776
Ni 3.3337632638677057 1.7094720042441176 11.355900348209131 1.820256448896407 -4.774903924267124 0.025636212510865525
Ni 3.352878406800454 0.004477041553264864 3.0683023011647044 0.09506319695443628 -0.05174602222403991 0.3062168438472533
Ni 0.7757445218431902 0.2655863385793099 5.0015459179574195 -0.3797277685522105 0.78197942923855 -1.3511869592545696
Ni 0.6980479685256004 7.606872533548533 13.606572292793969 -2.1993761515509735 1.5720056400409765 -0.10062680708514281
P 1.1556287488544408 8.653124864936588 3.0441187916501304 -1.3204098259727133 0.9011590596252158 0.21471513899183023
P 0.4762019048832975 6.130693223325538 6.657581600949696 0.23519037612704657 -1.5211685027844513 -1.202690839291974
P 2.79463763933129 5.055567014751746 10.304950164022971 -0.17599329694160012 -1.151942662204829 0.1240690972684831
P 9.020214203078268 3.287907504928205 8.867568138031464 0.13943555242222436 -1.12214460500679 0.9532418963633841
P 5.869780410881766 4.725248362721521 13.503949331112633 -0.1837495438482513 -1.0118656195438638 -0.08479858180363462
P 8.838643736238856 0.6912177901893759 13.591235267686107 0.026133720972574343 0.3835548556077846 0.20528716080971096
P 2.754863546033633 0.35784614200694526 9.532277351149347 -0.7313513226690372 -1.0995721190229126 1.9454992547580174
P 8.408473490778238 2.0573339225488914 3.5676557036851984 0.6565856996213724 0.1522229339948798 -0.6090398315216091
Ni 7.909112603130802 7.44761710141035 0.5026870909330924 -1.2553678579707155 0.3360249283476213 1.2481631126921602
Ni 5.157243107874691 2.7119831250542963 0.5531405890978269 0.2272731781624989 2.3736334396380734 -1.1386192056230453
Ni 6.820550591692876 0.20795179675286013 3.9823251868860585 0.06280793646515635 1.11399446509583 -0.7004852292178001
Ni 2.3683877291074924 7.147126680251197 10.769822393635948 0.10006296416187284 -0.31529515199943764 -0.8588962943012627
Ni 5.6563513724877765 5.972382788464008 1.4889947831916635 -0.2513641576734316 -0.11687283663036001 0.27724976719094185
Ni 0.11862054924198943 2.6668852352178556 1.6527487766230764 -0.5693633388675936 -0.1646562746622261 -0.9898672608959017
Ni 3.65632545310241 3.054437039142169 9.408483643548319 0.5988068409396913 0.22301208889329982 -0.14135899469718236
Ni 0.5566539205570765 1.041096950205506 9.789424209099513 1.2815694560667477 -0.3249822973802145 -0.5272029034494599
Ni 3.156824219324776 5.178313740221509 1.026096755810116 0.2227575496803325 -0.5569186853463377 -0.1492545953951752
Ni 8.336859538743361 0.2542987671480482 1.9877737022192203 1.5741972483756566 -1.338867261346952 -0.0652391716144683
Ni 4.086682826736623 3.5993917062860743 12.08053455199827 1.1466513318989027 2.71445964602908 0.7754228590669549
Ni 4.8569959533412135 0.5315057653076193 9.35492568898364 0.5532119259187118 1.3233092590076954 0.1372735117738991
Ni 6.799844859284568 1.8887314381396274 2.0601735925831988 1.9904475373339334 1.1539712625990834 0.013544571453654093
Ni 6.548045188894884 6.519152598891787 12.485604359893696 0.16843579630931635 1.1169190949417926 -0.6494300624131977
Ni 6.476609008624921 7.6378141770524985 2.877202332084959 -0.9124336040977705 -1.3268697226654438 -0.09793383363401198
Ni 5.846688794260121 7.6052070928035365 10.242532626079429 0.6096342705724985 0.8607708856161563 0.3254507523762008
Ni 4.106200295242601 6.220383756929711 11.999451914379474 0.7717330689201936 -0.223804245777292 1.377552850842608
Ni 0.4422016513819199 8.168650023498646 10.882496945161952 -0.7185616271035367 0.20245071980218038 0.03247277581672472
Ni 1.701135444110452 4.709305042331211 5.235317660102943 0.09611323548550543 -1.5179337978972374 0.7144044104020536
Ni 2.4004895672877464 1.482841073202986 7.811332518582107 0.21094950130181087 0.27034506965130856 -0.38883384461853676
Ni 0.612244087086999 5.320456300884414 1.5071125329591497 0.07900460082967685 0.04615181596571406 -0.07261592369451364
Ni 1.489128579835784 3.8449412956776796 7.588325324622646 -1.10447752674433 0.0923339709487313 0.18959546110606704
Ni 6.684695537662769 4.339577196941839 11.552779770930366 0.4537853097892572 -1.140721853788345 -0.6352360303010027
Ni 2.1523763219178873 7.187901909277589 1.8428083130576325 -2.1222011477308675 0.39146382604221613 -0.5490683360639834
P 1.062878669611986 2.364383186192555 5.906531448534993 0.4224718443879563 -0.2875202958790145 0.06406803412450257
P 6.2047024159824335 8.784208150540017 12.424680104775442 -1.555266730019741 -0.0277098072104426 0.6830132976852817
P 2.4180702591970147 6.931405321730665 13.067806889991724 2.1183717466824485 -0.9060912068195106 -0.7028056498208606
P 4.86605295694322 1.5592174372558616 2.2207641842399846 -2.852295715174668 -1.9551241794422909 2.306377751814209
P 3.478478836917544 7.987098269476596 5.11819226496798 0.26885280137649825 2.764040028060369 -0.9747376043433148
P 5.862931519728183 2.7090826383635704 10.114657653012289 0.1340886862880142 -0.7203675699640238 0.49740073248636274
P 8.08768901919269 6.024862884748778 2.374547988582246 -0.2953577896455623 1.5112880104459456 1.2503228393476402
P 2.8485586225527437 4.434058211790049 3.3346932908904736 -0.3358531786564474 -0.7061660816526613 -0.37287063642106105
