# total energy = -340874.3511089411 ev
CRYSTAL
PRIMVEC
9.19124768635909 0.00000000000000 0.00000000000000
0.00000000000000 9.19124768635909 0.00000000000000
0.00000000000000 0.00000000000000 13.45232005454033
PRIMCOORD
 96 1
Ni 6.3224662838079455 -0.14032737441910248 10.73811264110947 0.3773538690033953 -0.7841553538439463 -0.13794199859583342
Ni 2.0727366536761513 3.697528658936427 6.953423380134966 -0.2241778270666268 -0.48549961017340254 -0.5424225486126916
Ni 1.5640930053805475 5.977959937125332 8.100112414991878 -0.6197132520750553 -1.0233774768382053 -1.2592142282999992
Ni 3.680028523295755 5.4388381114219175 2.578541125554001 -0.5406981097224173 -0.7992405303118428 -0.3995116360473571
Ni 3.4420763113202417 0.7264468070402961 2.0384836308336642 -1.1925673777047268 -1.4226898523905627 1.5945634707368344
Ni 2.901290869781238 6.940798282279908 9.674868186841305 -0.42702372542469685 -1.6662537972932852 0.7169809128799781
Ni 2.6917304219832663 1.719820315338488 4.746731644077358 0.8871036099734142 0.6668114911144387 1.2798661002223959
Ni 4.136180955917051 4.148754582784929 5.011056303108429 -2.591200703366718 0.6455993758131978 1.1039077702837892
Ni 6.633314281374937 1.6586525618255272 12.205908944227765 -0.16701680447460268 1.590627626017538 0.24762705922850256
Ni 5.7628663582056765 9.331138500590223 3.4288353998685857 0.6993727128799117 2.1798175126927557 -0.26704068786842394
Ni 8.163868423860098 8.163307757749761 2.0517879618945227 1.369388569864261 -0.9095274861945691 1.3312650235196621
Ni 8.0510642407099 9.0154191417367 12.639853484131104 -0.36046943454323077 -1.0127313099782687 1.9032825121806514
Ni 2.9574034370534585 7.16736253834219 4.172573701226527 0.9832744381697324 -1.3992280218231967 -2.1877154273835937
Ni 0.3966703539384296 7.085725876178085 9.849452260601979 -0.7091231073984562 0.13897455362540584 1.1436415985383013
Ni 7.843075496270413 1.467557330677824 4.443221019557608 -1.238475967311383 -0.14751652965814593 -0.5020677989447289
Ni 0.07757137330177824 3.7713803342897916 8.70397371306853 0.8090256347230648 -0.16617116864485576 1.1272636714009103
Ni 7.2304788363697625 6.6847301210671235 0.5388672281418351 0.16163420000645068 -0.5894577956246235 0.1212784218972234
Ni 3.9386242776289095 2.785729312317909 2.9302111307021295 -0.28533074442686346 0.6968162650066451 0.40270288929114517
Ni 1.566161036115396 2.0848874831493496 10.840417662000036 -0.5232755433705956 -0.11136039145256306 1.210092788183
Ni 1.3252216686339908 9.090143985622555 3.5788825187414752 -0.21552966447332556 -0.5456217722762796 -0.13916944324503128
Ni 5.384710853655152 7.453495270815815 2.3473490762695146 -0.12300286078749785 -1.1142060668860037 -0.222436676005804
Ni 5.943842025624188 8.390763564839956 8.311448611847508 0.421755535047222 1.0394072766075584 0.5816197876374436
Ni 5.28840496014519 1.8726523822676404 5.053928878053764 -0.42972261241309867 -0.4971086551672407 0.3758173777542108
Ni 5.634777130113021 4.104746888747355 1.8019110251394883 0.5042146700844026 1.8257385550569007 -0.9057857597639497
P 3.28947402558385 7.336876719865786 1.5520745298743797 -0.6274643567753838 1.3455400453814375 -0.11940305925138146
P 2.2692731034684335 4.091603404521429 3.8324855873183212 -1.2619318843414782 -0.299454071202123 0.060772136982050175
P 5.757976614423724 1.3816099733375242 7.246872345786099 1.899641058773322 -0.6581317039522536 -0.027336483031423886
P 8.664782232831225 3.4402840180167065 11.664089487321338 -1.52745253602095 0.31225045163584286 -0.6371317046618189
P 6.074642671791422 2.3246779446669503 2.7946117341052763 -0.4607285738763098 -2.863248100421114 0.663354900024406
P 1.8354554027835004 1.1929136578422448 6.7627638141287365 0.8051759219596715 1.311979950037805 0.1345265451563812
P 2.3857445944550957 1.0440889749148432 12.836459787405984 0.033673480993045235 2.021550686496641 -0.5158501974408018
P 5.460667324734207 3.9189090512900213 13.019168924142683 -1.5140141511278569 -0.0951002208399588 -1.010246595883202
Ni 7.934537602236976 3.2741889806413926 2.769981028490846 0.34711743871635703 -2.3338376477973743 -0.6740733148831746
Ni 0.34912127215802397 3.942254820474533 1.2001241916710832 1.8504234593980906 -0.04128831722582567 -0.10518408743852208
Ni 4.030619475962677 2.315532653195065 11.516288709388878 0.019633457960211348 0.5064196481555214 1.2463725964506407
Ni 4.3801534351429 7.50802694348184 11.325010572411736 1.235118620803376 -0.33352658740579977 2.1098945624493726
Ni 1.545398007537518 8.435102143795104 8.34006188509487 1.4112407300133567 1.6017417336528286 -0.7457299599882125
Ni 5.707636150713658 5.656440900966522 6.175314407963843 -0.9217818780818898 -0.14029892886378417 1.077714399717873
Ni 0.5042290920202808 2.481719603047483 5.180367358057624 1.3733200437081832 -0.13644767343849404 1.091908431830068
Ni 9.11900450343333 0.15912439511171797 10.702598579081112 -0.9171515783987301 0.5354363471028455 -0.48263462992078165
Ni 4.726213102688577 1.5468042684372147 9.353330768187075 0.5365434641240954 -0.745623002096703 0.5432067350768839
Ni 1.6088084254918253 4.05967300997537 12.103792343915263 0.15890317422853278 0.4981823478473936 0.49732179961931133
Ni 7.115955889897713 2.2909828305604867 9.710032981456667 0.5509763517199737 -1.6865477716556307 0.36478374564786853
Ni 7.23314429820579 6.165534920399938 4.130090835184115 1.661674662563035 1.2814396153571026 -0.4097821647354297
Ni 2.301800929115671 2.278547072408265 8.776683835456257 0.3842392832693189 -0.9381024696187844 -1.271482247034075
Ni 0.5402854376635555 6.41482913205013 0.401827563028756 -2.0722744381037534 -0.4171758860963396 0.5364395915563793
Ni 1.502254290784725 8.668642556869608 0.71091635578397 -0.013045777440364628 0.19535010420165713 0.7990451264715852
Ni 2.1832338336510295 8.945841396568689 11.032449481289433 1.229096325868696 -0.2655797870521813 -0.16434542829002663
Ni 8.10423560871478 2.01723070875282 7.508829339406962 -0.8114779529182993 -0.7073701292630914 -1.6766832201567252
Ni 8.565562713797053 5.750779867466451 11.504828142618734 1.6866742699311663 0.4855178650058477 1.942195901416397
Ni 6.821596990723246 4.0664010032994105 7.710129612887564 -0.18412775312327645 -0.029702926381071422 0.09200486974408671
Ni 9.15874745853326 4.5893829980232965 4.17663623271454 0.8334878815304871 0.6005132821078367 -0.02545623528957551
Ni 4.869807965668741 6.156325290194079 0.4380925499950577 -1.0256590737835305 -0.4684868776654899 -1.4881228851833919
Ni 8.91918677820842 4.912482928788301 6.7019058056636185 0.8087991205345554 1.246717381384569 0.43849933016446413
Ni 7.066727567160611 9.13690905397326 6.212362489235074 -0.4004436609433233 0.1638224659070211 0.45237865924971765
Ni 7.421675171242281 6.666255713169145 7.4559346279581655 -1.1528435767525436 -0.42628324771424647 -0.40537272281382447
P 5.257954356480511 3.550202149385827 9.435820378138708 0.05817018058282885 1.749499432787503 0.3733465476162151
P 1.246333189535307 5.093008225069002 10.241506769940226 0.5853730840322886 0.09285693333173685 -0.9525793230787208
P 0.18257954014398306 7.179476602824546 6.922174057044249 1.0190366833710063 0.38551506465794894 0.039929232094769944
P 3.9598560598400203 8.717539994689135 9.69148228620269 1.1313851497684515 1.36850668147994 -1.3605992537074052
P 5.931295972499441 8.157223151765452 12.980184246978864 0.7841098453179914 -0.06923800836121624 -1.136066357294205
P 7.7443523046126055 8.471903899627696 4.180147289339928 0.3543383819448285 -0.7718845068963932 0.5629875172482369
P 2.173831187243252 5.031757750326647 0.5499674980017303 1.0729460317949522 -0.46836989247165145 0.7701392420705123
P 8.968047451037105 0.9230953900546456 1.5203408280293236 0.636772007329555 0.6479015415838132 0.1061860463404752
Ni 2.366737094189911 6.664932173498841 12.433817879830084 2.186423190934731 -1.0259238974091427 -0.2735818314210514
Ni 0.5208606547523172 7.065964693600645 4.781344963830094 -2.888436426761284 2.5154305503139387 -0.44943063236498726
Ni 2.47010186594149 8.118583146390774 6.066364114978631 -1.3511661333189633 1.574909701061649 0.11731326660188829
Ni 6.184156388261283 3.9657384583747 4.285088360073846 1.6338810373895343 0.09987270252793767 0.12675795695455588
Ni 7.503734630801066 4.108533682804055 0.08493264359306753 0.03558638174504194 0.2575764571317306 -1.024560698513029
Ni 2.753890830248954 2.836033011037133 0.8038821498759599 -0.6350907629723901 0.16159974722408943 -1.0173238144449577
Ni 0.2404191428609944 1.9328458635232948 12.902254415016378 0.11645708924918008 -1.0604918651919997 1.5167400346994522
Ni 6.73634816820894 0.5631505045928106 1.1864889756926493 0.48547467047273807 -0.4479501911647188 -0.36275617369487845
Ni 3.7715917329871314 0.5906884018580519 7.537752357702166 -1.0948867977321015 -0.13816954122560718 -0.7826618000175554
Ni 5.050627381876175 1.941237472682924 0.8343667611571673 -0.4499903615231992 1.7622243365533392 -1.2902389588162875
Ni 1.3911229147178266 2.1166432439889107 2.8550129375591857 -1.4494707200288326 1.5057575675460197 -1.1927046746135392
Ni 5.298846217544246 7.974252983593776 5.250991986339853 -1.0774372347970864 -0.7960186809404355 0.27332626376681957
Ni 4.069415732548434 9.094905051936562 13.497654250450802 0.5358032435239611 -1.2741477096813798 -0.9762923504249444
Ni 5.33067550836549 5.798546781817595 9.229811428456047 0.42554379844506063 0.4361133464307908 -0.3677790808307666
Ni 1.7834697057332665 5.566771088303495 5.5926940833460135 2.046324293896895 -1.6103613570010396 -0.17070299507693826
Ni 0.17719346898566676 0.09730773951040039 6.152190147849154 0.18596634899391198 -0.32374868208342955 -0.9838719625444151
Ni 6.260563230478149 5.940413690228195 11.82732053191008 -0.8769955750051348 0.10658456733047451 0.15015036773656723
Ni 1.1389794162773985 6.137161538717818 2.7962661586931543 0.7749957988318653 -0.35360613176449424 -1.4405831877312159
Ni 3.1900339166046283 4.517718839625016 9.14269402528221 -0.15135210135415225 -0.5799092327042399 -0.9552234455697872
Ni 3.998257092774227 7.5535879583824785 7.541679777848836 0.6225995724839148 -2.324803305509248 0.7627074683828154
Ni 8.478420494254395 8.676969827295265 8.411035780790096 -1.7206760807979078 0.6004649453684046 0.05417288649797767
Ni 3.9187987563174964 4.978071672449983 11.264380506889838 0.8398775871069148 -0.32266779031442494 1.320593402738429
Ni 4.388885120467815 2.9535339217673644 7.178400307717654 -0.07098918672436808 1.519863925040415 0.5539014957865687
Ni 7.298981205555653 4.49215797974229 10.186217738462862 -0.5349565792529496 0.35530614517473647 -1.0654435527703199
P 3.485293558054718 5.565861154780162 6.998556082892297 0.6117631439900432 -1.371538269217412 -0.02803068088497108
P 8.022451886587309 5.248037000200949 2.1392822062244887 0.3755882924625403 2.223342946779216 -0.5881827855669418
P 7.270947900038819 6.912480048084051 9.559325930998167 -0.13154740792339925 0.08525315284254996 1.4947715008481612
P 5.157971963886372 6.019210256849775 4.124804029501071 -1.1462049883901035 0.13102213154754855 -0.3287008838823823
P 7.8955483294493005 3.538869340958857 5.633926020575035 -1.9759352026503711 -1.0867052903625738 -0.07901282835979295
P 9.473235190193586 1.457676739389104 9.031470736738207 -0.1111937839677117 0.07205825141883074 0.531520042767575
P 3.6184379723881137 9.135153525660568 4.189253977571429 0.8467146646334064 0.34218246330858487 -0.010962669659090797
P 0.6713746890088974 7.795106374469641 12.190721326511039 -2.1999392231432955 0.40178860500699193 -0.7854406483142732
