# total energy = -381171.7590453043 ev
CRYSTAL
PRIMVEC
9.16937617296579 0.00000000000000 0.00000000000000
0.00000000000000 9.16937617296579 0.00000000000000
0.00000000000000 0.00000000000000 13.42030888388314
PRIMCOORD
 96 1
Ni 5.619470596386938 5.8984580393024695 4.45255009581931 1.4262276903404922 -0.24658293423470437 -0.5551659643212891
Ni 7.260009554818287 1.449632544131035 8.777271750693481 -0.43719012443473737 -0.4381272915370261 -0.8283449038769669
Ni 5.016749154274151 3.896700671411631 8.412010563228948 0.1905673381010331 1.1316191201561285 0.3727631643089193
Ni 5.403595970456473 6.850147604154995 0.6780405328114256 0.14047427809938387 -0.29391771476492606 1.4641704881328526
Ni 1.7868913733519691 5.59130227243254 2.4021684424148733 1.1661284667869078 -1.2596042646495662 -0.3688399179951131
Ni 5.960131264210438 4.015728344996279 5.978076650542193 -1.6068898535126714 0.4716655325037877 0.08923090654337534
Ni 1.961751379149615 5.797173108833628 10.912603090711043 0.9197211388981192 1.0646164288833342 -0.8775920709385532
Ni 0.4853204158814957 8.856141223890537 1.253996565541763 1.2234201014195254 -0.6729101478130088 -0.011264002949593505
Ni 3.107199034327786 7.128337311333536 0.9443953260160276 -1.8508404923308512 -0.6382856157606039 -1.1246483452652503
Ni 0.15596833983304761 2.5275569123299793 7.770439390724758 -0.17714720804038522 0.26159226315934303 0.12976769031515717
Ni 5.172160912966563 4.4500541915939245 11.095643097094536 0.6505461782955119 -1.4633510775553507 -1.2902240464179522
Ni 2.1871713257950964 1.747160465899363 6.646300449100501 1.0006201285370315 2.5430192585654847 -1.6403401627513168
Ni 8.32565612816862 -0.2523916669943945 7.299722123518318 -0.0005368463400764947 1.486285574864337 -0.10130146455466424
Ni 5.617095727928544 7.002056661105682 10.617517890785635 1.3397728038803571 -1.1715509233540597 0.6083224937396104
Ni 9.003016293259531 1.0357727454065069 10.468646648198911 -0.07976179071067555 2.6966035916842657 0.04364319061124742
Ni 7.646599628464567 7.666973982574811 0.9145095778830297 0.3691080840548353 0.5722344897678016 0.17727344920560437
Ni 6.93215850566806 7.243733911908438 3.0903484715247274 -1.2772847126484648 2.766189470303204 -1.0451369800024841
Ni 0.8898457895456146 4.309166724940498 9.355337656907512 -0.9541795776863051 -0.14607054124023877 -0.22307328114853842
Ni 4.75107564572769 1.9433392715648392 9.832469819764505 0.1781712784295254 0.71804869202286 0.7554741838591699
Ni 3.5050766101836572 3.394090479602917 13.200913553892013 -2.3194672380083152 1.0194704284743152 -1.5573570368898664
Ni 7.287609377442876 2.5615844677319224 11.827613316539358 1.3532438417835986 0.13207062741672093 -0.2692410379538524
Ni 1.2647320712988623 4.9371956456060655 4.695068178427607 -0.5005277081511187 -0.2012746972162082 0.8695005521796701
Ni 3.0903823982169905 3.668236491838786 10.675118078746813 -0.3111101673838126 -0.5626028802153085 -1.237933721654668
Ni 0.4236022610297194 6.851770583757837 12.570038458826886 0.1484765795785701 1.6038356400673797 1.5577313895101494
P 6.11906406339715 6.361071411746246 6.430891627485427 0.6671153955081026 -0.11383045025961043 0.7665322414455443
Ni 9.077169039294432 5.583040664397737 1.3909072736994132 -2.152485914757338 0.22570634789601127 -2.177855246760062
P 2.0984667795923473 8.861175211472233 12.984552034080695 -0.5518764949367398 -1.8236603323716334 0.4371358741580343
Ni 4.130308871081616 5.859295633179672 12.364761798009214 -2.0420783741363473 0.7345459183469351 0.657750409353435
P 7.827346373838619 3.4663726728752216 0.20896458396040235 0.9863872727671013 1.6039325706565604 0.6887455721833686
P 6.064625476379812 8.22542567597281 12.59388617267474 0.686017117508612 0.18377319799733513 -0.18558274040224815
P 3.7528973430988626 3.5799170594401013 6.514231171622512 -0.10645986882715214 -0.7439186178110866 -0.2328054208346378
Ni 2.3628107285771573 7.42846933596744 8.228474493588317 -0.6231996679617591 0.1489936284243047 0.6222992676346766
Ni 5.663639481962568 8.533571735481761 4.526790867866569 -2.140025063286166 -0.728851696175635 0.5437718635517345
Ni 6.436581225471659 0.4752212648387308 10.87840865266067 0.77992794602616 -0.45207835440047944 1.7769850398022815
Ni 5.119611217464397 1.933271296401451 12.180554530024356 -1.0556728465368013 0.17752181777098458 0.5179423040831402
Ni 2.7009406485453797 4.882656195449568 7.965745271767689 0.12609821188336992 0.41975855922185124 -0.3509807783265052
Ni 2.892122144134311 0.25744674414154933 4.656632903844387 1.2140486875069543 0.5616058064093618 1.1114069068743118
Ni 5.313543525939499 3.3791627350072924 3.5304537759962193 -0.7198993720783537 1.2663068734807221 -0.7508554541402359
Ni 0.7381659670021086 0.027808884403938156 5.487591124998096 -0.47815653954477 0.2666835616393214 -0.2634126041975335
Ni 1.1052216014060543 8.353237612040633 10.690363083761977 1.4307484610289811 -0.39267198741770437 0.20932610676577498
Ni 8.554945551607315 5.982431187341003 3.5449478090934576 2.555774244238308 -0.439624702018159 0.3136686721396082
Ni 3.1210264537689425 0.21473487245796177 9.710748183426665 -0.47597033052672866 0.14264840293256723 -1.7690855824495468
Ni 8.136620266630901 7.23432613183773 5.552746879019958 -0.6859325282146057 0.97302447830695 0.09662385657333682
Ni 6.088823460401836 8.879403931531263 6.903273136488 -0.5648651938869239 -0.2735833740829482 -0.19088872599619386
Ni 6.755547148999552 5.129816733272094 2.159179970803042 -0.10208590812917258 -0.5302535173503254 -0.8931079071859651
Ni 2.4073647279568515 1.5065010158644905 0.7175972221145742 -0.9218338143657479 -0.6917298516226732 0.5952566616945878
Ni 4.3341991222046605 0.0010874880276665342 0.34763581236520247 0.9646683930327709 0.27892304112830674 -0.962281123747517
Ni 5.545400374738622 4.1899923413352544 -0.03359567777881463 3.1196886441761884 0.5289006028668569 0.3679472309775147
Ni 8.057305161746285 8.437568365754368 9.581872599709522 -0.6675553112589987 -0.33548628223533195 0.42486117055573924
Ni 1.0956396031858897 2.8382795665756437 11.481074161578109 -0.5095929036771804 -0.427088003003729 0.35013488538644216
Ni 2.683051195408976 3.2636836100458058 2.047214550834825 0.03170144486833895 -0.09223009838101535 2.288552293597013
Ni 0.20020232798031684 2.564106046210913 5.128786095377408 -1.0264178063264258 -0.3681819726961401 1.2361609460249614
Ni 4.937534912528693 2.3031639358286684 1.1792844875533406 -0.18641320672334347 -0.6544956498615631 1.4029067562263644
Ni 2.2103240009203744 7.494883128415912 3.5509601691250006 -2.6551705213504593 -1.1891971756809132 1.4157039079910327
Ni 7.504492634764938 0.4136204780034311 5.197202479607012 1.3287378862224342 -0.21226153524501506 -2.5791486572981905
Ni 5.370943821497615 8.91827291761287 9.111544114057661 -0.7792183215536451 -0.38493785199824027 -0.9271817089412224
P 0.01525050664093575 8.26802659820332 3.521824475972299 -0.23847573174653772 -0.07354563459763462 0.09995343516720205
Ni 1.3053982551327667 0.3704327156905359 7.949251397702204 -0.7630180576446988 -1.6816673036348782 2.028548972191345
P 3.827875332999615 1.7136555649457919 3.2414882178049154 0.48699702065453554 -0.253530312086815 -0.7229245320579227
Ni 2.785739040449765 1.2941657691808992 11.864975774096969 0.7237272304648762 0.48798818092321117 -1.3708890656691874
P 7.186351955102897 2.7957428299791425 4.306765265290871 1.2628973335785412 -0.3006349788841016 1.8795926247628791
P 6.730982389926038 3.107565809379276 9.877333744062707 -1.197967979895008 0.48233149685806603 -1.582017515751024
P 1.9902956475317897 5.529179748086497 13.099094048785627 1.011253954101794 -0.9264276043840175 0.921444292236813
Ni 4.681159151537494 1.7418238889001898 7.511400842859744 1.347638579781679 1.612240062080991 1.185559578928326
Ni -0.049997858081427586 1.5695496472155452 13.25972134871022 0.7059064002333714 1.2461681937493183 0.4179428461693512
Ni 2.47475047429177 2.880192785584613 4.516122298556367 0.9538093388310799 0.6837329494601256 0.4132094452494238
Ni 4.288315563263317 4.820038524784014 1.8596787992577002 0.3600292616820187 1.5437841833014379 -0.14208815955372303
Ni 1.4316697359843338 6.926152564199918 5.908908377457035 -0.848749435675248 0.05239599710321299 0.854955821596276
Ni 4.459205229128589 7.045391133439173 7.747396748114927 1.4242194016612117 -0.5650865658691107 -0.8837051258148264
Ni 7.205864387842141 5.041341421476525 10.424252195966616 2.027163147587412 1.8590677653366499 -0.22522503738421853
Ni 7.4358323451260935 4.681094965903483 8.027076478940144 0.4969253355118409 -0.5804347661904068 -0.49086858779479986
Ni 7.329999404018782 2.7375998149417606 2.1962737656354383 -2.041732046540522 3.15780936230731 -2.004164372699394
Ni 8.45366979051476 8.817336423442942 12.239993177931126 -1.4948149524915868 -0.43572793806691407 0.21082968789449497
Ni 7.1404959042904155 2.117704131042974 6.444767644620906 0.6164281535658802 0.7685099339972055 1.5026560458025604
Ni 3.591479642938309 7.226266250081248 5.482209618055115 1.601979046474615 0.9667311890990705 0.8689487934412583
Ni 0.09592176227843491 7.048472043871685 8.130479535331336 -0.3779074275140201 -0.3052709349942162 1.1526633424209374
Ni 6.645844731099024 6.974832782908869 8.555151862573778 1.06125291172774 -1.0766497058987843 -1.4219293200754544
Ni 0.3206411685755711 3.5181338020166852 3.084241666917426 -0.07950648016675985 0.469898670411352 -1.365529601129487
Ni 3.3050650052301145 8.928955240987502 2.4105290797135774 1.2767743486709495 1.8948516078044786 -0.7761821058304825
Ni 9.166332054311543 4.736927298116481 11.853662597633774 -1.4383118751985358 -0.6108820269366705 0.5360410705663802
Ni 8.077303571428752 4.961246919607493 5.554975037457757 0.3389873534100549 -1.7086847127639866 0.6393449102630537
Ni 3.458624549912505 5.486239558933357 4.138326573707178 -0.8165543389999421 -2.1055617394019737 -0.6490114868185403
Ni 5.852647835371424 0.4250005909135233 2.4548290873701153 -0.9145161976584121 -0.11796169881916459 0.01349546338327353
Ni 6.897232351389967 0.8786967449179608 0.3351095274192054 -0.640985016969638 -0.009543420714060983 -0.43494709403683157
Ni 1.081637965595276 3.7327705621483735 0.5124984471968719 -0.5791746685310607 -0.3940858370460955 -0.5633405297122814
Ni 3.690958206278564 9.191474484091152 6.88206895382376 -1.2777642233880444 -2.662400463439995 -0.10486912730126455
Ni 7.168123235043867 6.012497572186859 12.792184938137824 0.06537749696454548 -0.6077373106601017 -0.8883495665653732
Ni 8.09677015728656 0.9421625828900848 2.5927906060502828 1.8383649855716597 -4.129988461894829 1.1301389360661762
P 4.39882488627712 6.989531293097314 2.8117965739828406 0.7120986450870123 0.04934152654760535 0.06715232947678113
Ni 4.016810331398173 8.269915489718493 11.45097293310236 -0.9464156174701702 0.36212882452352474 1.337041778102439
P 8.911102465356247 6.659342052993841 10.4610103916269 -0.15913843016779045 -1.5521569807461657 -0.07054669987031076
Ni 4.886443147856198 1.818855819089284 5.2427641934406735 -0.1501933051593607 -0.680792378774563 -0.41614461661834784
P 3.8146530923934168 6.341109679568927 9.632587503016612 -0.8872303653592655 -0.8984270054060334 1.072989483438378
P 1.699039579143933 1.8180214058471451 9.628481456315185 -0.22339389771275073 1.2406966291117858 -0.27859548258555894
P 0.44664948832769436 5.265532671699516 7.176818554577054 0.5907616020377117 -1.9871115309821645 -0.6248546870666787
Ni 1.2267158372119698 1.195714175984815 3.265026923671886 0.13571310926531466 -0.24458287308554008 -0.794265959915387
