# total energy = -340867.30686439376 ev
CRYSTAL
PRIMVEC
9.29302372919854 0.00000000000000 0.00000000000000

0.00000000000000 9.29302372919854 0.00000000000000

0.00000000000000 0.00000000000000 13.60127958091505

PRIMCOORD
 96 1
Ni 3.043595407884438 7.192103470529393 2.073691803380536 0.358808244790724 -0.07419586658712383 0.9537946835430606
Ni 5.015435670047153 7.254506125572976 1.0072875807822823 1.2954814381621496 1.2191998926905907 -0.3909084677593784
Ni 8.370319497290474 1.5473628125088452 6.924044339440315 -0.7463177141708824 -0.5980103131803249 -1.745044482339943
Ni 0.884866860610855 2.196025169127926 9.162978187515781 0.509172271199994 -0.5472734489470897 0.12830421839575323
Ni 3.762382922352942 5.3688958315635595 6.650386161491408 -0.9370074367823926 0.2033927720004755 0.15024061345752834
Ni 6.071457726418349 5.033854443285631 12.366419181154898 -1.71321113987943 0.42258523003736903 -3.344371693014008
Ni 7.362453890425732 3.1811786257429997 12.991085091630486 0.8835248914832204 0.08298209742018613 0.6425269075354613
Ni 6.025726756132501 3.169831843642 6.499085511151857 -0.34296587844182874 0.2947016441188021 -0.9780391579127221
Ni 8.168716638241257 4.004373262983604 10.9192295897595 0.5460940839270079 0.9525333003321337 -0.02212151448938771
Ni 6.332396542646013 4.79588798197498 9.019226260436382 -0.9172281972729364 -0.0793622412794117 0.6927544362324456
Ni 5.537926642075508 8.39218598237127 3.357842726031984 -0.8452907877026862 0.42679695412587143 -0.40618801962626816
Ni 6.2808946045594105 8.964134427242804 9.67358338206078 -0.9124333469874544 -1.344200757744724 0.003945357800993205
Ni 4.120731214405898 3.2790248736884777 12.323766060362782 0.35744273190176507 0.9446101888303151 0.8407016256701069
Ni 3.6228853415846287 1.3876343188544742 4.79295510365305 2.135859619054567 -1.5631944695072497 1.4122236627519162
Ni 7.807004271560486 3.310602568675536 8.05437899020042 0.16297657296695803 0.14247588191044497 1.6672583272983996
Ni 6.994329337299678 0.4083912253976609 11.804727446688664 1.4169313526402307 0.049252309267908724 0.07072410598843949
Ni 3.6021618984353827 5.278186625922396 0.5811652659098402 1.5185737454740813 -0.3702774217725881 0.12159003960037124
Ni 8.315527828766726 7.75797427781366 1.4975010931288983 1.6225211322920248 -0.33166485160671266 0.20921092134414937
Ni 1.3180667424350756 5.893514906049842 1.1845845359943443 -0.7950961691261662 0.49101539778530917 -0.7539585185455919
Ni 2.425414169440033 7.43864739283859 12.788480444611992 0.8577902057212775 -1.0815988223739437 2.7895769959892087
Ni 7.9435187916781675 4.262570637180314 4.232241924596511 -0.03921523674688085 0.3308007038342045 -0.4136624736264425
Ni 1.2195606897974018 6.3321456310025015 8.783012463420773 -1.7076125627457301 -0.008140883939579527 -0.25414172041856875
Ni 0.41653098497363616 1.2845839775621002 2.241409509624776 0.7260476510679367 -0.5450705277585 -0.7352727692106306
Ni 3.3582664879188027 8.260949899791154 4.8192599369168425 0.36222344111986005 0.714399525306047 -1.3308040247228434
P 2.310459464616635 2.612185362450596 11.327064163029519 -0.5009755943218147 0.9117705165924749 -0.45138441365724835
P 1.8970500063487532 8.837972335675913 0.9321135230839868 -0.11397340359537791 -0.1815283678272164 1.0496605789044504
P 9.227498722691076 4.399791427109361 9.12184819333002 1.8764733624076069 0.794110151063813 -0.14916075012978827
P 8.867691425896222 3.434339181021821 6.056609332936795 1.276367600150834 0.3759618737518751 -0.24415812684329563
P 6.181961072825385 6.694629318661473 10.401469696164902 -0.9011534031982609 -0.8528470027833893 -1.3947370759313784
P 5.679701013683088 4.140776266815281 0.6119075180542447 -0.80764058145008 -1.6889406973678396 0.3966939640929039
P 8.94040933739526 5.22364586904216 12.875678745848768 -0.2203985625298527 0.0783998773661424 0.021946679474420267
P 0.2488690368723988 7.19194548912422 6.938692932909444 -0.3223718563405609 0.2640245267499195 0.605436430441067
Ni 5.842877219179778 5.1464673061029265 4.878194435465673 0.166187623705088 0.5481720495019592 0.6602410369857726
Ni 3.917139648256261 5.607243306851395 9.593621558483338 0.45094012703097824 -0.9628616788413353 0.5539650020346524
Ni 0.7919784408806789 0.08646415235390972 6.546676944809222 0.6191105854940498 -0.9908216543893711 -0.4449494566651821
Ni 1.776231403486263 4.9244476736909775 10.657786162337661 -0.457357857631864 -0.33175304044514475 -0.2685751222350794
Ni 7.759953691890247 0.6914056197423808 0.7171426492499315 -0.3823598068584189 1.0537964554496948 1.0168659009719327
Ni 2.0531170486126293 1.6244856173050768 13.435670786255809 -0.8089824401899551 0.9342715259084684 0.706055781327042
Ni 3.775839220864201 9.30696336949341 13.448428249374771 0.34815025085624557 -0.01613315811643673 1.0292025681604144
Ni 3.6062787079937304 0.47615595519331333 9.414927861789067 1.5706861498986047 0.6034415114982253 -1.2556403949058117
Ni 2.3083034830872067 0.47508725745243297 11.213031326170427 -1.7210566040657778 1.2140792836345735 2.335291606635081
Ni 9.216895382496775 4.136901075876611 2.012785325174186 0.8331888622328295 -0.5473143294873541 -0.29735425125030074
Ni 0.11768778313290212 2.0087149807350064 11.776613261684442 0.34729330217258897 -0.0006139794349150716 0.45501995352730673
Ni 1.6434340929020785 7.014439440875898 5.152708500909668 -0.6906787846503395 -0.017222020305241306 0.9732304236701691
Ni 1.2062066145483137 4.9181284174840325 6.638389797024429 -1.9103072802379166 2.4496252217833554 -0.38088862162953113
Ni 8.225125292912077 9.073541196837457 8.304383634585301 0.26519823534304654 -1.5813287172141153 -0.6879649852636023
Ni 1.8826922845256204 4.320837896617881 12.867640280232582 -0.9874583943440928 -0.5270452948256731 0.9487224112264757
Ni 5.415890653090797 6.979869392214375 8.187970854322389 -0.1111269352855183 0.627188734516494 -0.03307544239773014
Ni 5.888636068537127 1.6963021054922411 8.51978756333001 0.2782314143779208 0.22052608924665248 -0.21242865695049865
Ni 4.133750740796971 1.7082993992616031 6.953545043600532 2.0057877672354296 1.536462195718728 0.059086264639195016
Ni 3.1103193190107112 0.25774108672647306 2.901547821376146 0.4484219885948148 0.7859610395941173 -2.176419799865116
Ni 4.138127755022665 2.960664463192117 9.90333666890717 0.3468266469488156 0.1731833382966308 -0.08991250599143225
Ni 7.730299652836774 6.94010454322979 11.879997222532447 -0.049688111253746683 -0.006981316413839591 0.41783974493258363
Ni 4.958190643231298 7.10951636771892 5.8293995467137005 2.2600030212044113 0.17436373175797712 -1.112385468737497
Ni 2.1627747298507947 3.93536326799423 8.471815115695463 1.0867122323411091 0.3765172320347128 0.26255462707261235
Ni 0.7030228288369427 7.327818790597373 11.4601802243312 0.1957907912835015 -2.7607646997432065 -2.141798096026189
P 4.9779104398065 0.533334072237566 1.6600360799810598 0.7510112629918099 -0.5439271581826761 0.06705359911538775
P 5.829588195097525 2.833424380860511 4.033024584765417 0.3538606709774615 0.1933559565897638 0.27123595689669416
P 2.390788362635508 1.0341276922188982 7.616472191804408 -2.595882939333736 0.17281361366203787 1.3736902825634083
P 9.216161233613908 -0.18113032754348085 10.942447280505721 -1.6447267218547865 2.364785245218824 -1.440491399348358
P 9.069768229160958 2.3710313939649708 0.5029115001130422 0.764925816190373 0.5331804611891333 -0.6579154741763895
P 4.28130537322914 3.7615651362555727 7.868952497738599 1.1407223680089773 -0.6301627295431534 0.46143614146629564
P 4.774486148085869 0.2793705996995094 11.585637904691493 -0.492454701334997 1.712895151300908 -1.8342021124432217
P 3.768451266916376 6.12940902304557 4.025230525676057 0.5055117916292713 -0.14242471695753534 0.5559840893472102
Ni 6.937242291888998 5.9884152654400244 0.5744203892113097 1.580666143929452 0.08760545512481042 1.2926701939655996
Ni 5.432385770395691 4.802188652134257 2.639178808780469 -0.15361390080513546 0.13224211999757873 -0.7920800080076617
Ni 7.126346033881829 6.620443109396705 3.21394118126886 0.3692392103160609 -0.2021856390662518 0.1792475422128397
Ni 3.8469680252876692 8.695612503566807 7.019239287686027 -0.2902595491870485 -0.255341911374257 1.2585912500040195
Ni 2.3248636515589363 2.537720362470815 3.6252169612645146 -3.6561768295823165 1.1388637175336838 -2.019793080375586
Ni 0.3913394559651262 8.960082668851292 13.02648965383228 -0.7387594422076502 0.6559411240588381 1.365801623843951
Ni 7.587744667227159 2.6295633170196955 2.5531504992443614 -1.8751052784154867 -0.969743493562833 -0.7551972760486994
Ni 7.897081551580956 8.435212682721499 5.845857491923259 -0.5136922705575346 0.17836925337294443 0.10470483380925837
Ni 2.118075285210492 3.0107259825844896 6.164507844763232 0.2911848892147953 -1.8172629134857219 -0.4451484600498656
Ni 1.7174994928570086 4.96944449509396 4.116876468119662 0.26467450162909256 -0.6729656836412926 -0.6622791504617239
Ni 8.98426311686669 2.0852430320058786 4.31005520106359 -0.3223674854651868 -0.32964293608067746 1.4790322357360335
Ni 8.00462971640886 1.5133503452773467 9.663328530260246 -0.3383353216483528 0.3090039196740872 1.9526376655750115
Ni 3.1488296097777413 7.846713362402069 10.685056540777781 0.3442231478876975 -2.658282841727196 -2.3841754768199777
Ni 3.913766280604612 3.8272575217363003 4.586868360604053 0.4680202224417166 0.5090288036435943 0.47840876476489225
Ni 1.150662211094033 8.332320322834299 3.082281336801926 -1.6730358532121252 -1.6270843261826753 -0.5359796212008253
Ni 1.2235938621412465 8.92002973612786 9.258635928348413 0.10247543025810739 -0.5127201364522525 -1.2346118563702866
Ni 5.018530246983789 7.578395885250414 12.036833727169757 1.594268565204235 -1.8368359505216432 1.279284516687313
Ni 8.688289600785817 6.38619385761955 5.141542003471042 -0.08977418064135508 -0.06815660237157939 -1.5837635519078532
Ni 7.624981813728966 5.06205877062104 6.616669212417822 -0.9219554275452767 1.0686720870099466 0.7377615970707553
Ni 4.154520649065387 2.5165787332490503 2.1434796244647942 0.8053376443485163 0.6970587200347543 -0.603476992721851
Ni 6.366343958710676 0.7844845464611487 5.091149652430189 -0.7809949538380936 1.102135765985031 0.23192301822968445
Ni 5.639871113531666 1.6762942251781927 13.312184156250652 -1.2973292900041657 -0.174875381287073 1.123690609337671
Ni 7.766198603906521 6.890293935480928 9.027060279528227 1.4274489643421029 -0.7626048813666803 -0.2739659542333475
Ni 7.863245651802298 9.153749285546493 3.3002826657081643 0.07706676037701567 0.27187256203942856 0.4329843138835059
P 3.09916769041022 7.0969521994957 8.323779104628706 1.0448880972164714 1.006027415595532 -0.2588861770820896
P 3.6061114335647226 5.720144253407537 11.845994048324782 -0.41632587939121846 -0.35021664646697104 0.2581608688802909
P 0.08869447807400799 6.125905553060248 2.9890035393731162 -1.1606232206979623 0.907617927876682 0.5915707282025683
P 6.4185614596324765 2.784617419685694 10.673291572604262 -1.1556833601941838 -0.22499929452665765 0.11143598188550485
P 6.958922916493118 8.253469015604992 13.514353889753725 -1.2208999061008328 -1.7245491906000685 -0.28694076922646067
P 1.2511197987367926 0.6583995869920766 4.416635032808019 1.1991450309222444 0.24460884122746904 0.4968412604384669
P 2.297235491701219 4.0721101137077556 1.9895815739637135 -0.07614399145243014 -0.26950714713104557 -0.17430793881937723
P 6.1252550413918865 8.997236178138596 7.130960949517665 0.1425602140941351 0.09995626338067948 0.3797498800393976
