# total energy = -340856.6368565546 ev
CRYSTAL
PRIMVEC
9.31386581343930 0.00000000000000 0.00000000000000
0.00000000000000 9.31386581343930 0.00000000000000
0.00000000000000 0.00000000000000 13.63178407795312
PRIMCOORD
 96 1
Ni 4.656001617034777 3.007531158541874 11.209416565977996 -0.3413103451162767 -0.41840975850344075 0.05126676859477622
Ni 4.391413311500222 5.761548198231838 11.76442052748527 2.1355647135219673 -0.7706256947886276 0.6565571603762822
Ni 5.043160399225018 0.26218812226448107 0.33872761033903276 -0.749062109685239 -0.7481881917207178 -0.8426590065067939
Ni 4.88414476488288 8.406378786718564 11.838468556402876 -0.8477153379837788 -0.36190693832070575 -0.9616167506906407
Ni 8.091784334590972 4.905901955875865 3.4094999190702766 -0.9545238483996014 0.004443123373018155 -0.36027865868866343
Ni 1.0761985894081505 0.8434013027162138 4.974224751358802 -0.6029296048588132 0.7251433940861125 -0.8167335448902838
Ni 4.1253254735384965 7.309056349205923 3.867827814195277 1.6689272303603901 -1.256994080720229 1.6497524572041524
Ni 8.113923394090255 1.9598050575179509 5.957117031106112 0.9838074278550669 -1.1299137074292476 -0.30583606346906683
Ni 6.12904540928073 2.908999770050954 7.131863773963995 -1.0346635912749857 -0.4219108296781637 -0.241131681312146
Ni 1.0654690157677742 4.652602055942123 3.063198272894131 0.3384029416614946 0.6045131472958493 2.1197056350025236
Ni 4.2917083758923855 4.460959948976515 6.635148780090028 2.0346262887336763 -1.5359307486952902 1.5309384376870214
Ni 0.7532840607762623 3.206633672179306 9.852535310574728 0.15352545485638722 0.7656187284923396 -1.2209711256584004
Ni 5.819610838921165 9.024176832846857 7.393075803070914 0.6116551576572692 -0.5501587409146848 0.6855877432806773
Ni 2.6149237647373793 6.5269989621733995 10.884952210042501 -0.5294703593273978 -0.7359651672919647 -3.6828818496773286
Ni 1.2734755853081576 7.602014690598626 5.100372683947882 0.3783252317777291 0.4192283977499941 0.538956187330646
Ni 1.2482443222944604 6.149247184650501 12.570154693294878 -3.722358567615712 -2.0352405252789074 -0.7053034765420498
Ni 8.375140080130178 2.345715781663218 10.835605485162775 -1.9131946290880406 -0.6651803832689189 0.57898543533839
Ni 5.832342893753105 5.047174675474152 4.151082969981604 -1.4706105873312416 2.2427388348073243 1.1352523460333417
Ni 8.10974146825299 8.992882243062427 5.229806548464326 1.4884177907159915 0.9093925032786014 5.084077022529225
Ni 7.985941561284344 8.631960621414668 8.356897010781736 1.2346172556869253 -1.2092546085524205 -2.002544320597467
Ni 9.108933013513024 5.348599321067464 8.983918578417029 0.901747585138834 1.0483531729469362 -0.16030339701016907
Ni 2.113530415967959 3.880175206361116 1.210294043861234 0.8146977454071775 0.18114553056650093 -0.3173877728624082
Ni 8.150172960590554 6.9928040289290365 0.18330805966230215 0.6648178577231776 -0.21109322596852678 -0.7920362992539197
Ni -0.0932150337739697 6.897038858642276 2.6893331716560676 0.618552913218367 -0.0741326174493562 -2.632107725993725
P 4.563011978818183 6.89398391059189 9.375314238253978 -0.3770926449222086 1.4629486999106096 0.8181489371805716
P 7.159438405665122 5.669787990328205 1.5567903498369315 -0.7260872460566205 -1.3173242450688538 1.072591733779327
P 7.6027411721471925 5.174569734721604 10.509560566165845 -1.0878268055615266 -0.61362025180344 -0.2586308665381739
P 3.3965061446035327 8.969001490619783 5.204724307306746 -0.6312287089138225 0.09773637291122522 1.3065076140693241
P 3.3808215942472883 4.58073626583002 3.569851161797857 0.844378817411378 -1.4324762423533652 0.5610974993143756
P 2.391297841902802 4.5267344707198625 9.779482933933298 0.1845617553369015 -1.3626476515960015 1.5787627562591522
P 6.387803234694733 1.1941773301222522 4.497902467107754 -0.5670030661655331 -2.4813433788222428 0.9545449314455238
P 0.2561778845299891 8.977458480954386 2.9326057634463822 0.3595330387718905 1.2548199558870452 0.7738601425655253
Ni 9.12778427831174 4.648969648199287 1.005057418071413 -0.064332857750115 2.355120725545867 0.46994366471667454
Ni 8.939960856409114 4.4137293344536435 12.068655166452976 0.13587406032321114 -0.09960582201979619 -0.2543309536112394
Ni 2.3745142553577 8.071442851231092 12.430605970294538 1.2187736037864494 3.3204948863964105 -1.5439068249222314
Ni 2.628037688075617 1.9290786135599638 10.410225391038496 0.379744737833075 0.7002129493930199 0.23067500475519628
Ni 6.834971255569822 0.42232328330069296 9.737455976348688 -1.8373900232529001 2.1006828140431177 1.7299317950682207
Ni 8.97935850961987 6.818914150573287 10.903478420917562 -0.9116476178613655 -0.24373929413832213 1.1315255320010578
Ni 2.6908969697586884 6.25334826501377 2.5878986511306814 -1.0431004091884293 0.6686182053058743 -0.7175149310065773
Ni 7.203073867909187 8.828464566436072 12.308642757702524 0.5012568730076593 -0.23918304222620743 0.281502886040341
Ni 0.14898925758531067 0.9179513490116125 9.052445347565525 -1.3970086455743747 0.6482468407383739 3.33774493172611
Ni 6.073385746021279 5.569561478223961 8.56767166129948 -0.7155166696296258 -1.9016166944424542 -0.5487454055069259
Ni 2.8556499455613054 8.847567305616984 9.996037769695155 0.7818182210703374 0.4594250245735378 1.5040812082848614
Ni 6.456800354076598 3.5035783482231206 9.711010185207645 0.542969165144781 -0.76754731297362 -0.38075312449293136
Ni 7.079143566816438 6.923993186867318 6.926377536565179 0.9823480697007211 1.3447707713155808 -0.7559133282791175
Ni 6.845356216167929 3.080300393656682 4.367596824733029 0.3522568168254514 2.297699250203604 -0.22388420708560797
Ni 3.0520234964586073 5.8515667131921125 8.369561074391822 -0.16931948446585032 0.20876123540124047 -1.5004065876467514
Ni 0.6678842919689938 5.242290854460473 6.177624671601454 -0.46434791579645196 1.1821420686063446 0.4480939158314347
Ni 6.729398584377405 7.256535458790922 9.874360492789565 -0.25254892201015217 0.6164397235301061 1.3841212480887453
Ni 8.352619152124596 6.835613912324323 4.623696472788557 -0.3473825194522856 -1.2435562100477682 2.435258925759354
Ni 2.9889872513213973 6.474999648254805 0.16507523556646841 5.468721768767078 -1.3180451823952783 0.48790770539426304
Ni 4.586222132908302 0.15547915941917712 3.4253130007774213 2.319626646404315 -0.2902520929878808 -1.140245428372559
Ni 5.215010540925175 3.7903522825869946 2.211184438280994 -0.18842098118199163 1.6665947255724716 0.5431902800166516
Ni 4.255067627019781 7.2992674760322815 6.5298424854654185 2.8202705684183234 -0.7725794760808887 -2.0999721611293385
Ni 4.2637295224065435 2.03315175232521 4.453667191892821 -0.05745952766904943 2.3786599463183875 1.6824242364055604
Ni 7.244278411125354 3.334522366325144 0.8758992439887837 0.2642304721131385 0.45534545518752545 -0.28332091308568624
P 1.2380456390164987 6.5366946966869675 0.9813033342064691 -3.697151729332781 -1.8340697006304156 2.0623872608970286
P 6.499541685183964 1.5357819936709312 11.85424065709959 0.07518522708358663 0.5769401227735871 -0.25984571278188157
P 6.368253429945471 6.6506871027499574 12.434422792584316 -0.34669834890106743 0.4323294539083264 -0.5594882458457268
P 5.3540293049497025 2.2442225837819856 0.5868173336283077 -0.05493624702656346 2.5820172370952372 -1.2640779841502037
P -0.13908768663298085 3.6501134021155153 5.048190818255545 -0.049109098821825105 -0.3861886936862059 -0.7761121718244957
P 6.334239191286918 7.41667807091994 4.703647629981573 -1.5088848003210917 -0.6037842395496247 0.390927751033088
P 3.0814087437115476 0.7436833276959675 12.04518142995485 0.9371529612213215 -0.18500475641159106 1.6312094040946423
P 2.8712599849894915 2.7806081271407233 6.020873238085684 0.3617812113761189 -1.0819829451862397 -0.6899447346977925
Ni 4.137042316975643 1.1291944869895225 7.02789401911143 -0.8822683933682999 0.7021590173757972 -0.6707848739398898
Ni 6.451118895812162 4.160075507611625 12.292093880580804 0.0007589896532115961 0.7134908974488486 -0.39910925840261585
Ni 3.8433202385703447 1.9980571052098128 2.081409686268683 -1.2993661179285363 -0.728393525592294 -0.39513099048115824
Ni 8.298328627168214 3.784549744064465 7.588828119105531 1.0986503785395918 3.113778449339341 -1.235824388621149
Ni 2.949747933832765 8.21370284062615 7.832550570623996 -1.8592860519950432 1.766896288107712 0.5538809269612783
Ni 0.6819612690523831 0.32355066568018465 7.015774816662769 -0.9223418643504179 -1.8338982080495578 -0.4057190504096496
Ni 9.151394928640173 1.143817256620938 12.693208559596341 0.28276504058221624 -1.3935173445916647 -1.8718708306385892
Ni 0.9652331897975237 7.613871242025882 9.183923605670566 0.6834051338070618 0.4148107282982727 0.5830508636570152
Ni 1.8700566446718874 2.477283452881928 3.5042405640962375 1.1286371547096692 0.5821566339775199 0.10945006180372763
Ni 7.332341014224101 8.92096056975428 3.3654145970980607 -0.37817353669121323 -0.5190041696887513 -3.9665490903588396
Ni 2.9458640517077326 5.622911302713609 5.616499637354204 -2.1434757408389276 1.037115395249588 -2.787648411507928
Ni 2.2620493233199026 1.6725468021216987 0.28971897879537345 -0.11671599933752157 -0.7875967754253274 -0.9814445840498451
Ni 4.057436704211498 3.9069246295339988 13.39339147610535 0.701134689876341 -0.8885079465201084 0.5832699216463567
Ni 5.782197039169958 8.061477014603312 1.8817176049129907 0.3035511240896321 -1.7861636209777563 -0.41447982732141525
Ni 4.21609841164536 3.0198813448675152 8.727464072066624 -0.4369296716844991 0.19740107319341488 0.1821937693253572
Ni 9.22474162344743 1.3062510797877445 1.2939456000189378 -0.4517286843705446 -1.0525355864594002 1.4806515165070113
Ni 5.25468761011615 5.8194525031990425 0.5185085089443814 0.678580715835225 0.23039706850346126 0.4021542158765267
Ni 0.9473691947955778 8.522448184901176 0.42779983651296827 -1.4578586869822119 1.2917852202574849 1.1742382403782357
Ni 1.972425345957803 3.5991106718596995 7.667933577265086 -0.9637337970336434 1.3303440543672895 0.655993060342696
Ni 2.1223133916128156 1.3317897003796815 8.310317435492774 2.3322165672541835 0.32376256604050047 -0.9446875790354697
Ni 6.519128745397254 1.6823729307593696 2.311746249561499 0.4774389446524552 -1.360054951168161 0.53419347583468
Ni 8.8880639950166 2.8064541053109 2.9240314184000886 -0.413371681858901 -0.1546125172729789 0.39966667356798263
Ni 2.3196928400389027 9.332773155265768 3.265193673313422 0.47884945184673655 -0.7298207449571238 -1.6548509547729822
Ni 2.050224068716538 3.6558973129060304 12.103088529081857 0.24433219052731467 0.549947396234827 -0.3642731245600372
P 4.656634959923271 1.0083657032771958 9.585802953085299 -0.19575685272177254 0.18085730990212076 -1.2283175387211427
P 0.18326149033226583 7.505336761443153 7.32014543807418 -0.32878984405176276 -1.2770900801391554 -3.0702023645206027
P 7.8184782504736114 1.9663340775890479 8.078413348550933 -0.6017522967212604 -3.814652686465443 2.4640953903750726
P 0.45440768892254013 3.022768643329769 13.545808236381337 0.5720275159633181 -0.8590184217014238 -0.40693415376367337
P 3.627396882923781 8.063544692856926 1.5711448801273376 0.6694502142888664 0.7808080346382682 0.7316796525427335
P 6.487247382054366 4.993657201396372 6.468649454411047 -0.7149050041875559 -1.6513187732500079 -1.1697184981310111
P 0.6141321084678313 8.664838568420334 11.184756242950547 0.16599453385767543 1.3630508005716913 0.23630546356809629
P 7.741704052975676 8.945381526425345 1.0580607667455908 -0.5491729799626477 0.846314086760878 -0.6719117884554815
