# total energy = -340858.2954984304 ev
CRYSTAL
PRIMVEC
9.41903725693042 0.00000000000000 0.00000000000000
0.00000000000000 9.41903725693042 0.00000000000000
0.00000000000000 0.00000000000000 13.78571311639210
PRIMCOORD
 96 1
Ni 7.226973030486704 0.639063786774414 7.926454290320582 0.5519292025515463 -0.9780440430087285 1.3132899270984801
Ni 0.4533307315374067 6.988756157334595 13.487652672552581 -0.23477565718713117 1.2073373369250495 1.524271310079491
Ni 7.853904155274355 4.1232401061079145 9.717370268562197 0.33765732174472174 0.2604995443157965 0.33100073566015253
Ni 5.753242192481142 4.932787526679563 9.06787018842443 -1.6501517495251 -0.3024316657732082 0.8097846243762764
Ni 1.8244863691949746 5.2824316114638545 1.2405635107668924 0.2029708539717085 -0.049285219388373186 -0.43174838459387577
Ni 1.6974706507790869 3.427323951904026 12.879964641033279 -1.1705070554705777 -0.2617277602959428 0.7117255780183097
Ni 3.203461691645191 2.971348354683922 1.2659280363970107 -2.480798047841734 -1.6260276027833866 1.1439262196582556
Ni 4.585884381758753 7.573047300122339 9.425154054388337 1.0908252260682183 -0.779262287417703 -0.9452221113827012
Ni 1.5633341401405514 3.631387395691954 7.1968038539137655 -0.3389032783366808 -0.27871658154445544 1.182334387122809
Ni 1.7018316650635925 1.287874393379511 8.071521593782375 2.645159416971361 -0.13271494586893917 -0.41397949064622896
Ni 4.624832101124692 4.534107933547249 0.7499701256421596 1.4878570331165148 2.483259364898033 0.2298010867906752
Ni 2.1042129398672045 5.389008018870289 5.886306816671349 -0.8785526350796096 -0.7595558101277112 -0.3122386245613009
Ni 2.4053678204687006 8.536859714110037 2.646622333160234 1.0747175218730782 -0.40338268896698914 -0.11899451095905313
Ni 4.994557573499837 8.914506596881012 13.077568509019232 0.9384477687733451 -1.8174446904792247 3.4903334765905245
Ni 4.08712751697877 0.5278701672680562 1.4258152531962578 -1.1236453579220327 0.24268051385650466 -0.5508138580001805
Ni 5.914656235231834 1.401477402635278 12.413359660184526 0.3071822930843161 1.7524502878857109 -1.4768154305903727
Ni 0.7640195617258926 5.512237284278895 11.935367063201936 0.04948345144210833 -1.650569039568177 -2.1985947933002588
Ni 4.578603465901469 4.483169779658252 5.5922576578327705 -0.9302194673262819 0.7430174461530558 0.9635098539482954
Ni 7.84051970322623 5.958492434972845 12.426745054136385 0.09993543744507306 0.48424259783784984 -2.18505716382514
Ni 6.585932187776399 3.982538526449292 4.576332536000833 -0.11796684102548716 0.3951970678324032 -1.7785022477777566
Ni 0.7015835889662787 7.306667505348909 3.7126859326117208 0.7359643959610165 -3.000237505295691 0.34707450129356354
Ni 7.278617612175567 9.172494029392036 11.306572852830103 -0.35087639153815703 -1.4661620646415845 0.06916138948700992
Ni 5.492438467807987 1.3320025832778004 5.4576671495948545 1.364517872035521 0.1640618356113368 0.185860419543667
Ni 3.445606303364556 2.274867058240141 5.92347245417416 -1.3701429315317821 0.3371076198888388 0.9534918075906612
P 4.016428222768192 0.6899218788460925 7.616813798987097 0.3365610033567494 0.769822739271358 0.1602082661932015
P 1.793488317336859 8.489321832697728 11.914412530850445 -0.6731533741720666 1.7427202050821406 0.8574379645881813
P 3.8155672516729893 6.245123160009098 1.963388912723272 -0.2656594912501812 0.15606981854479574 0.7509917226077841
P 5.729845303749585 3.9176319401976136 11.068245776941215 -0.29084344671497653 -0.02996235069004517 0.28329314517154436
P 9.31589887276481 6.2111015971675565 1.8869468314516502 -0.09587952220814455 -0.4314853607404762 -0.8276944147771618
P 1.5940402018413888 3.778644625333332 10.093140879096726 0.06674969472172375 -3.8327432254185676 1.652170836837658
P -0.059129890656241496 9.05664928925136 3.3450204037009845 0.0003524982434122961 2.6239894677619646 -0.35953226744094213
P 3.578122739582066 5.584876900179772 9.198310668814067 0.5689751022902395 -0.4673861884021434 -0.5458511146782664
Ni 2.708576051208473 7.00531482496345 10.83817637108089 3.1192027056787053 -3.2753910520792364 0.5777824161692243
Ni 7.179934358052968 3.507140874251541 12.669208029317556 -1.9652628105381895 -0.16549753961659885 -0.7273530001429215
Ni 6.847009064532171 0.39671949146362046 0.8894914999231398 -1.1473306173541145 -0.09687248224903316 -1.9861111147421089
Ni 5.272146022697807 5.92304859749424 12.283222472796965 -0.2604974874332675 -0.3169709970399638 -0.2613289821956274
Ni 3.996224387692027 3.169958175856885 12.81420657380683 0.6625437169770203 -0.2964422809589927 -2.3141674230619564
Ni 0.651449820865396 7.4957075845930214 10.41211469452204 -2.6804490934115903 1.368081421017063 0.9072410041532376
Ni 8.743711192948101 1.7880346947218944 4.081177511096433 0.7749685451383557 1.2323359158519165 0.0281720915588418
Ni 9.29162601356142 0.1910510437143977 12.436367542674292 0.8977209804779444 -1.7472520315142233 -0.6042655500614174
Ni 8.905483159117392 7.320381623703639 5.68871613533766 -0.009289909942358194 0.00876951866251393 1.3215184856558595
Ni 5.902957790866054 8.433090179828403 4.512615574164129 1.6087240785079326 -1.479713063853142 0.5351085314497817
Ni 8.732738014456851 4.966196852094555 5.128340870238441 0.6119999425911976 0.33280385030716236 -0.9332844794048508
Ni 8.021581857850524 2.287648691899048 1.6828767943375909 0.2926357627287089 0.12304965486503326 -0.1776380316338747
Ni 1.25111189067449 1.0830009123810707 2.247994544733243 -1.061983105025545 1.12736728685831 -0.8964218020505466
Ni 5.045938422143417 0.6340745226998945 9.923742318400086 1.9311578984346809 -0.4183961316566859 -1.6075166884633927
Ni 1.780461788707332 9.165034151825452 0.154753841453555 0.8019242477915931 0.7691221136599077 0.657586630082061
Ni 6.920308013046255 7.821851171235107 9.006482554519817 0.31314313865344134 0.8362415330162242 1.6680157742897141
Ni 1.032025082342748 5.477509293637488 9.256596613725403 -0.7373329941737689 0.7453538075957163 -1.4738203525177906
Ni 3.122910084385816 1.6174370905729474 3.563813338067982 0.1309658243883164 1.417586469725726 0.2882916268274003
Ni 7.436782087046875 0.26562721369064024 3.0848157298021146 -0.9910558818873643 -1.51190070432928 0.6919455671779051
Ni 2.1322816711152095 1.7251908776458245 11.169791476508871 0.646201528173571 0.5102570196237406 0.7651405033043404
Ni 6.974495734814635 5.83483931288432 0.7229064056774307 -0.7434753596260808 -0.17947739883545866 1.5814109925152766
Ni 1.3338016194081257 0.2725002852314688 4.781740076415972 -0.48530009256808676 1.401372064749393 0.1296249940897058
Ni 5.8282083106029114 1.7313791851726499 2.975164006706931 -1.393988370690812 1.4612229754687545 0.4545332436988753
Ni 9.05719559341659 2.221470535607611 8.710364975083232 -1.0544217477385196 1.5910330889860727 0.2715594016743839
P 7.40121580208296 1.4311002750429878 10.068933011250921 0.3116526701508439 1.220862625104994 -0.7573580311454441
P 8.201325347248401 6.3630400883627125 9.972474533746034 -0.14206296274274244 -0.9274689011643382 0.4910084558067737
P 3.577161997774248 0.9619945397827091 12.928531081322193 -1.2567050887249 1.9421910163203904 0.3099570276159759
P 6.531659694672036 3.8622103245388013 2.1450567114479844 -0.6994390473414729 0.45460214926359765 0.09278262845037569
P 0.91307111797893 3.080015788377959 1.1856279174343882 0.5863326197320805 -0.33547136983699644 1.0034447424700204
P 4.409993278629478 -0.04725060077369665 3.5120340641452787 0.0817587665360463 0.552330551755023 -1.931870865341305
P 9.386211986444797 0.11212139468351497 7.557506830429023 -0.36312769810168427 -0.6821663763039543 -0.20818068030742212
P 3.7578850670546067 6.640637956598013 6.20060690577275 1.2211109936703743 0.5973413121377583 0.3781344559231617
Ni 2.777137223944791 9.176346415660637 9.870832759997597 -0.3132110157768993 0.5478833146169468 -0.19293840943637094
Ni 5.798670209531186 2.336382791052463 7.8672999101672785 -0.7405633281856084 0.5518932071072882 0.12982965390134416
Ni 8.998053458011817 4.107623342212213 2.9651826528466927 0.2501734797994401 0.5846377485281608 -1.0672188995031877
Ni 7.6530526032164845 4.004305921722493 6.969464085072123 0.7812878024881641 -1.169641622146489 2.0015037951480945
Ni 4.1244080667370255 2.6220527742808986 10.066065856287201 -0.22647459352060353 1.7381076460107936 0.6112779768235085
Ni 3.633082822411632 9.141025025667343 5.370169002303466 1.9180838388595416 1.1995296679551728 1.2038028414092299
Ni 3.8952994026845196 3.6986204841645236 7.959884337617702 -0.916277403323893 0.8755040780612728 -0.23350270401197848
Ni 6.113680494047385 8.081449259129824 6.899266825551316 -1.2109659348165727 -0.3306947743839595 -0.734144054922826
Ni 0.532208575862966 0.5991119980289318 9.948860065252118 -1.170545364907681 -1.5757936463284992 0.6536423007223323
Ni 7.136512595954544 5.962165859532147 7.655495901500287 0.7639814499992327 2.0988316197669916 -0.9164265273072475
Ni 2.053830509180769 7.956599919300193 5.954849151333003 -3.195619234066232 -2.5297914470213008 1.9793090042186103
Ni 4.442065100743389 4.202567238514188 3.222176376919238 -0.30682619529647803 0.010040929175769804 -0.6688490903697578
Ni 2.5901128186896285 7.29972567483556 8.303865697158269 -0.8127822735520195 -0.36541572280491263 -1.265428070420195
Ni 7.8113112684611075 9.416296391681751 5.827689321645944 0.6083983412828683 0.8721207634113368 -1.348470074544039
Ni 5.399915264100218 2.2454325665790624 0.7154926813937715 1.1905374917588913 1.4346876481823871 0.016964138658164332
Ni 9.364171439088981 7.416691280418688 8.29627018545411 -0.4270388949333484 0.33889556502719703 -2.3181143235248465
Ni 2.789796410118387 6.585508331096479 4.095363523221473 2.5835670980808603 -0.4736992751043649 -1.642919493442719
Ni 8.745472552929101 4.261087717455079 0.2026807291076566 2.184474808959109 0.7824802801343685 1.182662202775873
Ni 9.141882158064513 2.885804657638828 11.44404464458774 0.5530820852090668 -0.5807800653449675 -0.4702223722993579
Ni 5.281414355432048 7.977425410840239 2.0788163895101595 0.5173033849475608 -1.1182807511760096 -0.7083754305991542
Ni 3.314314342000147 7.256793702678377 13.347975884155632 -0.8168754697847866 -0.7479071701451894 0.8775038821001211
Ni 8.495698520971183 8.42411383725144 1.4431020124108427 1.9167964875066859 -1.052215227005504 -2.10267567610343
Ni 7.804416533134416 7.1419944756815035 3.150228118358497 -1.3677415211791413 -1.0025330292890282 1.7808100699753266
Ni 0.20487253909470718 1.9559667113060144 6.337830034944832 -0.9212779418622778 -0.27180699890881577 -0.8660871556227472
P 2.7878749265027523 5.237945498146966 12.660110181159016 1.3206468816841836 0.6810235209487626 0.3371472148775226
P 7.45808794949083 2.461486444890047 5.710166109052786 -0.17250765238584484 -3.032132040011443 -0.1936788871468213
P 8.641957332655418 1.7910958818546465 13.428484163843281 -1.3233622237328175 2.01691781571032 0.17957278676274235
P 7.0634397043364165 7.785955219964587 13.412161914051447 0.2865085667850485 0.27111511504811375 0.3926221080163755
P 6.930084973796399 6.377988100607875 5.2828648871811055 -0.47246437425599924 -0.06762669801003839 0.12117274955729454
P 0.18108946983255547 5.419629309235142 6.993271643831338 0.06556313061279032 0.6930557695229483 1.4880555222805663
P 2.0135547055510816 3.5131219629570722 4.558411875573835 0.38297712872744366 -0.20410856712057754 0.5209857188951543
P 5.152882172005781 8.381426760064878 11.219557902153822 0.1836191889179741 -1.528518258281303 -1.8363754659454568
