# total energy = -340892.6875654023 ev
CRYSTAL
PRIMVEC
9.05438579719643 0.00000000000000 0.00000000000000

0.00000000000000 9.05438579719643 0.00000000000000

0.00000000000000 0.00000000000000 13.25200884554408

PRIMCOORD
 96 1
Ni 6.493705718711281 1.9263114715229965 11.38897465914536 1.0568956632003088 0.14008244197760392 0.8953013152928582
Ni 4.537016783665732 0.19044270216469875 6.068346077995468 0.5794322930678215 0.3482968037364389 -0.024763580097925095
Ni 2.8466897627502767 1.5069576047429527 4.858596868076687 0.38140104248957546 -0.7561287867240333 -0.9341134030640493
Ni 3.0947437092968837 4.380792415374188 4.670033856352311 0.5041380512101963 -0.6852069629024908 0.27134728566357785
Ni 5.442817514156407 4.784971131971281 2.5675629758708247 -1.177182410608224 -0.37353732347078245 0.03244500790258283
Ni 7.370677285608571 6.255059278751839 2.4897341939927884 0.3044083298836048 -0.7871010667358315 0.5362981808825086
Ni 4.723727268106438 4.680737045511779 11.245852892184214 1.1446962650550607 0.44069016716819587 0.11921742560313663
Ni 5.607118394359164 7.970086663449566 12.314256805586894 -0.2084982115478409 -0.688626015886369 0.7684137747389733
Ni 1.842811927974566 6.56200294892011 0.6104032127766388 -0.008214674600308433 0.7830225257910837 -1.8889527258215402
Ni 2.918970922601407 1.5619448881922715 0.3498768501339615 0.6627445201339167 0.40373544432071756 1.0623150344436671
Ni 0.4401852916165084 0.07184926566036237 4.8351541584474065 0.467441210009795 0.5271946759193437 0.16400578556242076
Ni 8.650587118282509 2.2469906445716594 1.2578777963134533 -0.021313159655479422 -0.03432731252696024 1.0397492333280094
Ni 6.749455892975972 0.9104546846637278 4.756344786614231 0.07621186857588809 -0.7313783192522307 0.8738721988848046
Ni 0.8265033272763178 7.760957520385361 2.600123451749648 -0.46955388547742355 -0.3752033983192958 0.2553048874887345
Ni 7.382882597330896 3.702048511338077 3.8221313942655017 1.406786550896745 0.3947453250069653 -0.3902322676279602
Ni 7.603239178477953 4.097598398505367 12.596895788621456 0.2480667178690825 -0.9857506676243668 -0.5087498389505948
Ni 7.948184104802456 9.004849007338668 7.079580601031111 0.001228730200778529 -0.1821156077892541 -1.1588633005840623
Ni 6.736815970747213 0.7663260700293454 0.4344402839845979 1.0994615615869776 -0.5083459186439567 -0.37340928253335043
Ni 1.934387983434209 6.605636032888867 9.38190531201868 -0.10666915662448082 -1.0416310237317545 -0.4532453781253871
Ni 9.117675705685773 4.7457837513079095 1.4714236686492836 -0.0068869569278203965 -0.41827940357316346 -0.8040479790028152
Ni 6.0665107540443435 2.26242837193558 6.929249732294508 0.5624095332575798 -1.2500248484912473 0.39879995469231316
Ni 3.57163819625154 4.190360578472149 0.32416782780134235 -1.1868065639615497 1.5966802599695211 0.2641397121715451
Ni 5.918788453784893 5.624502814616482 4.884994929149714 0.36350179361165136 0.6173416665190853 -0.8685240471990139
Ni 5.4918379575278236 2.524154440663723 9.370177166414877 -1.4445074624862866 1.373125411198874 -0.7250683178738029
P 0.2378840606960756 5.594234003720536 12.589686686846 0.9076014728164498 -0.39266710232169794 0.3260184519542127
P 3.9708188920246545 6.257965736513609 12.567422858215416 -0.25956006322066266 -0.1922832923508753 0.16287090062702916
P 2.4892045124380737 8.760136129060264 1.5752792817927674 1.5517456042403597 -2.0225336192352006 -1.102789597518946
P 6.577766634163855 7.793263568030209 5.892161316757434 -1.2404526314217799 -0.18374388742129646 -0.5018495122863357
P 4.923892569475464 1.0166264096310773 12.560359532047325 -1.9750859672761985 0.21519336417982943 0.8574983855124716
P 3.955933482179326 6.100781603353691 8.144458736700352 0.29291395609076004 0.12752774524104488 0.7486070244256914
P 4.773825183358386 1.012479501048863 3.8645240274138155 -0.5800568140256978 0.2421657790036152 0.09474000928706264
P 0.20332528192621546 5.578787221971065 3.444514623119902 -0.11459792455325425 0.20405303129229374 1.246171536183428
Ni 1.6299614324490286 1.1744534041650931 2.718252398275234 -0.6747163477838122 1.0959250091886288 0.20675628915606972
Ni 1.6510762595532293 6.374486624165393 4.89476189484324 -0.11419863223230656 0.4557650592234473 0.38073924053586045
Ni 6.039972349995281 5.532320115324943 9.311761892596069 -0.5616073490712586 0.3227888892733215 0.1485159174569378
Ni 8.815874926510292 2.1245662975408277 10.273023450900363 0.04017837199109855 1.5653606239206332 0.44776327196489335
Ni 2.3750377650294676 5.073489127543906 7.028865176684606 -1.0553596861717567 0.5885561097459606 -0.6958287042823951
Ni 0.6330500419160159 0.010959428270550908 9.300418558378167 -0.5564638571971061 -0.16449018139800706 -0.018481603743955268
Ni 1.6857817193690103 1.204115571229142 11.519918277540832 -0.6819992545984706 -0.1560639050075248 -1.1421647568824587
Ni 4.200492435903367 6.837220052118776 1.472933940159138 -0.1326936057127005 0.10424152101959468 0.31019793998218836
Ni 5.644965725961033 7.732001595394266 8.061050642445982 -0.18588947300938952 0.5025429388089345 -0.6302668592211855
Ni 5.180303713885354 3.129159428775043 4.669915243901597 -0.31013520506505293 -0.821626611316527 0.11839878635658319
Ni 0.86999063563771 7.557731836700203 7.385264806169282 0.3811616727852597 -0.545810234138002 -1.4312071458329545
Ni 5.007383058638344 4.50875804636204 6.995006301917814 -1.31218615251134 0.32903589862429783 0.3648814475679974
Ni 8.095734371736443 7.2702913130081095 8.79371522331354 -0.41261860574296033 -0.4784393608925115 1.6778466443372073
Ni 4.776939891987822 0.34974103435070125 10.520160188190683 -1.047661031975918 0.15070701157098562 -0.9869302897547649
Ni 8.251515075136004 7.262803336157693 4.531498135672588 -0.8264150338441058 -1.0379764576983026 0.8549936168127469
Ni 7.1532905429221385 5.919730109882164 7.026771802745287 0.4536608683962509 1.5394986685522067 -0.7614206312505919
Ni 2.2843037674260382 5.686443866168728 2.597221521180653 -0.13655206022684224 -1.6707254599113937 0.5579607534576069
Ni 2.1491761174675936 5.3150510796506705 11.522396462866057 0.7752742493042326 -0.3515955290923687 0.2013232910659565
Ni 1.0796720962205073 3.3690644283260314 3.5839657421788 -0.821220891237676 0.4333905481829891 0.39365749125942523
Ni 3.814793720215225 2.8194451166282612 2.4821674439880796 0.11837873175192516 -0.35311582239163697 0.5635745000999585
Ni 1.096567579658088 3.2792539780487724 8.059991279336552 -0.8976574742298604 0.18139132802871985 0.5567762462312025
Ni 3.5141247392335795 2.5131352534485374 7.063930095606749 0.4034899039688148 0.10942795031654057 -0.5750673312309064
Ni 4.1283108742932955 6.899278810683182 5.957334783951276 -0.4901774752650461 -0.657134630146307 -0.02995515160119357
Ni 0.6863015996552682 7.456639622026788 11.430467286369936 1.63919036541759 -0.33832375168412704 -0.10211984669090154
P 0.15592376269126165 5.51988844396385 7.990524222514576 0.8917395660835289 -0.075613829980573 -0.5157959471640987
P 8.470767021245877 1.6171856944370098 8.216960823558919 0.29028937398371946 1.232938839543238 -0.9692598690581954
P 1.8269395901042127 3.343784583868515 10.47340696296116 0.24998116128297596 -0.5980141698350668 -0.6802781581423059
P 4.027390692945343 6.077910225452657 3.7826932071223767 0.6610367934141905 1.0174135459452867 -0.06983913228032489
P 6.909854333006383 3.7898126704808814 10.398320754466427 0.4250190362898423 1.4323474300849848 0.5509704381827027
P 6.37814459592787 7.593315571914401 10.156312421152014 0.40979810557502966 0.14225990924489695 0.9226964194763593
P 2.2011663992996353 8.284826159576978 5.831533151110038 1.013235503308197 0.9420493700816743 0.5589223460399277
P 6.9672048110844305 3.719614019306409 1.4963503920703234 0.7852331602891574 1.2952060730135757 -0.11681010171322463
Ni 5.41398835056302 2.9101700598461395 0.3294564944014983 -0.12255754571996313 -0.38173708567275544 -0.39030760095058586
Ni 1.3160458854067283 1.0866258643234346 7.019191471162252 0.1707788426201962 -0.5019145611963163 -0.37427548718838766
Ni 6.915739683614329 0.5477522973972189 9.355281796745443 0.14744916675532024 -0.16489641569749022 -0.5752125985595191
Ni 2.71259431274461 1.5119375167958302 9.078182286790788 -0.08243548088809674 -0.16615959868062996 1.3314293170116684
Ni 6.307457007933661 1.9018646305361433 2.5221488942642463 0.3632626810176518 0.5541328950710843 0.3265326725864699
Ni 4.234410164176239 7.068170264360136 10.391562561091394 -0.6661208928053173 -0.9092410653024019 -0.2624965201411673
Ni 8.401854092819601 7.384204537621296 0.44544136242868193 0.19346882801854423 -0.4335360726219179 0.34693566172285406
Ni 7.522175264642657 4.004700402755324 8.2310874758951 1.1299157643117768 -2.1959280451013727 0.4522475329884921
Ni 2.933593755265765 8.46186656024955 12.458014190413696 1.2632799137289406 -1.1483906831875126 0.3752144540628893
Ni 0.15787317190032443 4.866198024746489 10.111878929500575 -0.7608308201853929 -0.2752538198068356 0.3467459143095512
Ni 8.514934313962124 2.298546315897268 5.64012072425286 0.06489695778370115 -1.0873650354337596 0.5793207071906216
Ni 3.668022130438598 2.6868798577806605 11.543864411006734 0.0947801184963787 -0.5802974692815942 -0.5642743543804605
Ni 1.0042037926555356 3.1653860253633392 12.746510455461 0.29016544681134543 0.7887429732146287 -0.38092101752936336
Ni 3.2130392565166024 8.199470466990658 8.044167835148173 -0.22753851600874359 0.6030756435183743 -0.10650280624994561
Ni 5.693225600946192 7.825506234976205 3.7690437209047167 -0.911614707740901 -0.29663408525482465 0.6288440107317299
Ni 3.138539772205554 8.194327575997868 3.7704480561036284 0.2552521798739281 0.1714920666371369 -0.39045286827919856
Ni 3.432635269277401 4.0622138597732835 8.924923229767094 0.18301369412349125 0.2177423558539282 1.7004792941350584
Ni 7.564993453911853 6.355309435569039 11.663795180256907 -1.369738754114828 -0.8716546224081955 -1.7220315663845374
Ni 0.7200300912701304 9.294688943201693 0.36962989765133913 0.12384129752839318 -0.4452690447881299 0.10535558001937985
Ni 4.830578071990089 0.12757991416339268 1.8222702434757236 -1.4280236058986502 0.41404505377684175 -0.49400353387935564
Ni 6.143391541755221 5.793086419184713 0.3185812719165688 -0.7790758824385098 -0.6737290441698783 -0.23233285207359344
Ni 7.898194842177116 8.686976693810719 11.570858250648996 -0.9935542228291857 0.9065090110832195 -0.6020662284172534
Ni -0.02176493198674015 4.494732803144026 5.74609777993087 0.6739355037537297 1.9604229659473849 0.3597137873241289
Ni 7.516461947360174 8.744481096443128 2.670928746756016 1.8019553365943741 0.9040798328164364 0.1827542698145175
P 8.524052080211666 1.492189901909783 3.4598744827680865 -0.0018607073578226017 1.0064827579653954 0.22814761034765224
P 1.9196202806010394 3.3207864445697712 1.5589931585027479 -0.14088385483297672 -0.19025572039788524 -0.3500497818718036
P 4.682955369971697 0.8757184399370741 8.261871481328878 0.27995739593009206 -0.17509572482799524 -1.0968128111102209
P 8.47663426308272 1.4633064120030932 12.388732748495508 0.5239106058514331 1.3476331804650403 0.3364000522988529
P 6.428278728722021 7.731322516477963 1.2304384809020978 -1.5333570744308431 -0.3236818334012361 -0.4747889086241178
P 1.7696524927250195 3.0109544254108305 5.7925196146492395 -1.5567607980667642 1.044211382864421 1.1974249629073443
P 6.807177600861598 4.048360649880734 6.005372826490443 1.4175340192212362 -1.236646113191496 -0.916363535279796
P 2.4332665185059326 8.535035049884648 10.309426608006898 0.46514135823202474 0.14223034155854214 -0.037709084514999575
