# total energy = -340892.88572550245 ev
CRYSTAL
PRIMVEC
9.09849481641218 0.00000000000000 0.00000000000000

0.00000000000000 9.09849481641218 0.00000000000000

0.00000000000000 0.00000000000000 13.31656685377438

PRIMCOORD
 96 1
Ni 6.41125421123096 1.9484153204746706 11.282155125149362 0.34092776496587734 0.8367179584320106 1.4776410118154617
Ni 4.865856708518974 0.222426347938491 5.947725035513783 -0.6183883626160447 0.1556980370276738 0.17791545366497746
Ni 2.9303703488534425 1.6662073138476206 4.864714847448217 -0.35511331243764 -0.4640596951320718 0.21239163306497613
Ni 3.473068255526674 4.220873525690688 5.009279918102907 0.515656593372757 0.14986317551345157 -0.7424988546454244
Ni 5.014007495890683 4.49401033321379 2.646440907050397 1.0036216343675168 1.1449009248666993 0.4066567317325706
Ni 7.422206141860769 6.020792315999318 2.6806248610658887 -0.46090340889127723 0.9266111811497332 -0.72562239060506
Ni 5.1606024406878905 4.660176139869167 11.579873335500084 0.2833335114911765 -0.6925919425126523 -0.7037988669720653
Ni 5.529118766973973 7.907547138653068 12.575339628341608 -0.7394698380111135 -0.03426509183045712 0.13979087887911407
Ni 1.8767737740910297 6.582660750768859 0.3742247217904121 -0.49640597267326125 -0.3991591378039448 -0.5419625782571376
Ni 2.7370091418753955 1.467714555922105 0.37241867061475137 0.1280720477802891 -0.6663222101828461 -0.14576612262594252
Ni 0.478385197679993 9.068287585680372 5.030559477244647 0.29454866348070563 0.7020392039684812 -0.6521232929746447
Ni 8.621442319488681 2.226665481956066 1.429227013966626 -0.1812979969839652 1.1099840583848561 0.0002977337460769066
Ni 6.962195354000659 0.6072753818589739 4.792579252808463 0.42209543488514406 0.8861330185300287 -0.6002003788531082
Ni 0.8724455475210752 7.310549416280373 2.502089651018518 -0.8102960167950561 -0.5136765868282508 0.9552982646717806
Ni 7.7563483555944766 3.807938348827399 3.7297704522759925 0.49843894394289 -0.7733286955420875 -0.5175604952636892
Ni 7.793806857812085 3.9546970665271863 12.49862294167694 -1.5885067230197931 -0.433064532302138 -0.3881429891990993
Ni 7.800476054344878 8.97414546218132 7.1721294688702235 0.7246499993894616 -0.22969618578169476 -0.36167888147029964
Ni 6.902427343053983 0.617413834378061 0.5132979411119598 -0.8652407484620518 0.538388230642318 0.4994401315138947
Ni 2.102653000725557 6.707364717588034 9.269115927166554 -1.1141816414059715 -0.8176925663694434 -1.3677818874987735
Ni 8.807224480475163 4.821164903104135 1.1648784423657952 2.0446957571545363 0.45996032825171757 0.6152266770586113
Ni 6.630737196170327 1.9527462038984214 6.998974198672566 -1.1723405091348906 0.15469967767014647 0.6989094000902479
Ni 3.0490147182772014 4.445033136848139 0.4484775361207263 -0.2684877047275957 -0.35177396365176195 -0.03351972902400034
Ni 6.295548655559033 5.575821339692696 4.752216511118457 -1.5476734910535153 0.7795268539329994 -0.1188541287264469
Ni 5.391831582139993 2.915967431921095 9.253441950540303 0.22575288486323059 0.124652737686095 -0.22689702577000279
P 0.2597165280062269 5.647590265000565 12.464186049511913 -0.060373101771418594 0.10132923246880612 -0.1670697691997252
P 3.9679262776577193 6.024058675556307 12.712686863239867 0.08315950353831485 2.048726475580484 -0.7110241810759109
P 2.2425059610332716 8.457851386801627 1.3713396618512288 2.235063577650254 0.5888224760334698 0.0006078087873279855
P 6.609628688726836 7.8019318134789115 5.724299672869562 -0.7151240621768974 -0.9673685655727535 -0.42452667003445593
P 4.846040187306938 1.3605342896788626 12.78819163042545 0.474017577675732 -1.9398783090268141 0.030065194816496606
P 4.1025567020720874 6.173665222062048 8.124170466743516 -0.21216846131057654 0.07858345413185822 -0.28743930612943397
P 4.7092807151590454 1.1570009657517546 3.5471873219865495 -0.5833581104847889 -1.260205902789307 0.6205172360335894
P 0.3051716971169751 5.328196710993539 3.5980560953769856 0.5662659308891925 0.7181494792667825 0.07388399177365984
Ni 1.2487046927012997 0.9820733088084119 2.490077818463821 1.2315118772887244 0.0975013740822837 0.2543859752188909
Ni 1.8440282920698554 6.78566636200988 4.805322604328012 0.5991575394108908 -0.4424804262993992 -0.013507804678447706
Ni 6.000202422747327 5.6583810795815905 9.185687281044531 0.63665013703971 0.13104835679979368 0.5568865465568216
Ni 8.645207587351784 2.4900941957540788 10.210863798112769 0.43999056999800995 0.3734928433860923 1.2878239216168919
Ni 2.4814324289065772 5.41200294464095 6.856900295835992 -0.6994323624732535 -0.13833794848267142 1.2727942809772788
Ni 0.5199871543328454 -0.04755965090888595 9.165047346072308 0.9131154606561435 0.13351687294494424 0.3216817722520718
Ni 1.3326292067783512 1.0381018384795397 11.363732227622785 0.07948951088589537 0.8094146426313673 -0.20887513527128543
Ni 4.010816581144192 6.710412713274917 1.5827268063064492 0.4950653994849668 0.7351663255397533 0.12339109736485201
Ni 5.642513305020622 7.721901455085401 7.85207361715179 0.08409769908186807 0.912878404944673 0.291900170114265
Ni 5.417189086555945 2.695137869782747 4.864261742417749 -0.042072760800333994 0.7415372620631036 0.6731829418584212
Ni 0.6448321478181298 7.582912851763519 6.988280737983629 0.7001047059499297 -0.6646941876611198 0.553620217100724
Ni 5.365364061384341 4.361818305348929 7.127732454680025 -0.6965954072450906 -0.33335920859000007 -0.5178433166114308
Ni 8.127257585957127 7.245495179978235 9.160719192196934 0.012467279229075303 -0.5351229296274849 -0.15983879866892473
Ni 4.703248413247393 0.34529332870040685 10.574938239341128 -0.30560594973613175 -0.21678204882318794 0.09274534745453704
Ni 8.538027321108542 6.90764078045274 4.915211492410016 -0.9355439648629889 0.19353439114915702 -0.6566736313494884
Ni 7.220501615345791 6.05764121907955 6.945228481293495 0.7086870483023021 0.14722856610408191 0.4898049224169758
Ni 2.4191623319482796 5.192283398842303 2.7300160389352808 -1.2501482614429889 -0.3307719074787981 -0.1317885773999279
Ni 2.184457565563672 5.509429624686165 11.338018062218994 0.3021688990301248 -1.168536562007768 0.9503095532079375
Ni 1.1765354336315714 3.169797233929072 3.8448391133267807 -0.05849773912557667 0.6122195148011715 -0.01604419794705624
Ni 3.4932305195330433 2.8472101083217582 2.65313921876587 -0.32797069058457706 -1.1464451294253677 0.23703719952779825
Ni 1.339826115997231 3.74940773314465 8.432182713870775 -0.24188270054555763 -0.6098435583698271 -0.4320646302827139
Ni 3.6511348931027774 2.0696436623613397 7.167788577102426 1.0831772226046572 1.7693329225736625 -1.4994694205444627
Ni 4.054735014519076 6.906376089705049 5.939481799417317 1.1073733602348863 0.3524537633276059 -0.4515708186364416
Ni 0.69461729050317 7.591984050867467 11.320746389943142 -0.42295906843702 -0.23730587980815257 -0.17464526755413795
P 0.29817677447794244 5.721597419977011 8.178156384379703 -0.17273056702992834 0.4262994456641626 -0.4188928687874463
P 8.660001739551403 1.7047212414374038 8.272983624521208 -0.05299763524295389 -0.07101926863135512 -2.0104034116305702
P 1.8671475668172308 3.217664413955023 10.485077867395054 -0.39675541345845866 0.4339407642595043 0.5206527610357679
P 4.022963071418786 6.135151294472266 3.7974723505031545 0.18881924506167483 -0.0041263634635477315 0.7017026465646689
P 6.936291939909445 4.0385214971637735 10.437098775885676 0.20513495150256283 0.13208682536663702 -0.46732731013975
P 6.295430375129392 7.840809680852203 10.137076826705345 -0.7203868532377334 -2.005323168894185 1.8968886928391653
P 2.496217482611609 8.594428889057765 6.0450689192582505 -0.27916960992147405 -0.04238977782012054 -1.5938181079303777
P 6.887023591716987 4.003292126120154 1.4315707861724205 -0.3692950032546608 0.017789462772937106 0.301865508857093
Ni 5.0346792755939624 3.2563148189636215 0.47919132430046424 0.7640971496414906 -0.5871286332708147 -0.24115070747553954
Ni 1.544332978845224 1.1095796119606018 7.1641400807727535 -1.6324749010706272 0.9463258859698412 -0.1114112992951565
Ni 7.111192301369025 0.5026463334981259 9.414905655192749 -0.5060463239765026 1.4341487449597816 -0.5543473250747355
Ni 3.067411874333554 1.7810667095228916 9.325564807287634 -0.9470319108979303 -0.22403667350307221 1.5157607015053185
Ni 6.242822879423244 2.255107376037252 2.5398020012351235 0.6456222586313333 -1.0669864717774076 -0.34128180587118645
Ni 4.146866370714243 6.881782858834464 10.472161644478339 0.9624456743498392 0.6173925743616787 0.5275268624477818
Ni 8.501223910501249 7.4118975474928925 0.2950232362538417 -2.234360123825326 -2.539209655011408 0.8777710197185786
Ni 7.785772887091135 3.859171971850803 8.117978941176577 0.24408485040319902 0.007453885174883936 0.5155180109123637
Ni 2.8494392394957475 8.392697067059025 12.281922276382497 1.1840935359057607 -0.17062380509957067 1.0114953806886386
Ni -0.0541223950550023 4.9846739493399 10.203366638572493 0.14443094875428675 -0.2011677393246987 0.40075707841868397
Ni 8.638456504367701 2.4457572316281606 5.831603678639197 1.9702201545434652 -0.9917539363956532 -0.09060336141086976
Ni 3.5477941915755498 2.7871873395266253 11.834099831872086 -0.4073694415288791 0.6378829810055465 -1.092642481782615
Ni 0.884461019473607 3.2248158307009644 12.689622179460018 1.5239707481199365 0.03271111707977592 -0.46820996985501945
Ni 3.2204212578150995 8.625600331515265 8.104728803508493 1.0059448831840545 -0.20351258540779144 -0.11339850492851439
Ni 5.317778934690608 7.949745956550874 3.7050280060941696 1.171361690161389 -0.2146997123728625 -0.15257106136291787
Ni 2.989037441955006 8.690081362658377 3.534789713261333 0.15366378020646437 -0.5690391227589554 0.062348480330234546
Ni 3.6340843142454062 4.550339113206313 9.423388181696872 -0.42327634256712265 -0.7473361281330677 0.31889366798397334
Ni 7.43345188117118 6.275331800585137 11.581085254979168 -0.8609624328016721 0.31248673601636506 -0.679722799859468
Ni 0.5646907877906486 9.1576348025317 0.2450260986449078 0.7299842671181815 1.7154477425194328 -0.1833314824742262
Ni 4.5537237531929415 0.13604342062383978 1.4768740104235543 0.07280284289433914 0.15871651213902344 -0.10549236270756025
Ni 6.009446493248442 5.719559357189365 0.3481438870547369 0.6460210367316488 0.4882540329900881 0.7210260294836293
Ni 7.6029659338348345 8.85192538438459 11.780127561977782 0.9226051453141336 -0.40391285043884634 -1.382345644245561
Ni 9.299116393370614 4.927226054513089 6.1506960724753705 0.06791774688789594 -0.8750891020110413 -0.6026192727072459
Ni 7.962956970692231 8.636272865666651 2.7900469963755428 0.2504077072974332 0.44251642174365724 -0.07379554582491162
P 8.711408233971973 1.5630303852229712 3.6681017658099417 -1.6307334928994883 -0.07116864972502582 0.662399478089672
P 1.7554635457530712 3.0368409325188432 1.435433097124904 -1.6009210375237461 0.15476318391823024 0.9317492737072469
P 5.028428609812205 0.9834926739640949 8.340884779779842 1.1324467582637465 -0.6970458645189479 -0.09449292627326307
P 8.465530516233656 1.6101878826710803 12.563567996044027 -0.3764303287478614 0.635780332840247 -1.050197939465159
P 6.402101125675723 7.832848498087955 1.5218305820308957 -0.42482877465590707 -1.2723759624929376 -0.33518186362103564
P 1.915278603186225 3.2889693160389184 6.269186677340596 -0.1762681478695416 -0.38697493703292707 -0.7447681102955753
P 7.171315153604622 3.927365188785701 5.83044544027818 -1.528869728083451 0.7867010030839354 1.3277266713491005
P 2.537788504382863 8.600597668388234 10.183591060586101 -0.7084857309247734 0.8168749555641545 0.5785064388194424
