# total energy = -340894.0573445605 ev
CRYSTAL
PRIMVEC
9.07289843902488 0.00000000000000 0.00000000000000

0.00000000000000 9.07289843902488 0.00000000000000

0.00000000000000 0.00000000000000 13.27910396814457

PRIMCOORD
 96 1
Ni 6.718281577126976 1.9994490327071626 11.421755519328006 -0.4616243462177018 0.22057339754482014 0.6417566050283399
Ni 4.30920025969872 0.3130549116244102 6.306047185177417 1.4659864582956688 0.4429722783341532 -0.41389927222759687
Ni 3.0258115784288617 1.7005061070770202 4.712103175760981 0.2382191356510413 -1.624784217294589 0.13917844210609578
Ni 3.4627260682963885 4.202339663684522 4.694029962374983 0.5771458110264899 1.4906029712927684 -0.16939995999479857
Ni 4.961051709964987 4.7211824250759244 2.7893555178750464 0.36452303578731415 -0.33806715558863065 -0.360025919247909
Ni 7.282851745880542 6.002411756553681 2.6773596614308905 -1.1043535995719562 0.13894267194620585 -0.8364958151188755
Ni 5.21505657038386 4.528809762714824 11.418129989172863 -0.6476560012319105 -0.012547240537391292 -0.2817108882860891
Ni 5.623400503548321 7.728920790118788 12.390665751232358 -0.17343350663422388 0.4311883983253477 0.055928692846819804
Ni 1.8030752222018724 6.491749452718545 0.34180783358302763 0.5058416641648644 0.40862953918822525 -0.16353681634580222
Ni 2.885236092383354 1.6270247038575438 0.41169999824050557 -0.021805011690233415 -0.6715880865674756 0.1793485865670782
Ni 0.5505461898726742 0.003004943912370731 4.798443597721408 0.41606799774414155 0.23322219665708221 0.35925304563762644
Ni 8.578316454769258 2.4700511939111407 1.4477542139114628 0.8243445244683222 -0.34228762142788144 0.11889115261196943
Ni 6.689293667102747 0.4960843033304405 4.876152971542227 0.2014024810433241 0.36779527878068274 -0.2237955040265436
Ni 0.7398612855113448 7.411060871562036 2.3603344495164644 -0.5859549246776877 0.0535589070630626 0.5330133394836498
Ni 8.020795927984025 3.7220113555177976 3.7106067223721153 -0.8041323111865054 -0.056465024966264044 -0.08866012164156988
Ni 7.767689284495479 3.9497229567034275 12.887396952210599 -0.5005433918804025 -0.37445006509303896 -1.1300887995545312
Ni 7.664884274015187 8.792645530982826 7.036995255412454 1.6347793808340878 0.6269604205557718 0.12372405522423853
Ni 6.858820771579339 0.4768343350367299 0.3465511448070235 1.2710760127345917 0.6123316148990035 -0.1571090584425875
Ni 1.8855115760297725 6.663281667716373 9.121376596266035 0.020190101794629746 -0.3099025202289566 0.527947237814652
Ni 9.10873623437378 5.028626656400184 1.344376703549315 0.35020404806148075 -0.6066749308338584 0.2312360194649889
Ni 6.409984493363819 1.9193625595353738 6.849056518443791 -0.2171175777857358 0.5894675658166364 0.7036929375218204
Ni 3.449016918986026 4.549060471689496 0.7417058057329178 0.5454232831122284 -0.7065648597529767 -0.9593814336022186
Ni 6.19231659058095 5.661660915620988 4.854999509188084 -1.0628727067193502 -0.11440612025742232 -0.38891123482369155
Ni 5.422218056951376 3.061359193913972 9.393505478301309 -0.4642227030724973 -1.192349605266966 -0.5765649988223553
P 0.1033330531605457 5.658122485289392 12.413930477017686 0.4294025100695185 -1.0123654419984178 0.30194392750351223
P 3.8211962795819185 6.0646246201017675 12.499420768408704 0.6865344234646628 0.8461135407142977 0.19848247918305173
P 2.2955612140720283 8.641237004383663 1.345903672330873 2.281892622188651 -1.6156444597768498 -1.0441363066521112
P 6.209128671105174 7.620381707921654 5.95255708776115 -0.6719925210947458 0.15036068397516042 -0.8853938263711592
P 4.938650724096498 0.9191481066743408 12.67621889357181 -0.3298223990813352 0.5815115441943534 -0.7437324699422094
P 3.842780704604654 5.963470877109552 8.029966813571658 0.8297284144880549 1.2828069280182746 0.30798010639526313
P 4.862002879375158 1.0339656344854868 3.7291707795553934 -0.34139107775554106 -0.8577130726264388 0.2131508798285039
P 0.057143835275617685 5.666124781577771 3.660398210546426 1.3182066476738072 -0.6265693557649402 0.07830500365949095
Ni 1.4814772695512295 1.018469124212754 2.538778398428678 -1.1240654761785867 1.9530999499234105 0.8849469686417275
Ni 1.6133609190386118 6.677988835838213 4.842212166343593 0.6549993289708591 -0.47130943471594955 -0.6186318460854184
Ni 5.847355924843488 5.506033491318769 8.96196123692935 -0.013953891076930808 1.0061199753093382 1.290358000892655
Ni 8.735649583949273 2.0670693436337904 10.01156764077032 1.061579184718907 0.9348536236641836 0.7679363208819225
Ni 2.1454047474363533 5.245151373998998 6.948317654853516 0.6568317541939075 0.12168517041733883 -0.5690398940899039
Ni 0.608635421149708 8.968578101649435 9.010575640526165 0.017060040806080295 0.8064339627364885 0.24424065925477287
Ni 1.5350890255240517 1.079230324035057 11.568396237877801 -0.29905246488833015 0.2512304603090448 0.09182900628785476
Ni 4.027704517472832 6.801988136714937 1.6113530866478882 0.09346654189127773 0.755342543377312 -0.6298063746449992
Ni 5.650728073186186 8.06047171218933 8.06543549484168 -1.2131637137988398 -1.0357704511859194 0.5590616998312694
Ni 5.580004831045697 2.9902730358420375 4.6490937117433715 -0.27071710827874673 0.06316094892920089 0.1345833665362456
Ni 0.6737289299036446 7.412603264270681 6.979934890801069 -0.18298155533397517 0.01876776752580639 0.1803454032627088
Ni 5.202790011900995 4.42671243830085 6.917217574108273 -0.7388918540204565 -0.11566338970329114 -0.28978749464663645
Ni 8.212424612685663 7.272290892275471 9.299289780628508 -0.6225252676025537 -0.892259957363373 -0.32226027046336114
Ni 4.667325700849377 0.426925228854483 10.523716417806206 0.1690024674460638 -0.1473108414052431 -0.29872464923526615
Ni 8.12742970154107 7.221246766517628 4.826516052308565 -0.06735544662652271 0.3567295078848243 0.20866301926047937
Ni 7.259153335557135 6.0139706289702275 7.0229458724163605 0.6424731714793903 0.3179886396712008 1.0937861084687548
Ni 2.198190869665136 5.250250342835812 2.6666563633227276 -0.6447444840120702 0.30368353590243824 0.6139992324094135
Ni 2.1630424617046167 5.355414306870501 11.33909325033278 0.3216450054768654 -0.00197769255166111 0.4286900573835262
Ni 1.3420631144863484 3.1305218975492437 3.914215261970776 -0.9784762454501406 0.37164833397818575 -0.318804964924909
Ni 3.6893035571962507 2.5887882137819007 2.5612075102818532 1.015996868103418 0.1461121931114516 0.15539901773001624
Ni 1.2055341410764608 3.600334716602327 8.380509126334756 0.6243782616508924 -1.4928043498194612 -0.4906212476706841
Ni 3.644964303271867 2.755076293570339 7.596723218350705 0.5762580091048979 -0.06265058495168566 -0.2842174567580267
Ni 3.9437257709362865 6.901191206575629 5.8105644150033475 0.914390213603509 -0.4174592216647133 0.9477816445797613
Ni 0.7249300168018383 7.516841792680183 11.551174062351043 1.682905546917353 -0.7153122669283035 -0.7233842453031607
P 0.17792588642007456 5.571394650572147 8.199992927453987 -0.31410627389765905 0.0933834952591682 -0.5755486417426992
P 8.867995951249247 1.6037890113467304 7.887694695546643 -1.3076036753469802 -0.18707372312547782 0.3502906942380161
P 1.8524408617767794 3.1315289892590057 10.612168103197819 0.0831564182145213 0.6037125057714249 -0.8318493174857996
P 3.8242719921009214 6.343416638638385 3.7393959359238775 -0.43959333455959126 -1.0861967261572714 0.3219795059981487
P 7.040079133539915 4.0082612964456255 10.398348016578105 0.9803122702176149 0.06552482117568714 0.3130667768895512
P 6.2674401883902195 7.7284852910010535 10.205841075322368 0.3235941587834362 0.012238708158036987 0.3236617787965781
P 2.39693270662311 8.484620634168254 5.915774650819296 -0.8869331458338209 0.23324970746090798 -0.001017642631236957
P 6.720949009223102 3.9793459696076865 1.665810436740979 0.8128516933373744 0.3124754231624554 -0.5235071997654275
Ni 5.27888440982688 2.919313898346109 0.18510436354407134 0.5906713563167505 0.2461432755941245 0.7462490657164761
Ni 1.6856628454808895 1.318201391993791 6.897724452140494 -0.0993998766565772 -0.4482864914582151 0.06586060724855108
Ni 6.9844259754527105 0.7595540112414192 9.241034515312839 -0.2622849183509935 -0.6519872816174126 -0.17133882888872426
Ni 2.626776438905984 1.5716255869223514 9.377158837459163 0.14406199545064222 0.7591847999415376 0.6778505225374196
Ni 6.400929740874249 1.9919003813330913 2.5146771514213664 0.08245784948559992 -0.28865106704934806 -0.04566716301981168
Ni 4.051883791405404 7.067560942448643 10.429102419898644 0.3487058662493994 -1.0601828185920128 -0.5802182793042265
Ni 8.177620974860016 7.342524197908508 0.16436916180091896 -1.15339970636633 -0.7816629264393957 0.671938785038675
Ni 7.82506629325705 3.6856653249835065 8.322438948144125 -0.6774885112123107 0.3077736468114119 -0.791810813506675
Ni 3.1607800133335324 8.40473376475876 12.441405027607788 0.2202044442411756 -0.24656313674036245 0.7709586526480142
Ni 0.19918459439433744 4.562334121882124 10.303362937130638 -1.6040649824693665 0.9041009158623592 0.7290674117308669
Ni 8.639259112557284 2.5212132673467043 5.9330104356934825 0.6874988442604613 -1.070814073053614 -0.8153250945785313
Ni 3.731574190311393 2.6579327716206005 11.648284014577124 -0.19797442919838162 -0.10118525069177411 -0.8314639091219229
Ni 1.2995747318123383 3.360492650408123 12.688993534358701 -1.026131899654891 0.2735013558921031 0.83017038712148
Ni 2.885680664399375 8.733227120106871 8.20040392974635 1.6241632958811383 -1.748307983582563 -1.0705173677488016
Ni 5.507929727060573 7.805505124552126 3.579090525265322 -0.3148824899420512 0.14427076902733862 0.5311603454353111
Ni 2.891296788438498 8.383884244497203 3.4566435972853577 1.0892488827200337 0.01960980381112752 0.7039330785570844
Ni 3.4279405762673143 4.444068892722243 9.453938239205653 0.0035488936935229205 -0.4077669340776139 0.2918286934463813
Ni 7.214115468464718 6.053963964615548 11.385848617070765 0.5058347221863289 -0.26490718646518896 -0.3324788628675757
Ni 0.4891199466059968 0.07390964401858227 0.40965133780749435 -0.25052032161589755 0.16110943785123222 -0.007514820319806414
Ni 4.73841185892131 0.13339610163168222 1.4219263943602982 -1.180358751453677 0.3452981261194311 0.943993895402555
Ni 5.810374791429167 5.533034436618332 0.18331428071221523 0.45218505518167285 0.37838411004012257 1.6910430884228231
Ni 8.25609247213687 8.979402069304804 11.31023780462353 -2.141926394073937 0.5987531048836204 -0.5235750768888854
Ni 0.028171349178475608 4.906115310842388 5.882722989652704 0.1967958355092482 0.13139622705751564 -0.6445984453525091
Ni 7.708552133466396 8.769890702081177 2.704621906201095 0.8142161777850686 -0.10749293807735681 0.005289787644029599
P 8.571738603511804 1.4537142007956305 3.6456447706433277 -0.3638105831013218 1.7151854899969814 -0.2823282101551138
P 1.9269928669940206 3.2924277674654747 1.6131186726543716 -1.7906535384283095 -0.46638268683829354 -0.018283114579903996
P 5.013565645245186 1.1092162528707614 8.354667697436163 -1.2938493018753654 0.27803626764797923 -0.33901846375830647
P 8.668074637514076 1.6202381759395084 12.528130140455547 -0.8635479341406612 1.6540569981167772 0.4408665448450601
P 6.294441133689782 7.6446244921422295 1.5149598933864137 -0.035767901628228724 -0.7657002324625523 -1.6004741797943145
P 2.2203287414833266 3.1957469633283293 6.047661929465993 -1.636605121188917 1.1190307419681567 0.25390672158962724
P 7.04818123170944 3.9963757996907776 5.958373722852397 0.3028250445568849 -0.46164491504299204 -0.032770766673117756
P 2.4018683632907725 8.569170973296824 10.331142337103152 -0.2705345599542954 -0.28060968480211024 0.008859507273158936
